MODEL 1
REMARK VINA RESULT: -9.161013906      0.000      0.000
REMARK  7 active torsions:
REMARK  status: ('A' for Active; 'I' for Inactive)
REMARK    1  A    between atoms: C10_11  and  C11_12 
REMARK    2  A    between atoms: C12_13  and  C13_14 
REMARK    3  A    between atoms: C18_19  and  C19_20 
REMARK    4  A    between atoms: C19_20  and  O2_21 
REMARK    5  A    between atoms: C20_23  and  O3_24 
REMARK    6  A    between atoms: C24_29  and  C25_30 
REMARK    7  A    between atoms: C26_31  and  C27_32 
ROOT
HETATM    1  C13 UNL     1      38.491  26.421  37.131  1.00  0.00     0.016 C 
HETATM    2  C14 UNL     1      37.083  26.126  37.571  1.00  0.00     0.010 C 
HETATM    3  C15 UNL     1      36.858  24.652  37.359  1.00  0.00     0.010 C 
HETATM    4  C16 UNL     1      37.948  23.756  37.808  1.00  0.00     0.026 C 
HETATM    5  C17 UNL     1      38.377  22.778  36.778  1.00  0.00    -0.048 C 
HETATM    6  C18 UNL     1      37.693  21.825  36.234  1.00  0.00     0.004 C 
HETATM    7  C20 UNL     1      39.810  23.092  36.491  1.00  0.00     0.148 C 
HETATM    8  C21 UNL     1      40.336  23.547  37.847  1.00  0.00     0.046 C 
HETATM    9  C22 UNL     1      39.159  24.376  38.414  1.00  0.00    -0.026 C 
HETATM   10  C23 UNL     1      39.160  24.134  39.906  1.00  0.00     0.016 C 
HETATM   11  C24 UNL     1      39.469  25.783  38.080  1.00  0.00     0.024 C 
ENDROOT
BRANCH   1  12
HETATM   12  C12 UNL     1      38.770  27.889  37.003  1.00  0.00    -0.025 C 
HETATM   13  C11 UNL     1      39.122  28.453  35.890  1.00  0.00    -0.025 C 
BRANCH  13  14
HETATM   14  C10 UNL     1      39.405  29.859  35.699  1.00  0.00     0.016 C 
HETATM   15  C2  UNL     1      39.674  30.193  34.213  1.00  0.00    -0.033 C 
HETATM   16  C1  UNL     1      40.556  29.166  33.590  1.00  0.00     0.016 C 
HETATM   17  C3  UNL     1      38.373  30.311  33.463  1.00  0.00     0.017 C 
HETATM   18  C7  UNL     1      40.290  31.553  34.370  1.00  0.00     0.001 C 
HETATM   19  C4  UNL     1      38.408  31.290  32.337  1.00  0.00     0.079 C 
HETATM   20  C5  UNL     1      39.706  31.893  32.066  1.00  0.00     0.127 C 
HETATM   21  O1  UNL     1      39.950  32.280  30.915  1.00  0.00    -0.298 OA
HETATM   22  C6  UNL     1      40.789  32.091  33.062  1.00  0.00     0.083 C 
HETATM   23  C8  UNL     1      41.328  31.327  35.405  1.00  0.00     0.006 C 
HETATM   24  C9  UNL     1      40.577  30.443  36.423  1.00  0.00     0.010 C 
ENDBRANCH  13  14
ENDBRANCH   1  12
BRANCH  11  25
HETATM   25  C25 UNL     1      39.430  26.580  39.343  1.00  0.00    -0.022 C 
HETATM   26  C26 UNL     1      40.522  27.134  39.853  1.00  0.00     0.001 C 
BRANCH  26  27
HETATM   27  C27 UNL     1      40.510  27.921  41.093  1.00  0.00     0.144 C 
HETATM   28  C28 UNL     1      39.489  29.035  41.070  1.00  0.00     0.043 C 
HETATM   29  C29 UNL     1      38.927  29.345  42.422  1.00  0.00     0.083 C 
HETATM   30  C30 UNL     1      38.553  28.110  43.127  1.00  0.00     0.150 C 
HETATM   31  O4  UNL     1      37.767  28.174  44.054  1.00  0.00    -0.296 OA
HETATM   32  C31 UNL     1      39.173  26.836  42.648  1.00  0.00     0.246 C 
HETATM   33  O5  UNL     1      40.450  27.138  42.230  1.00  0.00    -0.375 OA
ENDBRANCH  26  27
ENDBRANCH  11  25
BRANCH   7  34
HETATM   34  O3  UNL     1      40.532  22.004  36.064  1.00  0.00    -0.391 OA
ATOM     35  H3  UNL     1      41.280  21.808  36.617  1.00  0.00     0.210 HD
ENDBRANCH   7  34
BRANCH   6  36
HETATM   36  C19 UNL     1      36.283  21.498  36.539  1.00  0.00     0.191 C 
BRANCH  36  37
HETATM   37  O2  UNL     1      35.403  22.264  35.742  1.00  0.00    -0.397 OA
ATOM     38  H2  UNL     1      34.834  21.702  35.229  1.00  0.00     0.209 HD
ENDBRANCH  36  37
ENDBRANCH   6  36
TORSDOF 7
ENDMDL
MODEL 2
REMARK VINA RESULT: -8.892508594      7.857     13.407
REMARK  7 active torsions:
REMARK  status: ('A' for Active; 'I' for Inactive)
REMARK    1  A    between atoms: C10_11  and  C11_12 
REMARK    2  A    between atoms: C12_13  and  C13_14 
REMARK    3  A    between atoms: C18_19  and  C19_20 
REMARK    4  A    between atoms: C19_20  and  O2_21 
REMARK    5  A    between atoms: C20_23  and  O3_24 
REMARK    6  A    between atoms: C24_29  and  C25_30 
REMARK    7  A    between atoms: C26_31  and  C27_32 
ROOT
HETATM    1  C13 UNL     1      46.456  32.275  29.931  1.00  0.00     0.016 C 
HETATM    2  C14 UNL     1      46.651  32.932  28.592  1.00  0.00     0.010 C 
HETATM    3  C15 UNL     1      47.746  33.954  28.760  1.00  0.00     0.010 C 
HETATM    4  C16 UNL     1      48.938  33.511  29.517  1.00  0.00     0.026 C 
HETATM    5  C17 UNL     1      49.332  34.441  30.604  1.00  0.00    -0.048 C 
HETATM    6  C18 UNL     1      49.731  35.668  30.512  1.00  0.00     0.004 C 
HETATM    7  C20 UNL     1      49.202  33.662  31.874  1.00  0.00     0.148 C 
HETATM    8  C21 UNL     1      49.598  32.253  31.448  1.00  0.00     0.046 C 
HETATM    9  C22 UNL     1      48.954  32.120  30.048  1.00  0.00    -0.026 C 
HETATM   10  C23 UNL     1      49.904  31.275  29.231  1.00  0.00     0.016 C 
HETATM   11  C24 UNL     1      47.660  31.439  30.272  1.00  0.00     0.024 C 
ENDROOT
BRANCH   1  12
HETATM   12  C12 UNL     1      45.208  31.448  30.003  1.00  0.00    -0.025 C 
HETATM   13  C11 UNL     1      44.192  31.754  30.748  1.00  0.00    -0.025 C 
BRANCH  13  14
HETATM   14  C10 UNL     1      42.962  31.001  30.863  1.00  0.00     0.016 C 
HETATM   15  C2  UNL     1      41.773  31.903  31.270  1.00  0.00    -0.033 C 
HETATM   16  C1  UNL     1      42.171  32.848  32.352  1.00  0.00     0.016 C 
HETATM   17  C3  UNL     1      41.253  32.649  30.070  1.00  0.00     0.017 C 
HETATM   18  C7  UNL     1      40.785  30.847  31.675  1.00  0.00     0.001 C 
HETATM   19  C4  UNL     1      39.786  32.924  30.115  1.00  0.00     0.079 C 
HETATM   20  C5  UNL     1      39.110  32.535  31.344  1.00  0.00     0.127 C 
HETATM   21  O1  UNL     1      38.088  33.150  31.677  1.00  0.00    -0.298 OA
HETATM   22  C6  UNL     1      39.540  31.446  32.257  1.00  0.00     0.083 C 
HETATM   23  C8  UNL     1      41.574  29.993  32.595  1.00  0.00     0.006 C 
HETATM   24  C9  UNL     1      42.918  29.873  31.847  1.00  0.00     0.010 C 
ENDBRANCH  13  14
ENDBRANCH   1  12
BRANCH  11  25
HETATM   25  C25 UNL     1      47.611  30.232  29.394  1.00  0.00    -0.022 C 
HETATM   26  C26 UNL     1      47.543  29.006  29.896  1.00  0.00     0.001 C 
BRANCH  26  27
HETATM   27  C27 UNL     1      47.495  27.803  29.053  1.00  0.00     0.144 C 
HETATM   28  C28 UNL     1      48.502  27.836  27.927  1.00  0.00     0.043 C 
HETATM   29  C29 UNL     1      49.005  26.478  27.548  1.00  0.00     0.083 C 
HETATM   30  C30 UNL     1      49.366  25.703  28.746  1.00  0.00     0.150 C 
HETATM   31  O4  UNL     1      50.114  24.750  28.629  1.00  0.00    -0.296 OA
HETATM   32  C31 UNL     1      48.783  26.149  30.048  1.00  0.00     0.246 C 
HETATM   33  O5  UNL     1      47.519  26.630  29.785  1.00  0.00    -0.375 OA
ENDBRANCH  26  27
ENDBRANCH  11  25
BRANCH   7  34
HETATM   34  O3  UNL     1      50.048  34.093  32.867  1.00  0.00    -0.391 OA
ATOM     35  H3  UNL     1      50.440  33.383  33.362  1.00  0.00     0.210 HD
ENDBRANCH   7  34
BRANCH   6  36
HETATM   36  C19 UNL     1      49.885  36.429  29.254  1.00  0.00     0.191 C 
BRANCH  36  37
HETATM   37  O2  UNL     1      48.838  37.365  29.099  1.00  0.00    -0.397 OA
ATOM     38  H2  UNL     1      48.863  38.019  29.788  1.00  0.00     0.209 HD
ENDBRANCH  36  37
ENDBRANCH   6  36
TORSDOF 7
ENDMDL
MODEL 3
REMARK VINA RESULT: -8.128333450     10.503     15.287
REMARK  7 active torsions:
REMARK  status: ('A' for Active; 'I' for Inactive)
REMARK    1  A    between atoms: C10_11  and  C11_12 
REMARK    2  A    between atoms: C12_13  and  C13_14 
REMARK    3  A    between atoms: C18_19  and  C19_20 
REMARK    4  A    between atoms: C19_20  and  O2_21 
REMARK    5  A    between atoms: C20_23  and  O3_24 
REMARK    6  A    between atoms: C24_29  and  C25_30 
REMARK    7  A    between atoms: C26_31  and  C27_32 
ROOT
HETATM    1  C13 UNL     1      49.884  32.052  30.779  1.00  0.00     0.016 C 
HETATM    2  C14 UNL     1      50.016  32.945  31.982  1.00  0.00     0.010 C 
HETATM    3  C15 UNL     1      51.106  33.939  31.673  1.00  0.00     0.010 C 
HETATM    4  C16 UNL     1      51.061  34.556  30.329  1.00  0.00     0.026 C 
HETATM    5  C17 UNL     1      52.352  34.488  29.600  1.00  0.00    -0.048 C 
HETATM    6  C18 UNL     1      53.485  35.027  29.911  1.00  0.00     0.004 C 
HETATM    7  C20 UNL     1      52.086  33.670  28.377  1.00  0.00     0.148 C 
HETATM    8  C21 UNL     1      50.652  34.048  28.022  1.00  0.00     0.046 C 
HETATM    9  C22 UNL     1      49.967  34.146  29.405  1.00  0.00    -0.026 C 
HETATM   10  C23 UNL     1      48.955  35.261  29.291  1.00  0.00     0.016 C 
HETATM   11  C24 UNL     1      49.323  32.832  29.620  1.00  0.00     0.024 C 
ENDROOT
BRANCH   1  12
HETATM   12  C12 UNL     1      49.052  30.833  31.041  1.00  0.00    -0.025 C 
HETATM   13  C11 UNL     1      49.241  29.698  30.445  1.00  0.00    -0.025 C 
BRANCH  13  14
HETATM   14  C10 UNL     1      48.476  28.488  30.651  1.00  0.00     0.016 C 
HETATM   15  C2  UNL     1      49.389  27.275  30.947  1.00  0.00    -0.033 C 
HETATM   16  C1  UNL     1      50.567  27.263  30.034  1.00  0.00     0.016 C 
HETATM   17  C3  UNL     1      49.826  27.294  32.388  1.00  0.00     0.017 C 
HETATM   18  C7  UNL     1      48.404  26.162  30.733  1.00  0.00     0.001 C 
HETATM   19  C4  UNL     1      50.035  25.937  32.975  1.00  0.00     0.079 C 
HETATM   20  C5  UNL     1      49.896  24.821  32.051  1.00  0.00     0.127 C 
HETATM   21  O1  UNL     1      50.520  23.778  32.285  1.00  0.00    -0.298 OA
HETATM   22  C6  UNL     1      49.057  24.817  30.826  1.00  0.00     0.083 C 
HETATM   23  C8  UNL     1      47.812  26.495  29.414  1.00  0.00     0.006 C 
HETATM   24  C9  UNL     1      47.593  28.018  29.537  1.00  0.00     0.010 C 
ENDBRANCH  13  14
ENDBRANCH   1  12
BRANCH  11  25
HETATM   25  C25 UNL     1      47.878  33.065  29.916  1.00  0.00    -0.022 C 
HETATM   26  C26 UNL     1      46.942  32.916  28.988  1.00  0.00     0.001 C 
BRANCH  26  27
HETATM   27  C27 UNL     1      45.515  33.141  29.253  1.00  0.00     0.144 C 
HETATM   28  C28 UNL     1      44.925  32.113  30.191  1.00  0.00     0.043 C 
HETATM   29  C29 UNL     1      43.817  32.658  31.038  1.00  0.00     0.083 C 
HETATM   30  C30 UNL     1      44.195  33.955  31.620  1.00  0.00     0.150 C 
HETATM   31  O4  UNL     1      43.594  34.361  32.596  1.00  0.00    -0.296 OA
HETATM   32  C31 UNL     1      45.314  34.697  30.962  1.00  0.00     0.246 C 
HETATM   33  O5  UNL     1      45.230  34.445  29.610  1.00  0.00    -0.375 OA
ENDBRANCH  26  27
ENDBRANCH  11  25
BRANCH   7  34
HETATM   34  O3  UNL     1      52.912  33.979  27.324  1.00  0.00    -0.391 OA
ATOM     35  H3  UNL     1      52.442  34.184  26.523  1.00  0.00     0.210 HD
ENDBRANCH   7  34
BRANCH   6  36
HETATM   36  C19 UNL     1      53.740  35.859  31.107  1.00  0.00     0.191 C 
BRANCH  36  37
HETATM   37  O2  UNL     1      53.245  37.169  30.927  1.00  0.00    -0.397 OA
ATOM     38  H2  UNL     1      53.425  37.482  30.048  1.00  0.00     0.209 HD
ENDBRANCH  36  37
ENDBRANCH   6  36
TORSDOF 7
ENDMDL
MODEL 4
REMARK VINA RESULT: -8.010303344      9.809     15.324
REMARK  7 active torsions:
REMARK  status: ('A' for Active; 'I' for Inactive)
REMARK    1  A    between atoms: C10_11  and  C11_12 
REMARK    2  A    between atoms: C12_13  and  C13_14 
REMARK    3  A    between atoms: C18_19  and  C19_20 
REMARK    4  A    between atoms: C19_20  and  O2_21 
REMARK    5  A    between atoms: C20_23  and  O3_24 
REMARK    6  A    between atoms: C24_29  and  C25_30 
REMARK    7  A    between atoms: C26_31  and  C27_32 
ROOT
HETATM    1  C13 UNL     1      47.353  32.967  30.784  1.00  0.00     0.016 C 
HETATM    2  C14 UNL     1      46.844  32.000  29.750  1.00  0.00     0.010 C 
HETATM    3  C15 UNL     1      45.354  31.896  29.943  1.00  0.00     0.010 C 
HETATM    4  C16 UNL     1      44.633  33.173  30.141  1.00  0.00     0.026 C 
HETATM    5  C17 UNL     1      43.737  33.174  31.324  1.00  0.00    -0.048 C 
HETATM    6  C18 UNL     1      42.693  32.443  31.548  1.00  0.00     0.004 C 
HETATM    7  C20 UNL     1      44.267  34.233  32.236  1.00  0.00     0.148 C 
HETATM    8  C21 UNL     1      44.790  35.285  31.264  1.00  0.00     0.046 C 
HETATM    9  C22 UNL     1      45.427  34.433  30.141  1.00  0.00    -0.026 C 
HETATM   10  C23 UNL     1      45.180  35.188  28.856  1.00  0.00     0.016 C 
HETATM   11  C24 UNL     1      46.866  34.356  30.471  1.00  0.00     0.024 C 
ENDROOT
BRANCH   1  12
HETATM   12  C12 UNL     1      48.847  32.953  30.915  1.00  0.00    -0.025 C 
HETATM   13  C11 UNL     1      49.593  31.992  30.469  1.00  0.00    -0.025 C 
BRANCH  13  14
HETATM   14  C10 UNL     1      51.034  31.918  30.562  1.00  0.00     0.016 C 
HETATM   15  C2  UNL     1      51.720  33.053  29.766  1.00  0.00    -0.033 C 
HETATM   16  C1  UNL     1      51.070  33.237  28.438  1.00  0.00     0.016 C 
HETATM   17  C3  UNL     1      51.694  34.332  30.561  1.00  0.00     0.017 C 
HETATM   18  C7  UNL     1      53.122  32.516  29.723  1.00  0.00     0.001 C 
HETATM   19  C4  UNL     1      52.867  35.222  30.316  1.00  0.00     0.079 C 
HETATM   20  C5  UNL     1      53.790  34.779  29.281  1.00  0.00     0.127 C 
HETATM   21  O1  UNL     1      54.451  35.631  28.673  1.00  0.00    -0.298 OA
HETATM   22  C6  UNL     1      54.017  33.369  28.875  1.00  0.00     0.083 C 
HETATM   23  C8  UNL     1      52.927  31.125  29.246  1.00  0.00     0.006 C 
HETATM   24  C9  UNL     1      51.706  30.671  30.074  1.00  0.00     0.010 C 
ENDBRANCH  13  14
ENDBRANCH   1  12
BRANCH  11  25
HETATM   25  C25 UNL     1      47.641  34.829  29.286  1.00  0.00    -0.022 C 
HETATM   26  C26 UNL     1      48.311  35.975  29.301  1.00  0.00     0.001 C 
BRANCH  26  27
HETATM   27  C27 UNL     1      49.079  36.462  28.148  1.00  0.00     0.144 C 
HETATM   28  C28 UNL     1      48.403  37.611  27.437  1.00  0.00     0.043 C 
HETATM   29  C29 UNL     1      49.371  38.569  26.815  1.00  0.00     0.083 C 
HETATM   30  C30 UNL     1      50.448  38.908  27.758  1.00  0.00     0.150 C 
HETATM   31  O4  UNL     1      51.099  39.919  27.572  1.00  0.00    -0.296 OA
HETATM   32  C31 UNL     1      50.671  37.973  28.903  1.00  0.00     0.246 C 
HETATM   33  O5  UNL     1      50.408  36.700  28.446  1.00  0.00    -0.375 OA
ENDBRANCH  26  27
ENDBRANCH  11  25
BRANCH   7  34
HETATM   34  O3  UNL     1      43.304  34.794  33.039  1.00  0.00    -0.391 OA
ATOM     35  H3  UNL     1      42.848  34.159  33.580  1.00  0.00     0.210 HD
ENDBRANCH   7  34
BRANCH   6  36
HETATM   36  C19 UNL     1      42.154  31.414  30.633  1.00  0.00     0.191 C 
BRANCH  36  37
HETATM   37  O2  UNL     1      42.462  30.115  31.096  1.00  0.00    -0.397 OA
ATOM     38  H2  UNL     1      43.021  29.658  30.478  1.00  0.00     0.209 HD
ENDBRANCH  36  37
ENDBRANCH   6  36
TORSDOF 7
ENDMDL
MODEL 5
REMARK VINA RESULT: -7.999584434     10.963     14.366
REMARK  7 active torsions:
REMARK  status: ('A' for Active; 'I' for Inactive)
REMARK    1  A    between atoms: C10_11  and  C11_12 
REMARK    2  A    between atoms: C12_13  and  C13_14 
REMARK    3  A    between atoms: C18_19  and  C19_20 
REMARK    4  A    between atoms: C19_20  and  O2_21 
REMARK    5  A    between atoms: C20_23  and  O3_24 
REMARK    6  A    between atoms: C24_29  and  C25_30 
REMARK    7  A    between atoms: C26_31  and  C27_32 
ROOT
HETATM    1  C13 UNL     1      48.448  28.637  30.156  1.00  0.00     0.016 C 
HETATM    2  C14 UNL     1      49.480  28.975  31.197  1.00  0.00     0.010 C 
HETATM    3  C15 UNL     1      49.649  27.750  32.058  1.00  0.00     0.010 C 
HETATM    4  C16 UNL     1      49.756  26.460  31.341  1.00  0.00     0.026 C 
HETATM    5  C17 UNL     1      48.835  25.416  31.855  1.00  0.00    -0.048 C 
HETATM    6  C18 UNL     1      48.807  24.869  33.026  1.00  0.00     0.004 C 
HETATM    7  C20 UNL     1      47.924  25.082  30.717  1.00  0.00     0.148 C 
HETATM    8  C21 UNL     1      48.832  25.232  29.502  1.00  0.00     0.046 C 
HETATM    9  C22 UNL     1      49.679  26.477  29.854  1.00  0.00    -0.026 C 
HETATM   10  C23 UNL     1      51.051  26.224  29.272  1.00  0.00     0.016 C 
HETATM   11  C24 UNL     1      49.000  27.615  29.199  1.00  0.00     0.024 C 
ENDROOT
BRANCH   1  12
HETATM   12  C12 UNL     1      47.954  29.840  29.408  1.00  0.00    -0.025 C 
HETATM   13  C11 UNL     1      47.675  30.969  29.980  1.00  0.00    -0.025 C 
BRANCH  13  14
HETATM   14  C10 UNL     1      47.196  32.164  29.320  1.00  0.00     0.016 C 
HETATM   15  C2  UNL     1      48.128  33.372  29.572  1.00  0.00    -0.033 C 
HETATM   16  C1  UNL     1      48.546  33.430  31.001  1.00  0.00     0.016 C 
HETATM   17  C3  UNL     1      49.326  33.301  28.663  1.00  0.00     0.017 C 
HETATM   18  C7  UNL     1      47.222  34.484  29.125  1.00  0.00     0.001 C 
HETATM   19  C4  UNL     1      49.862  34.635  28.260  1.00  0.00     0.079 C 
HETATM   20  C5  UNL     1      49.225  35.786  28.886  1.00  0.00     0.127 C 
HETATM   21  O1  UNL     1      49.884  36.824  29.025  1.00  0.00    -0.298 OA
HETATM   22  C6  UNL     1      47.827  35.831  29.385  1.00  0.00     0.083 C 
HETATM   23  C8  UNL     1      45.964  34.198  29.857  1.00  0.00     0.006 C 
HETATM   24  C9  UNL     1      45.834  32.669  29.685  1.00  0.00     0.010 C 
ENDBRANCH  13  14
ENDBRANCH   1  12
BRANCH  11  25
HETATM   25  C25 UNL     1      49.998  28.321  28.340  1.00  0.00    -0.022 C 
HETATM   26  C26 UNL     1      49.940  28.270  27.016  1.00  0.00     0.001 C 
BRANCH  26  27
HETATM   27  C27 UNL     1      50.909  28.954  26.150  1.00  0.00     0.144 C 
HETATM   28  C28 UNL     1      51.690  30.025  26.876  1.00  0.00     0.043 C 
HETATM   29  C29 UNL     1      53.077  30.204  26.344  1.00  0.00     0.083 C 
HETATM   30  C30 UNL     1      53.738  28.902  26.164  1.00  0.00     0.150 C 
HETATM   31  O4  UNL     1      54.952  28.861  26.095  1.00  0.00    -0.296 OA
HETATM   32  C31 UNL     1      52.858  27.696  26.079  1.00  0.00     0.246 C 
HETATM   33  O5  UNL     1      51.704  28.080  25.432  1.00  0.00    -0.375 OA
ENDBRANCH  26  27
ENDBRANCH  11  25
BRANCH   7  34
HETATM   34  O3  UNL     1      47.438  23.798  30.767  1.00  0.00    -0.391 OA
ATOM     35  H3  UNL     1      46.767  23.623  30.117  1.00  0.00     0.210 HD
ENDBRANCH   7  34
BRANCH   6  36
HETATM   36  C19 UNL     1      49.725  25.182  34.142  1.00  0.00     0.191 C 
BRANCH  36  37
HETATM   37  O2  UNL     1      49.106  26.037  35.081  1.00  0.00    -0.397 OA
ATOM     38  H2  UNL     1      49.468  26.914  35.030  1.00  0.00     0.209 HD
ENDBRANCH  36  37
ENDBRANCH   6  36
TORSDOF 7
ENDMDL
