MODEL 1
REMARK VINA RESULT: -7.527777111      0.000      0.000
REMARK  8 active torsions:
REMARK  status: ('A' for Active; 'I' for Inactive)
REMARK    1  A    between atoms: C2_2  and  C4_4 
REMARK    2  A    between atoms: C5_5  and  C6_6 
REMARK    3  A    between atoms: C6_6  and  O1_7 
REMARK    4  A    between atoms: C17_19  and  O2_20 
REMARK    5  A    between atoms: O2_20  and  C18_21 
REMARK       I    between atoms: C18_21  and  N1_23 
REMARK    6  A    between atoms: N1_23  and  C19_25 
REMARK    7  A    between atoms: C19_25  and  C20_26 
REMARK    8  A    between atoms: C20_26  and  N2_27 
ROOT
HETATM    1  C6  UNL     1      49.517  35.015  30.306  1.00  0.00     0.128 C 
HETATM    2  C7  UNL     1      48.279  35.089  31.215  1.00  0.00     0.052 C 
HETATM    3  C8  UNL     1      47.696  33.665  31.185  1.00  0.00     0.010 C 
HETATM    4  C9  UNL     1      48.964  32.932  31.021  1.00  0.00     0.002 C 
HETATM    5  C10 UNL     1      49.040  31.493  31.160  1.00  0.00    -0.004 C 
HETATM    6  C11 UNL     1      48.322  30.600  30.235  1.00  0.00     0.006 C 
HETATM    7  C12 UNL     1      48.956  29.204  30.213  1.00  0.00     0.007 C 
HETATM    8  C13 UNL     1      49.680  28.931  31.521  1.00  0.00     0.012 C 
HETATM    9  C14 UNL     1      49.956  27.489  31.715  1.00  0.00    -0.016 C 
HETATM   10  C15 UNL     1      48.869  26.653  31.025  1.00  0.00     0.018 C 
HETATM   11  C16 UNL     1      49.813  27.144  33.201  1.00  0.00     0.018 C 
HETATM   12  C17 UNL     1      51.258  26.988  31.227  1.00  0.00     0.148 C 
HETATM   13  C22 UNL     1      52.405  27.915  31.224  1.00  0.00     0.112 C 
HETATM   14  C23 UNL     1      52.151  29.321  31.499  1.00  0.00     0.138 C 
HETATM   15  O4  UNL     1      53.094  30.076  31.495  1.00  0.00    -0.297 OA
HETATM   16  C24 UNL     1      50.822  29.855  31.778  1.00  0.00     0.025 C 
HETATM   17  C25 UNL     1      50.822  30.068  33.320  1.00  0.00     0.024 C 
HETATM   18  C26 UNL     1      50.555  31.199  31.217  1.00  0.00     0.006 C 
HETATM   19  C27 UNL     1      51.037  31.546  29.867  1.00  0.00     0.007 C 
HETATM   20  C28 UNL     1      51.003  33.074  29.720  1.00  0.00     0.014 C 
HETATM   21  C29 UNL     1      49.583  33.585  29.818  1.00  0.00     0.003 C 
HETATM   22  C30 UNL     1      48.875  33.391  28.539  1.00  0.00     0.020 C 
ENDROOT
BRANCH  12  23
HETATM   23  O2  UNL     1      51.609  25.885  32.079  1.00  0.00    -0.297 OA
BRANCH  23  24
HETATM   24  C18 UNL     1      52.883  25.497  32.364  1.00  0.00     0.360 C 
HETATM   25  O3  UNL     1      53.556  24.911  31.508  1.00  0.00    -0.239 OA
HETATM   26  N1  UNL     1      53.438  25.774  33.669  1.00  0.00    -0.336 N 
ATOM     27  H1  UNL     1      52.861  26.257  34.357  1.00  0.00     0.164 HD
BRANCH  26  28
HETATM   28  C19 UNL     1      54.769  25.393  34.030  1.00  0.00     0.142 C 
BRANCH  28  29
HETATM   29  C20 UNL     1      54.953  24.876  35.407  1.00  0.00     0.145 C 
BRANCH  29  30
HETATM   30  N2  UNL     1      53.869  24.181  36.010  1.00  0.00    -0.157 NA
HETATM   31  C21 UNL     1      53.703  22.819  35.612  1.00  0.00     0.149 C 
HETATM   32  F1  UNL     1      54.012  24.226  37.346  1.00  0.00    -0.134 F 
ENDBRANCH  29  30
ENDBRANCH  28  29
ENDBRANCH  26  28
ENDBRANCH  23  24
ENDBRANCH  12  23
BRANCH   1  33
HETATM   33  C5  UNL     1      49.416  35.976  29.223  1.00  0.00    -0.067 C 
HETATM   34  C4  UNL     1      49.346  36.798  28.329  1.00  0.00    -0.099 C 
BRANCH  34  35
HETATM   35  C2  UNL     1      49.248  37.818  27.260  1.00  0.00     0.057 C 
HETATM   36  C1  UNL     1      49.323  39.208  27.865  1.00  0.00     0.023 C 
HETATM   37  C3  UNL     1      50.455  37.700  26.322  1.00  0.00     0.023 C 
ENDBRANCH  34  35
ENDBRANCH   1  33
BRANCH   1  38
HETATM   38  O1  UNL     1      50.684  35.285  31.008  1.00  0.00    -0.377 OA
ATOM     39  H1  UNL     1      50.920  34.504  31.495  1.00  0.00     0.211 HD
ENDBRANCH   1  38
TORSDOF 8
ENDMDL
MODEL 2
REMARK VINA RESULT: -7.414647084      4.730     10.855
REMARK  8 active torsions:
REMARK  status: ('A' for Active; 'I' for Inactive)
REMARK    1  A    between atoms: C2_2  and  C4_4 
REMARK    2  A    between atoms: C5_5  and  C6_6 
REMARK    3  A    between atoms: C6_6  and  O1_7 
REMARK    4  A    between atoms: C17_19  and  O2_20 
REMARK    5  A    between atoms: O2_20  and  C18_21 
REMARK       I    between atoms: C18_21  and  N1_23 
REMARK    6  A    between atoms: N1_23  and  C19_25 
REMARK    7  A    between atoms: C19_25  and  C20_26 
REMARK    8  A    between atoms: C20_26  and  N2_27 
ROOT
HETATM    1  C6  UNL     1      50.219  22.476  32.387  1.00  0.00     0.128 C 
HETATM    2  C7  UNL     1      50.605  22.011  30.973  1.00  0.00     0.052 C 
HETATM    3  C8  UNL     1      49.906  23.012  30.037  1.00  0.00     0.010 C 
HETATM    4  C9  UNL     1      49.968  24.190  30.919  1.00  0.00     0.002 C 
HETATM    5  C10 UNL     1      49.644  25.519  30.446  1.00  0.00    -0.004 C 
HETATM    6  C11 UNL     1      48.287  25.852  29.980  1.00  0.00     0.006 C 
HETATM    7  C12 UNL     1      48.032  27.362  30.055  1.00  0.00     0.007 C 
HETATM    8  C13 UNL     1      49.345  28.125  29.970  1.00  0.00     0.012 C 
HETATM    9  C14 UNL     1      49.138  29.553  29.636  1.00  0.00    -0.016 C 
HETATM   10  C15 UNL     1      47.876  29.710  28.776  1.00  0.00     0.018 C 
HETATM   11  C16 UNL     1      50.277  30.027  28.727  1.00  0.00     0.018 C 
HETATM   12  C17 UNL     1      49.004  30.490  30.771  1.00  0.00     0.148 C 
HETATM   13  C22 UNL     1      49.708  30.170  32.026  1.00  0.00     0.112 C 
HETATM   14  C23 UNL     1      50.322  28.856  32.153  1.00  0.00     0.138 C 
HETATM   15  O4  UNL     1      50.898  28.600  33.183  1.00  0.00    -0.297 OA
HETATM   16  C24 UNL     1      50.274  27.846  31.101  1.00  0.00     0.025 C 
HETATM   17  C25 UNL     1      51.696  27.898  30.469  1.00  0.00     0.024 C 
HETATM   18  C26 UNL     1      50.130  26.451  31.577  1.00  0.00     0.006 C 
HETATM   19  C27 UNL     1      49.230  26.145  32.705  1.00  0.00     0.007 C 
HETATM   20  C28 UNL     1      49.591  24.753  33.245  1.00  0.00     0.014 C 
HETATM   21  C29 UNL     1      49.345  23.695  32.194  1.00  0.00     0.003 C 
HETATM   22  C30 UNL     1      47.911  23.358  32.126  1.00  0.00     0.020 C 
ENDROOT
BRANCH  12  23
HETATM   23  O2  UNL     1      49.512  31.753  30.311  1.00  0.00    -0.297 OA
BRANCH  23  24
HETATM   24  C18 UNL     1      48.836  32.934  30.376  1.00  0.00     0.360 C 
HETATM   25  O3  UNL     1      48.936  33.648  31.380  1.00  0.00    -0.239 OA
HETATM   26  N1  UNL     1      48.006  33.341  29.266  1.00  0.00    -0.336 N 
ATOM     27  H1  UNL     1      47.940  32.733  28.450  1.00  0.00     0.164 HD
BRANCH  26  28
HETATM   28  C19 UNL     1      47.272  34.570  29.272  1.00  0.00     0.142 C 
BRANCH  28  29
HETATM   29  C20 UNL     1      45.810  34.459  29.497  1.00  0.00     0.145 C 
BRANCH  29  30
HETATM   30  N2  UNL     1      45.364  33.860  30.707  1.00  0.00    -0.157 NA
HETATM   31  C21 UNL     1      44.844  34.755  31.691  1.00  0.00     0.149 C 
HETATM   32  F1  UNL     1      44.423  32.943  30.418  1.00  0.00    -0.134 F 
ENDBRANCH  29  30
ENDBRANCH  28  29
ENDBRANCH  26  28
ENDBRANCH  23  24
ENDBRANCH  12  23
BRANCH   1  33
HETATM   33  C5  UNL     1      49.549  21.411  33.112  1.00  0.00    -0.067 C 
HETATM   34  C4  UNL     1      48.995  20.502  33.700  1.00  0.00    -0.099 C 
BRANCH  34  35
HETATM   35  C2  UNL     1      48.302  19.392  34.393  1.00  0.00     0.057 C 
HETATM   36  C1  UNL     1      48.741  19.340  35.846  1.00  0.00     0.023 C 
HETATM   37  C3  UNL     1      46.793  19.661  34.417  1.00  0.00     0.023 C 
ENDBRANCH  34  35
ENDBRANCH   1  33
BRANCH   1  38
HETATM   38  O1  UNL     1      51.334  22.857  33.122  1.00  0.00    -0.377 OA
ATOM     39  H1  UNL     1      52.103  22.508  32.687  1.00  0.00     0.211 HD
ENDBRANCH   1  38
TORSDOF 8
ENDMDL
MODEL 3
REMARK VINA RESULT: -7.275784484      0.940      1.158
REMARK  8 active torsions:
REMARK  status: ('A' for Active; 'I' for Inactive)
REMARK    1  A    between atoms: C2_2  and  C4_4 
REMARK    2  A    between atoms: C5_5  and  C6_6 
REMARK    3  A    between atoms: C6_6  and  O1_7 
REMARK    4  A    between atoms: C17_19  and  O2_20 
REMARK    5  A    between atoms: O2_20  and  C18_21 
REMARK       I    between atoms: C18_21  and  N1_23 
REMARK    6  A    between atoms: N1_23  and  C19_25 
REMARK    7  A    between atoms: C19_25  and  C20_26 
REMARK    8  A    between atoms: C20_26  and  N2_27 
ROOT
HETATM    1  C6  UNL     1      50.206  34.662  30.562  1.00  0.00     0.128 C 
HETATM    2  C7  UNL     1      48.952  34.832  31.436  1.00  0.00     0.052 C 
HETATM    3  C8  UNL     1      48.226  33.480  31.332  1.00  0.00     0.010 C 
HETATM    4  C9  UNL     1      49.415  32.625  31.178  1.00  0.00     0.002 C 
HETATM    5  C10 UNL     1      49.337  31.182  31.263  1.00  0.00    -0.004 C 
HETATM    6  C11 UNL     1      48.562  30.402  30.281  1.00  0.00     0.006 C 
HETATM    7  C12 UNL     1      49.049  28.949  30.224  1.00  0.00     0.007 C 
HETATM    8  C13 UNL     1      49.695  28.555  31.542  1.00  0.00     0.012 C 
HETATM    9  C14 UNL     1      49.813  27.086  31.687  1.00  0.00    -0.016 C 
HETATM   10  C15 UNL     1      48.670  26.394  30.932  1.00  0.00     0.018 C 
HETATM   11  C16 UNL     1      49.584  26.705  33.154  1.00  0.00     0.018 C 
HETATM   12  C17 UNL     1      51.073  26.469  31.219  1.00  0.00     0.148 C 
HETATM   13  C22 UNL     1      52.308  27.270  31.287  1.00  0.00     0.112 C 
HETATM   14  C23 UNL     1      52.192  28.684  31.609  1.00  0.00     0.138 C 
HETATM   15  O4  UNL     1      53.209  29.336  31.664  1.00  0.00    -0.297 OA
HETATM   16  C24 UNL     1      50.917  29.344  31.869  1.00  0.00     0.025 C 
HETATM   17  C25 UNL     1      50.887  29.501  33.417  1.00  0.00     0.024 C 
HETATM   18  C26 UNL     1      50.810  30.728  31.354  1.00  0.00     0.006 C 
HETATM   19  C27 UNL     1      51.372  31.070  30.034  1.00  0.00     0.007 C 
HETATM   20  C28 UNL     1      51.501  32.598  29.946  1.00  0.00     0.014 C 
HETATM   21  C29 UNL     1      50.140  33.252  30.020  1.00  0.00     0.003 C 
HETATM   22  C30 UNL     1      49.459  33.179  28.715  1.00  0.00     0.020 C 
ENDROOT
BRANCH  12  23
HETATM   23  O2  UNL     1      51.277  25.305  32.038  1.00  0.00    -0.297 OA
BRANCH  23  24
HETATM   24  C18 UNL     1      52.492  24.854  32.459  1.00  0.00     0.360 C 
HETATM   25  O3  UNL     1      53.283  24.361  31.646  1.00  0.00    -0.239 OA
HETATM   26  N1  UNL     1      52.845  24.957  33.856  1.00  0.00    -0.336 N 
ATOM     27  H1  UNL     1      52.174  25.367  34.505  1.00  0.00     0.164 HD
BRANCH  26  28
HETATM   28  C19 UNL     1      54.105  24.504  34.360  1.00  0.00     0.142 C 
BRANCH  28  29
HETATM   29  C20 UNL     1      54.166  24.223  35.815  1.00  0.00     0.145 C 
BRANCH  29  30
HETATM   30  N2  UNL     1      54.827  25.164  36.651  1.00  0.00    -0.157 NA
HETATM   31  C21 UNL     1      54.564  25.049  38.050  1.00  0.00     0.149 C 
HETATM   32  F1  UNL     1      56.153  25.069  36.452  1.00  0.00    -0.134 F 
ENDBRANCH  29  30
ENDBRANCH  28  29
ENDBRANCH  26  28
ENDBRANCH  23  24
ENDBRANCH  12  23
BRANCH   1  33
HETATM   33  C5  UNL     1      50.242  35.667  29.515  1.00  0.00    -0.067 C 
HETATM   34  C4  UNL     1      50.256  36.525  28.653  1.00  0.00    -0.099 C 
BRANCH  34  35
HETATM   35  C2  UNL     1      50.245  37.566  27.600  1.00  0.00     0.057 C 
HETATM   36  C1  UNL     1      50.763  36.985  26.297  1.00  0.00     0.023 C 
HETATM   37  C3  UNL     1      48.803  38.005  27.324  1.00  0.00     0.023 C 
ENDBRANCH  34  35
ENDBRANCH   1  33
BRANCH   1  38
HETATM   38  O1  UNL     1      51.370  34.783  31.310  1.00  0.00    -0.377 OA
ATOM     39  H1  UNL     1      51.947  35.386  30.856  1.00  0.00     0.211 HD
ENDBRANCH   1  38
TORSDOF 8
ENDMDL
MODEL 4
REMARK VINA RESULT: -7.044005625      2.003      2.259
REMARK  8 active torsions:
REMARK  status: ('A' for Active; 'I' for Inactive)
REMARK    1  A    between atoms: C2_2  and  C4_4 
REMARK    2  A    between atoms: C5_5  and  C6_6 
REMARK    3  A    between atoms: C6_6  and  O1_7 
REMARK    4  A    between atoms: C17_19  and  O2_20 
REMARK    5  A    between atoms: O2_20  and  C18_21 
REMARK       I    between atoms: C18_21  and  N1_23 
REMARK    6  A    between atoms: N1_23  and  C19_25 
REMARK    7  A    between atoms: C19_25  and  C20_26 
REMARK    8  A    between atoms: C20_26  and  N2_27 
ROOT
HETATM    1  C6  UNL     1      49.415  35.036  30.223  1.00  0.00     0.128 C 
HETATM    2  C7  UNL     1      48.165  35.090  31.117  1.00  0.00     0.052 C 
HETATM    3  C8  UNL     1      47.626  33.650  31.110  1.00  0.00     0.010 C 
HETATM    4  C9  UNL     1      48.917  32.953  30.976  1.00  0.00     0.002 C 
HETATM    5  C10 UNL     1      49.035  31.520  31.146  1.00  0.00    -0.004 C 
HETATM    6  C11 UNL     1      48.356  30.586  30.232  1.00  0.00     0.006 C 
HETATM    7  C12 UNL     1      49.033  29.210  30.247  1.00  0.00     0.007 C 
HETATM    8  C13 UNL     1      49.750  28.987  31.568  1.00  0.00     0.012 C 
HETATM    9  C14 UNL     1      50.067  27.558  31.796  1.00  0.00    -0.016 C 
HETATM   10  C15 UNL     1      49.014  26.675  31.112  1.00  0.00     0.018 C 
HETATM   11  C16 UNL     1      49.918  27.240  33.287  1.00  0.00     0.018 C 
HETATM   12  C17 UNL     1      51.390  27.087  31.332  1.00  0.00     0.148 C 
HETATM   13  C22 UNL     1      52.507  28.049  31.322  1.00  0.00     0.112 C 
HETATM   14  C23 UNL     1      52.208  29.452  31.564  1.00  0.00     0.138 C 
HETATM   15  O4  UNL     1      53.128  30.236  31.554  1.00  0.00    -0.297 OA
HETATM   16  C24 UNL     1      50.860  29.950  31.817  1.00  0.00     0.025 C 
HETATM   17  C25 UNL     1      50.836  30.195  33.355  1.00  0.00     0.024 C 
HETATM   18  C26 UNL     1      50.558  31.274  31.226  1.00  0.00     0.006 C 
HETATM   19  C27 UNL     1      51.045  31.607  29.874  1.00  0.00     0.007 C 
HETATM   20  C28 UNL     1      50.966  33.130  29.694  1.00  0.00     0.014 C 
HETATM   21  C29 UNL     1      49.530  33.599  29.766  1.00  0.00     0.003 C 
HETATM   22  C30 UNL     1      48.843  33.356  28.484  1.00  0.00     0.020 C 
ENDROOT
BRANCH  12  23
HETATM   23  O2  UNL     1      51.764  26.014  32.212  1.00  0.00    -0.297 OA
BRANCH  23  24
HETATM   24  C18 UNL     1      51.760  24.694  31.873  1.00  0.00     0.360 C 
HETATM   25  O3  UNL     1      51.825  24.362  30.684  1.00  0.00    -0.239 OA
HETATM   26  N1  UNL     1      51.680  23.693  32.911  1.00  0.00    -0.336 N 
ATOM     27  H1  UNL     1      51.625  23.994  33.884  1.00  0.00     0.164 HD
BRANCH  26  28
HETATM   28  C19 UNL     1      51.672  22.291  32.621  1.00  0.00     0.142 C 
BRANCH  28  29
HETATM   29  C20 UNL     1      50.341  21.641  32.559  1.00  0.00     0.145 C 
BRANCH  29  30
HETATM   30  N2  UNL     1      49.444  21.849  33.642  1.00  0.00    -0.157 NA
HETATM   31  C21 UNL     1      48.304  22.663  33.361  1.00  0.00     0.149 C 
HETATM   32  F1  UNL     1      49.022  20.656  34.094  1.00  0.00    -0.134 F 
ENDBRANCH  29  30
ENDBRANCH  28  29
ENDBRANCH  26  28
ENDBRANCH  23  24
ENDBRANCH  12  23
BRANCH   1  33
HETATM   33  C5  UNL     1      49.297  35.971  29.118  1.00  0.00    -0.067 C 
HETATM   34  C4  UNL     1      49.221  36.765  28.201  1.00  0.00    -0.099 C 
BRANCH  34  35
HETATM   35  C2  UNL     1      49.126  37.755  27.103  1.00  0.00     0.057 C 
HETATM   36  C1  UNL     1      49.089  39.159  27.678  1.00  0.00     0.023 C 
HETATM   37  C3  UNL     1      50.389  37.686  26.237  1.00  0.00     0.023 C 
ENDBRANCH  34  35
ENDBRANCH   1  33
BRANCH   1  38
HETATM   38  O1  UNL     1      50.565  35.357  30.932  1.00  0.00    -0.377 OA
ATOM     39  H1  UNL     1      50.305  35.616  31.808  1.00  0.00     0.211 HD
ENDBRANCH   1  38
TORSDOF 8
ENDMDL
MODEL 5
REMARK VINA RESULT: -6.914375629      1.204      1.297
REMARK  8 active torsions:
REMARK  status: ('A' for Active; 'I' for Inactive)
REMARK    1  A    between atoms: C2_2  and  C4_4 
REMARK    2  A    between atoms: C5_5  and  C6_6 
REMARK    3  A    between atoms: C6_6  and  O1_7 
REMARK    4  A    between atoms: C17_19  and  O2_20 
REMARK    5  A    between atoms: O2_20  and  C18_21 
REMARK       I    between atoms: C18_21  and  N1_23 
REMARK    6  A    between atoms: N1_23  and  C19_25 
REMARK    7  A    between atoms: C19_25  and  C20_26 
REMARK    8  A    between atoms: C20_26  and  N2_27 
ROOT
HETATM    1  C6  UNL     1      49.490  35.039  30.204  1.00  0.00     0.128 C 
HETATM    2  C7  UNL     1      48.237  35.106  31.094  1.00  0.00     0.052 C 
HETATM    3  C8  UNL     1      47.690  33.669  31.095  1.00  0.00     0.010 C 
HETATM    4  C9  UNL     1      48.977  32.963  30.969  1.00  0.00     0.002 C 
HETATM    5  C10 UNL     1      49.086  31.531  31.148  1.00  0.00    -0.004 C 
HETATM    6  C11 UNL     1      48.404  30.596  30.237  1.00  0.00     0.006 C 
HETATM    7  C12 UNL     1      49.072  29.215  30.262  1.00  0.00     0.007 C 
HETATM    8  C13 UNL     1      49.784  28.996  31.587  1.00  0.00     0.012 C 
HETATM    9  C14 UNL     1      50.092  27.567  31.824  1.00  0.00    -0.016 C 
HETATM   10  C15 UNL     1      49.035  26.686  31.142  1.00  0.00     0.018 C 
HETATM   11  C16 UNL     1      49.935  27.259  33.317  1.00  0.00     0.018 C 
HETATM   12  C17 UNL     1      51.413  27.085  31.368  1.00  0.00     0.148 C 
HETATM   13  C22 UNL     1      52.536  28.040  31.355  1.00  0.00     0.112 C 
HETATM   14  C23 UNL     1      52.244  29.447  31.588  1.00  0.00     0.138 C 
HETATM   15  O4  UNL     1      53.169  30.224  31.576  1.00  0.00    -0.297 OA
HETATM   16  C24 UNL     1      50.898  29.954  31.834  1.00  0.00     0.025 C 
HETATM   17  C25 UNL     1      50.871  30.209  33.370  1.00  0.00     0.024 C 
HETATM   18  C26 UNL     1      50.607  31.276  31.234  1.00  0.00     0.006 C 
HETATM   19  C27 UNL     1      51.100  31.598  29.881  1.00  0.00     0.007 C 
HETATM   20  C28 UNL     1      51.031  33.120  29.692  1.00  0.00     0.014 C 
HETATM   21  C29 UNL     1      49.598  33.599  29.756  1.00  0.00     0.003 C 
HETATM   22  C30 UNL     1      48.913  33.353  28.474  1.00  0.00     0.020 C 
ENDROOT
BRANCH  12  23
HETATM   23  O2  UNL     1      51.778  26.015  32.255  1.00  0.00    -0.297 OA
BRANCH  23  24
HETATM   24  C18 UNL     1      52.277  24.811  31.857  1.00  0.00     0.360 C 
HETATM   25  O3  UNL     1      51.628  24.100  31.081  1.00  0.00    -0.239 OA
HETATM   26  N1  UNL     1      53.563  24.375  32.349  1.00  0.00    -0.336 N 
ATOM     27  H1  UNL     1      54.077  24.980  32.990  1.00  0.00     0.164 HD
BRANCH  26  28
HETATM   28  C19 UNL     1      54.142  23.124  31.968  1.00  0.00     0.142 C 
BRANCH  28  29
HETATM   29  C20 UNL     1      54.051  22.029  32.964  1.00  0.00     0.145 C 
BRANCH  29  30
HETATM   30  N2  UNL     1      54.697  22.210  34.218  1.00  0.00    -0.157 NA
HETATM   31  C21 UNL     1      53.857  22.621  35.298  1.00  0.00     0.149 C 
HETATM   32  F1  UNL     1      55.312  21.065  34.561  1.00  0.00    -0.134 F 
ENDBRANCH  29  30
ENDBRANCH  28  29
ENDBRANCH  26  28
ENDBRANCH  23  24
ENDBRANCH  12  23
BRANCH   1  33
HETATM   33  C5  UNL     1      49.381  35.968  29.094  1.00  0.00    -0.067 C 
HETATM   34  C4  UNL     1      49.316  36.747  28.162  1.00  0.00    -0.099 C 
BRANCH  34  35
HETATM   35  C2  UNL     1      49.251  37.716  27.044  1.00  0.00     0.057 C 
HETATM   36  C1  UNL     1      49.106  39.124  27.593  1.00  0.00     0.023 C 
HETATM   37  C3  UNL     1      50.573  37.698  26.269  1.00  0.00     0.023 C 
ENDBRANCH  34  35
ENDBRANCH   1  33
BRANCH   1  38
HETATM   38  O1  UNL     1      50.640  35.357  30.915  1.00  0.00    -0.377 OA
ATOM     39  H1  UNL     1      50.540  36.239  31.253  1.00  0.00     0.211 HD
ENDBRANCH   1  38
TORSDOF 8
ENDMDL
