MODEL 1
REMARK VINA RESULT: -6.888431248      0.000      0.000
REMARK  7 active torsions:
REMARK  status: ('A' for Active; 'I' for Inactive)
REMARK    1  A    between atoms: C17_21  and  C18_22 
REMARK    2  A    between atoms: C18_22  and  C19_23 
REMARK    3  A    between atoms: C18_22  and  C22_26 
REMARK    4  A    between atoms: C22_26  and  O2_27 
REMARK    5  A    between atoms: C22_26  and  C23_29 
REMARK    6  A    between atoms: C23_29  and  O4_31 
REMARK    7  A    between atoms: O4_31  and  C24_32 
ROOT
HETATM    1  C1  UNL     1      47.265  30.683  29.648  1.00  0.00     0.015 C 
HETATM    2  C2  UNL     1      48.329  30.404  30.387  1.00  0.00    -0.078 C 
HETATM    3  C3  UNL     1      48.931  31.533  31.209  1.00  0.00     0.044 C 
HETATM    4  C4  UNL     1      49.349  32.602  30.255  1.00  0.00     0.241 C 
HETATM    5  N1  UNL     1      49.966  33.715  30.957  1.00  0.00    -0.074 N 
ATOM      6  H11 UNL     1      49.287  34.452  31.149  1.00  0.00     0.277 HD
ATOM      7  H12 UNL     1      50.598  34.232  30.345  1.00  0.00     0.277 HD
HETATM    8  C5  UNL     1      50.640  33.292  32.172  1.00  0.00     0.232 C 
HETATM    9  C6  UNL     1      51.206  31.877  32.005  1.00  0.00     0.033 C 
HETATM   10  C7  UNL     1      50.017  30.941  32.028  1.00  0.00     0.002 C 
HETATM   11  C8  UNL     1      50.276  29.599  31.440  1.00  0.00    -0.001 C 
HETATM   12  C9  UNL     1      51.534  29.544  30.605  1.00  0.00     0.006 C 
HETATM   13  C10 UNL     1      51.723  28.028  30.431  1.00  0.00     0.006 C 
HETATM   14  C11 UNL     1      50.698  27.604  29.403  1.00  0.00     0.003 C 
HETATM   15  C12 UNL     1      50.665  26.085  29.265  1.00  0.00    -0.035 C 
HETATM   16  C13 UNL     1      52.113  25.685  29.543  1.00  0.00     0.016 C 
HETATM   17  C14 UNL     1      50.262  25.603  27.920  1.00  0.00     0.017 C 
HETATM   18  C15 UNL     1      49.409  24.356  27.954  1.00  0.00     0.079 C 
HETATM   19  C16 UNL     1      49.946  23.539  29.114  1.00  0.00     0.132 C 
HETATM   20  O1  UNL     1      50.500  22.537  28.754  1.00  0.00    -0.298 OA
HETATM   21  C17 UNL     1      49.728  24.059  30.492  1.00  0.00     0.067 C 
HETATM   22  C26 UNL     1      49.822  25.537  30.399  1.00  0.00     0.006 C 
HETATM   23  C27 UNL     1      48.414  26.114  30.335  1.00  0.00     0.007 C 
HETATM   24  C28 UNL     1      48.228  27.271  29.431  1.00  0.00     0.011 C 
HETATM   25  C29 UNL     1      49.383  28.289  29.473  1.00  0.00    -0.032 C 
HETATM   26  C30 UNL     1      49.234  29.089  28.180  1.00  0.00     0.016 C 
HETATM   27  C31 UNL     1      49.101  29.168  30.626  1.00  0.00     0.027 C 
ENDROOT
BRANCH  21  28
HETATM   28  C18 UNL     1      50.609  23.410  31.537  1.00  0.00     0.039 C 
BRANCH  28  29
HETATM   29  C19 UNL     1      49.811  22.351  32.250  1.00  0.00    -0.015 C 
HETATM   30  C20 UNL     1      48.305  22.516  32.180  1.00  0.00     0.010 C 
HETATM   31  C21 UNL     1      50.215  20.939  31.945  1.00  0.00     0.010 C 
ENDBRANCH  28  29
BRANCH  28  32
HETATM   32  C22 UNL     1      51.448  24.284  32.366  1.00  0.00     0.222 C 
BRANCH  32  33
HETATM   33  O2  UNL     1      52.765  23.697  32.311  1.00  0.00    -0.385 OA
ATOM     34  H2  UNL     1      52.645  22.801  32.603  1.00  0.00     0.210 HD
ENDBRANCH  32  33
BRANCH  32  35
HETATM   35  C23 UNL     1      51.282  24.404  33.807  1.00  0.00     0.288 C 
HETATM   36  O3  UNL     1      52.205  24.131  34.590  1.00  0.00    -0.262 OA
BRANCH  35  37
HETATM   37  O4  UNL     1      50.146  24.816  34.497  1.00  0.00    -0.320 OA
BRANCH  37  38
HETATM   38  C24 UNL     1      49.164  25.688  34.007  1.00  0.00     0.174 C 
HETATM   39  C25 UNL     1      49.836  27.032  33.706  1.00  0.00     0.034 C 
ENDBRANCH  37  38
ENDBRANCH  35  37
ENDBRANCH  32  35
ENDBRANCH  28  32
ENDBRANCH  21  28
TORSDOF 7
ENDMDL
MODEL 2
REMARK VINA RESULT: -6.829134559      4.101      7.913
REMARK  7 active torsions:
REMARK  status: ('A' for Active; 'I' for Inactive)
REMARK    1  A    between atoms: C17_21  and  C18_22 
REMARK    2  A    between atoms: C18_22  and  C19_23 
REMARK    3  A    between atoms: C18_22  and  C22_26 
REMARK    4  A    between atoms: C22_26  and  O2_27 
REMARK    5  A    between atoms: C22_26  and  C23_29 
REMARK    6  A    between atoms: C23_29  and  O4_31 
REMARK    7  A    between atoms: O4_31  and  C24_32 
ROOT
HETATM    1  C1  UNL     1      48.728  26.455  28.814  1.00  0.00     0.015 C 
HETATM    2  C2  UNL     1      49.547  26.783  29.803  1.00  0.00    -0.078 C 
HETATM    3  C3  UNL     1      50.067  25.662  30.689  1.00  0.00     0.044 C 
HETATM    4  C4  UNL     1      48.881  25.012  31.322  1.00  0.00     0.241 C 
HETATM    5  N1  UNL     1      49.290  23.940  32.216  1.00  0.00    -0.074 N 
ATOM      6  H11 UNL     1      49.263  23.035  31.743  1.00  0.00     0.277 HD
ATOM      7  H12 UNL     1      48.585  23.769  32.933  1.00  0.00     0.277 HD
HETATM    8  C5  UNL     1      50.594  24.185  32.807  1.00  0.00     0.232 C 
HETATM    9  C6  UNL     1      50.816  25.688  33.005  1.00  0.00     0.033 C 
HETATM   10  C7  UNL     1      51.045  26.268  31.626  1.00  0.00     0.002 C 
HETATM   11  C8  UNL     1      50.833  27.737  31.531  1.00  0.00    -0.001 C 
HETATM   12  C9  UNL     1      50.081  28.311  32.708  1.00  0.00     0.006 C 
HETATM   13  C10 UNL     1      50.313  29.820  32.517  1.00  0.00     0.006 C 
HETATM   14  C11 UNL     1      49.398  30.232  31.385  1.00  0.00     0.003 C 
HETATM   15  C12 UNL     1      49.658  31.680  30.979  1.00  0.00    -0.035 C 
HETATM   16  C13 UNL     1      50.076  32.334  32.294  1.00  0.00     0.016 C 
HETATM   17  C14 UNL     1      48.472  32.380  30.425  1.00  0.00     0.017 C 
HETATM   18  C15 UNL     1      48.801  33.329  29.296  1.00  0.00     0.079 C 
HETATM   19  C16 UNL     1      50.150  33.923  29.657  1.00  0.00     0.132 C 
HETATM   20  O1  UNL     1      50.080  35.087  29.938  1.00  0.00    -0.298 OA
HETATM   21  C17 UNL     1      51.338  33.026  29.619  1.00  0.00     0.067 C 
HETATM   22  C26 UNL     1      50.868  31.692  30.066  1.00  0.00     0.006 C 
HETATM   23  C27 UNL     1      50.612  30.827  28.840  1.00  0.00     0.007 C 
HETATM   24  C28 UNL     1      49.434  29.934  28.911  1.00  0.00     0.011 C 
HETATM   25  C29 UNL     1      49.246  29.253  30.279  1.00  0.00    -0.032 C 
HETATM   26  C30 UNL     1      47.786  28.805  30.286  1.00  0.00     0.016 C 
HETATM   27  C31 UNL     1      50.123  28.065  30.259  1.00  0.00     0.027 C 
ENDROOT
BRANCH  21  28
HETATM   28  C18 UNL     1      52.543  33.577  30.351  1.00  0.00     0.039 C 
BRANCH  28  29
HETATM   29  C19 UNL     1      53.462  34.225  29.348  1.00  0.00    -0.015 C 
HETATM   30  C20 UNL     1      53.341  33.706  27.928  1.00  0.00     0.010 C 
HETATM   31  C21 UNL     1      53.476  35.724  29.376  1.00  0.00     0.010 C 
ENDBRANCH  28  29
BRANCH  28  32
HETATM   32  C22 UNL     1      53.166  32.735  31.379  1.00  0.00     0.222 C 
BRANCH  32  33
HETATM   33  O2  UNL     1      53.424  33.625  32.484  1.00  0.00    -0.385 OA
ATOM     34  H2  UNL     1      52.580  33.743  32.904  1.00  0.00     0.210 HD
ENDBRANCH  32  33
BRANCH  32  35
HETATM   35  C23 UNL     1      54.484  32.137  31.219  1.00  0.00     0.288 C 
HETATM   36  O3  UNL     1      55.519  32.791  31.422  1.00  0.00    -0.262 OA
BRANCH  35  37
HETATM   37  O4  UNL     1      54.782  30.832  30.842  1.00  0.00    -0.320 OA
BRANCH  37  38
HETATM   38  C24 UNL     1      53.932  29.726  30.986  1.00  0.00     0.174 C 
HETATM   39  C25 UNL     1      53.693  29.131  29.595  1.00  0.00     0.034 C 
ENDBRANCH  37  38
ENDBRANCH  35  37
ENDBRANCH  32  35
ENDBRANCH  28  32
ENDBRANCH  21  28
TORSDOF 7
ENDMDL
MODEL 3
REMARK VINA RESULT: -6.646376698      4.306      8.219
REMARK  7 active torsions:
REMARK  status: ('A' for Active; 'I' for Inactive)
REMARK    1  A    between atoms: C17_21  and  C18_22 
REMARK    2  A    between atoms: C18_22  and  C19_23 
REMARK    3  A    between atoms: C18_22  and  C22_26 
REMARK    4  A    between atoms: C22_26  and  O2_27 
REMARK    5  A    between atoms: C22_26  and  C23_29 
REMARK    6  A    between atoms: C23_29  and  O4_31 
REMARK    7  A    between atoms: O4_31  and  C24_32 
ROOT
HETATM    1  C1  UNL     1      48.820  26.327  28.874  1.00  0.00     0.015 C 
HETATM    2  C2  UNL     1      49.635  26.690  29.853  1.00  0.00    -0.078 C 
HETATM    3  C3  UNL     1      50.204  25.594  30.741  1.00  0.00     0.044 C 
HETATM    4  C4  UNL     1      49.049  24.905  31.389  1.00  0.00     0.241 C 
HETATM    5  N1  UNL     1      49.505  23.854  32.284  1.00  0.00    -0.074 N 
ATOM      6  H11 UNL     1      49.507  22.947  31.817  1.00  0.00     0.277 HD
ATOM      7  H12 UNL     1      48.814  23.662  33.009  1.00  0.00     0.277 HD
HETATM    8  C5  UNL     1      50.804  24.151  32.862  1.00  0.00     0.232 C 
HETATM    9  C6  UNL     1      50.973  25.662  33.050  1.00  0.00     0.033 C 
HETATM   10  C7  UNL     1      51.167  26.242  31.665  1.00  0.00     0.002 C 
HETATM   11  C8  UNL     1      50.901  27.701  31.563  1.00  0.00    -0.001 C 
HETATM   12  C9  UNL     1      50.139  28.255  32.744  1.00  0.00     0.006 C 
HETATM   13  C10 UNL     1      50.313  29.770  32.542  1.00  0.00     0.006 C 
HETATM   14  C11 UNL     1      49.374  30.141  31.417  1.00  0.00     0.003 C 
HETATM   15  C12 UNL     1      49.576  31.595  31.000  1.00  0.00    -0.035 C 
HETATM   16  C13 UNL     1      49.982  32.272  32.307  1.00  0.00     0.016 C 
HETATM   17  C14 UNL     1      48.360  32.248  30.454  1.00  0.00     0.017 C 
HETATM   18  C15 UNL     1      48.644  33.202  29.316  1.00  0.00     0.079 C 
HETATM   19  C16 UNL     1      49.973  33.847  29.660  1.00  0.00     0.132 C 
HETATM   20  O1  UNL     1      49.863  35.010  29.935  1.00  0.00    -0.298 OA
HETATM   21  C17 UNL     1      51.193  32.995  29.616  1.00  0.00     0.067 C 
HETATM   22  C26 UNL     1      50.777  31.646  30.076  1.00  0.00     0.006 C 
HETATM   23  C27 UNL     1      50.542  30.765  28.857  1.00  0.00     0.007 C 
HETATM   24  C28 UNL     1      49.397  29.830  28.944  1.00  0.00     0.011 C 
HETATM   25  C29 UNL     1      49.248  29.151  30.318  1.00  0.00    -0.032 C 
HETATM   26  C30 UNL     1      47.806  28.649  30.341  1.00  0.00     0.016 C 
HETATM   27  C31 UNL     1      50.167  27.995  30.296  1.00  0.00     0.027 C 
ENDROOT
BRANCH  21  28
HETATM   28  C18 UNL     1      52.383  33.594  30.334  1.00  0.00     0.039 C 
BRANCH  28  29
HETATM   29  C19 UNL     1      53.193  34.389  29.344  1.00  0.00    -0.015 C 
HETATM   30  C20 UNL     1      53.031  33.976  27.893  1.00  0.00     0.010 C 
HETATM   31  C21 UNL     1      53.098  35.878  29.496  1.00  0.00     0.010 C 
ENDBRANCH  28  29
BRANCH  28  32
HETATM   32  C22 UNL     1      53.126  32.737  31.266  1.00  0.00     0.222 C 
BRANCH  32  33
HETATM   33  O2  UNL     1      53.401  33.577  32.405  1.00  0.00    -0.385 OA
ATOM     34  H2  UNL     1      54.239  33.276  32.735  1.00  0.00     0.210 HD
ENDBRANCH  32  33
BRANCH  32  35
HETATM   35  C23 UNL     1      54.465  32.238  30.986  1.00  0.00     0.288 C 
HETATM   36  O3  UNL     1      54.643  31.162  30.394  1.00  0.00    -0.262 OA
BRANCH  35  37
HETATM   37  O4  UNL     1      55.677  32.838  31.311  1.00  0.00    -0.320 OA
BRANCH  37  38
HETATM   38  C24 UNL     1      56.534  33.485  30.409  1.00  0.00     0.174 C 
HETATM   39  C25 UNL     1      56.537  34.978  30.752  1.00  0.00     0.034 C 
ENDBRANCH  37  38
ENDBRANCH  35  37
ENDBRANCH  32  35
ENDBRANCH  28  32
ENDBRANCH  21  28
TORSDOF 7
ENDMDL
MODEL 4
REMARK VINA RESULT: -6.508732625      2.301      5.157
REMARK  7 active torsions:
REMARK  status: ('A' for Active; 'I' for Inactive)
REMARK    1  A    between atoms: C17_21  and  C18_22 
REMARK    2  A    between atoms: C18_22  and  C19_23 
REMARK    3  A    between atoms: C18_22  and  C22_26 
REMARK    4  A    between atoms: C22_26  and  O2_27 
REMARK    5  A    between atoms: C22_26  and  C23_29 
REMARK    6  A    between atoms: C23_29  and  O4_31 
REMARK    7  A    between atoms: O4_31  and  C24_32 
ROOT
HETATM    1  C1  UNL     1      51.925  33.103  31.625  1.00  0.00     0.015 C 
HETATM    2  C2  UNL     1      51.003  32.787  30.728  1.00  0.00    -0.078 C 
HETATM    3  C3  UNL     1      50.277  33.927  30.031  1.00  0.00     0.044 C 
HETATM    4  C4  UNL     1      49.583  34.721  31.087  1.00  0.00     0.241 C 
HETATM    5  N1  UNL     1      48.834  35.823  30.503  1.00  0.00    -0.074 N 
ATOM      6  H11 UNL     1      49.378  36.686  30.515  1.00  0.00     0.277 HD
ATOM      7  H12 UNL     1      48.064  36.108  31.109  1.00  0.00     0.277 HD
HETATM    8  C5  UNL     1      48.364  35.517  29.163  1.00  0.00     0.232 C 
HETATM    9  C6  UNL     1      48.059  34.021  29.032  1.00  0.00     0.033 C 
HETATM   10  C7  UNL     1      49.399  33.318  29.002  1.00  0.00     0.002 C 
HETATM   11  C8  UNL     1      49.343  31.868  29.331  1.00  0.00    -0.001 C 
HETATM   12  C9  UNL     1      48.048  31.453  29.988  1.00  0.00     0.006 C 
HETATM   13  C10 UNL     1      48.130  29.920  29.892  1.00  0.00     0.006 C 
HETATM   14  C11 UNL     1      49.119  29.497  30.955  1.00  0.00     0.003 C 
HETATM   15  C12 UNL     1      49.422  28.006  30.850  1.00  0.00    -0.035 C 
HETATM   16  C13 UNL     1      48.106  27.425  30.338  1.00  0.00     0.016 C 
HETATM   17  C14 UNL     1      49.785  27.365  32.139  1.00  0.00     0.017 C 
HETATM   18  C15 UNL     1      50.856  26.306  32.009  1.00  0.00     0.079 C 
HETATM   19  C16 UNL     1      50.588  25.632  30.676  1.00  0.00     0.132 C 
HETATM   20  O1  UNL     1      50.200  24.503  30.800  1.00  0.00    -0.298 OA
HETATM   21  C17 UNL     1      50.828  26.421  29.436  1.00  0.00     0.067 C 
HETATM   22  C26 UNL     1      50.452  27.821  29.753  1.00  0.00     0.006 C 
HETATM   23  C27 UNL     1      51.715  28.605  30.079  1.00  0.00     0.007 C 
HETATM   24  C28 UNL     1      51.600  29.596  31.173  1.00  0.00     0.011 C 
HETATM   25  C29 UNL     1      50.284  30.395  31.156  1.00  0.00    -0.032 C 
HETATM   26  C30 UNL     1      50.164  30.963  32.569  1.00  0.00     0.016 C 
HETATM   27  C31 UNL     1      50.500  31.502  30.201  1.00  0.00     0.027 C 
ENDROOT
BRANCH  21  28
HETATM   28  C18 UNL     1      50.182  25.831  28.202  1.00  0.00     0.039 C 
BRANCH  28  29
HETATM   29  C19 UNL     1      51.189  24.960  27.498  1.00  0.00    -0.015 C 
HETATM   30  C20 UNL     1      52.642  25.288  27.786  1.00  0.00     0.010 C 
HETATM   31  C21 UNL     1      50.937  23.486  27.603  1.00  0.00     0.010 C 
ENDBRANCH  28  29
BRANCH  28  32
HETATM   32  C22 UNL     1      49.367  26.719  27.363  1.00  0.00     0.222 C 
BRANCH  32  33
HETATM   33  O2  UNL     1      48.230  25.922  26.973  1.00  0.00    -0.385 OA
ATOM     34  H2  UNL     1      48.598  25.184  26.502  1.00  0.00     0.210 HD
ENDBRANCH  32  33
BRANCH  32  35
HETATM   35  C23 UNL     1      49.805  27.196  26.059  1.00  0.00     0.288 C 
HETATM   36  O3  UNL     1      49.540  26.571  25.020  1.00  0.00    -0.262 OA
BRANCH  35  37
HETATM   37  O4  UNL     1      50.538  28.344  25.779  1.00  0.00    -0.320 OA
BRANCH  37  38
HETATM   38  C24 UNL     1      51.770  28.687  26.354  1.00  0.00     0.174 C 
HETATM   39  C25 UNL     1      51.666  30.126  26.869  1.00  0.00     0.034 C 
ENDBRANCH  37  38
ENDBRANCH  35  37
ENDBRANCH  32  35
ENDBRANCH  28  32
ENDBRANCH  21  28
TORSDOF 7
ENDMDL
MODEL 5
REMARK VINA RESULT: -6.360579390      2.183      4.666
REMARK  7 active torsions:
REMARK  status: ('A' for Active; 'I' for Inactive)
REMARK    1  A    between atoms: C17_21  and  C18_22 
REMARK    2  A    between atoms: C18_22  and  C19_23 
REMARK    3  A    between atoms: C18_22  and  C22_26 
REMARK    4  A    between atoms: C22_26  and  O2_27 
REMARK    5  A    between atoms: C22_26  and  C23_29 
REMARK    6  A    between atoms: C23_29  and  O4_31 
REMARK    7  A    between atoms: O4_31  and  C24_32 
ROOT
HETATM    1  C1  UNL     1      51.933  33.720  28.278  1.00  0.00     0.015 C 
HETATM    2  C2  UNL     1      50.819  33.177  28.746  1.00  0.00    -0.078 C 
HETATM    3  C3  UNL     1      49.543  34.000  28.660  1.00  0.00     0.044 C 
HETATM    4  C4  UNL     1      49.767  35.248  29.448  1.00  0.00     0.241 C 
HETATM    5  N1  UNL     1      48.579  36.087  29.444  1.00  0.00    -0.074 N 
ATOM      6  H11 UNL     1      48.631  36.796  28.712  1.00  0.00     0.277 HD
ATOM      7  H12 UNL     1      48.556  36.698  30.261  1.00  0.00     0.277 HD
HETATM    8  C5  UNL     1      47.358  35.308  29.335  1.00  0.00     0.232 C 
HETATM    9  C6  UNL     1      47.527  33.949  30.024  1.00  0.00     0.033 C 
HETATM   10  C7  UNL     1      48.435  33.132  29.130  1.00  0.00     0.002 C 
HETATM   11  C8  UNL     1      49.088  31.978  29.803  1.00  0.00    -0.001 C 
HETATM   12  C9  UNL     1      49.026  32.050  31.310  1.00  0.00     0.006 C 
HETATM   13  C10 UNL     1      49.443  30.623  31.706  1.00  0.00     0.006 C 
HETATM   14  C11 UNL     1      50.940  30.565  31.500  1.00  0.00     0.003 C 
HETATM   15  C12 UNL     1      51.459  29.143  31.694  1.00  0.00    -0.035 C 
HETATM   16  C13 UNL     1      50.512  28.576  32.750  1.00  0.00     0.016 C 
HETATM   17  C14 UNL     1      52.859  29.065  32.182  1.00  0.00     0.017 C 
HETATM   18  C15 UNL     1      53.645  27.921  31.584  1.00  0.00     0.079 C 
HETATM   19  C16 UNL     1      52.647  26.789  31.432  1.00  0.00     0.132 C 
HETATM   20  O1  UNL     1      52.866  25.878  32.182  1.00  0.00    -0.298 OA
HETATM   21  C17 UNL     1      51.570  26.942  30.416  1.00  0.00     0.067 C 
HETATM   22  C26 UNL     1      51.206  28.381  30.408  1.00  0.00     0.006 C 
HETATM   23  C27 UNL     1      51.917  29.059  29.246  1.00  0.00     0.007 C 
HETATM   24  C28 UNL     1      52.427  30.424  29.504  1.00  0.00     0.011 C 
HETATM   25  C29 UNL     1      51.467  31.304  30.325  1.00  0.00    -0.032 C 
HETATM   26  C30 UNL     1      52.349  32.426  30.871  1.00  0.00     0.016 C 
HETATM   27  C31 UNL     1      50.508  31.867  29.353  1.00  0.00     0.027 C 
ENDROOT
BRANCH  21  28
HETATM   28  C18 UNL     1      50.419  25.976  30.595  1.00  0.00     0.039 C 
BRANCH  28  29
HETATM   29  C19 UNL     1      50.635  24.795  29.685  1.00  0.00    -0.015 C 
HETATM   30  C20 UNL     1      51.538  25.051  28.494  1.00  0.00     0.010 C 
HETATM   31  C21 UNL     1      51.006  23.518  30.380  1.00  0.00     0.010 C 
ENDBRANCH  28  29
BRANCH  28  32
HETATM   32  C22 UNL     1      49.061  26.529  30.657  1.00  0.00     0.222 C 
BRANCH  32  33
HETATM   33  O2  UNL     1      48.378  25.731  31.646  1.00  0.00    -0.385 OA
ATOM     34  H2  UNL     1      48.794  25.954  32.470  1.00  0.00     0.210 HD
ENDBRANCH  32  33
BRANCH  32  35
HETATM   35  C23 UNL     1      48.116  26.432  29.553  1.00  0.00     0.288 C 
HETATM   36  O3  UNL     1      47.408  25.425  29.396  1.00  0.00    -0.262 OA
BRANCH  35  37
HETATM   37  O4  UNL     1      47.867  27.379  28.566  1.00  0.00    -0.320 OA
BRANCH  37  38
HETATM   38  C24 UNL     1      47.848  28.768  28.754  1.00  0.00     0.174 C 
HETATM   39  C25 UNL     1      46.622  29.112  29.605  1.00  0.00     0.034 C 
ENDBRANCH  37  38
ENDBRANCH  35  37
ENDBRANCH  32  35
ENDBRANCH  28  32
ENDBRANCH  21  28
TORSDOF 7
ENDMDL
