MODEL 1
REMARK VINA RESULT: -6.910055319      0.000      0.000
REMARK  15 active torsions:
REMARK  status: ('A' for Active; 'I' for Inactive)
REMARK    1  A    between atoms: C2_2  and  C3_3 
REMARK    2  A    between atoms: C3_3  and  N1_4 
REMARK    3  A    between atoms: C11_13  and  S1_14 
REMARK    4  A    between atoms: S1_14  and  C12_15 
REMARK    5  A    between atoms: C14_17  and  C15_18 
REMARK       I    between atoms: C15_18  and  N2_20 
REMARK    6  A    between atoms: N2_20  and  C17_22 
REMARK    7  A    between atoms: N3_25  and  C20_26 
REMARK    8  A    between atoms: C21_27  and  O3_28 
REMARK    9  A    between atoms: C21_27  and  N4_30 
REMARK   10  A    between atoms: C24_33  and  C25_34 
REMARK   11  A    between atoms: C25_34  and  C26_35 
REMARK   12  A    between atoms: C26_35  and  C27_36 
REMARK   13  A    between atoms: C27_36  and  C28_37 
REMARK   14  A    between atoms: C28_37  and  C29_38 
REMARK   15  A    between atoms: C29_38  and  C30_39 
ROOT
HETATM    1  C12 UNL     1      37.950  14.588  69.770  1.00  0.00     0.071 C 
HETATM    2  C13 UNL     1      38.688  14.793  71.052  1.00  0.00     0.080 C 
HETATM    3  C14 UNL     1      39.401  16.101  70.801  1.00  0.00     0.081 C 
HETATM    4  N3  UNL     1      38.532  16.874  70.069  1.00  0.00    -0.350 N 
HETATM    5  C36 UNL     1      37.838  16.010  69.181  1.00  0.00     0.144 C 
ENDROOT
BRANCH   4   6
HETATM    6  C20 UNL     1      38.281  18.198  70.052  1.00  0.00     0.146 C 
HETATM    7  C21 UNL     1      37.995  19.131  69.021  1.00  0.00     0.153 C 
BRANCH   7   8
HETATM    8  O3  UNL     1      37.706  20.334  69.496  1.00  0.00    -0.345 OA
ATOM      9  H3  UNL     1      36.929  20.329  70.042  1.00  0.00     0.219 HD
ENDBRANCH   7   8
BRANCH   7  10
HETATM   10  N4  UNL     1      37.945  19.113  67.628  1.00  0.00    -0.361 N 
HETATM   11  C22 UNL     1      37.308  18.141  66.768  1.00  0.00     0.125 C 
HETATM   12  C23 UNL     1      38.409  17.353  66.054  1.00  0.00     0.024 C 
HETATM   13  C24 UNL     1      39.593  18.202  65.751  1.00  0.00    -0.012 C 
HETATM   14  C34 UNL     1      39.084  19.609  65.508  1.00  0.00     0.024 C 
HETATM   15  C35 UNL     1      38.587  20.206  66.830  1.00  0.00     0.125 C 
BRANCH  13  16
HETATM   16  C25 UNL     1      40.318  17.712  64.551  1.00  0.00     0.005 C 
BRANCH  16  17
HETATM   17  C26 UNL     1      41.167  16.478  64.798  1.00  0.00     0.000 C 
BRANCH  17  18
HETATM   18  C27 UNL     1      42.601  16.857  65.090  1.00  0.00     0.000 C 
BRANCH  18  19
HETATM   19  C28 UNL     1      42.755  18.339  65.329  1.00  0.00     0.001 C 
BRANCH  19  20
HETATM   20  C29 UNL     1      43.137  18.647  66.754  1.00  0.00     0.015 C 
BRANCH  20  21
HETATM   21  C30 UNL     1      42.906  17.532  67.718  1.00  0.00     0.087 C 
HETATM   22  C31 UNL     1      41.656  17.768  68.531  1.00  0.00     0.041 C 
HETATM   23  C32 UNL     1      42.123  18.872  69.461  1.00  0.00     0.179 C 
HETATM   24  O4  UNL     1      43.526  18.653  69.605  1.00  0.00    -0.321 OA
HETATM   25  C33 UNL     1      43.957  17.634  68.780  1.00  0.00     0.263 C 
HETATM   26  O5  UNL     1      44.982  16.915  68.842  1.00  0.00    -0.265 OA
ENDBRANCH  20  21
ENDBRANCH  19  20
ENDBRANCH  18  19
ENDBRANCH  17  18
ENDBRANCH  16  17
ENDBRANCH  13  16
ENDBRANCH   7  10
ENDBRANCH   4   6
BRANCH   3  27
HETATM   27  C15 UNL     1      40.181  16.644  71.878  1.00  0.00     0.266 C 
HETATM   28  O2  UNL     1      39.669  17.457  72.680  1.00  0.00    -0.266 OA
HETATM   29  N2  UNL     1      41.527  16.315  72.100  1.00  0.00    -0.347 N 
HETATM   30  C16 UNL     1      42.317  15.424  71.278  1.00  0.00     0.153 C 
BRANCH  29  31
HETATM   31  C17 UNL     1      42.213  16.907  73.255  1.00  0.00     0.087 A 
HETATM   32  C18 UNL     1      43.010  18.157  73.091  1.00  0.00     0.027 A 
HETATM   33  C19 UNL     1      43.657  16.815  73.442  1.00  0.00     0.027 A 
ENDBRANCH  29  31
ENDBRANCH   3  27
BRANCH   1  34
HETATM   34  S1  UNL     1      38.778  13.594  68.608  1.00  0.00    -0.157 SA
BRANCH  34  35
HETATM   35  C11 UNL     1      40.508  13.335  68.623  1.00  0.00     0.061 C 
HETATM   36  C5  UNL     1      40.855  11.892  68.822  1.00  0.00     0.093 C 
HETATM   37  C4  UNL     1      41.545  11.811  70.178  1.00  0.00     0.225 C 
HETATM   38  C6  UNL     1      41.889  11.352  67.898  1.00  0.00     0.040 C 
HETATM   39  N1  UNL     1      42.883  11.428  69.936  1.00  0.00    -0.344 N 
HETATM   40  O1  UNL     1      40.979  12.050  71.266  1.00  0.00    -0.273 OA
HETATM   41  C7  UNL     1      43.192  11.790  68.537  1.00  0.00     0.088 C 
HETATM   42  C8  UNL     1      43.355  13.292  68.517  1.00  0.00     0.025 C 
HETATM   43  C9  UNL     1      42.642  13.947  67.390  1.00  0.00     0.003 C 
HETATM   44  C10 UNL     1      41.181  13.862  67.356  1.00  0.00     0.016 C 
BRANCH  39  45
HETATM   45  C3  UNL     1      43.784  10.808  70.857  1.00  0.00     0.152 C 
BRANCH  45  46
HETATM   46  C2  UNL     1      44.548  11.877  71.574  1.00  0.00    -0.017 C 
HETATM   47  C1  UNL     1      44.134  12.292  72.767  1.00  0.00     0.008 C 
ENDBRANCH  45  46
ENDBRANCH  39  45
ENDBRANCH  34  35
ENDBRANCH   1  34
TORSDOF 15
ENDMDL
MODEL 2
REMARK VINA RESULT: -6.752288725      2.588      5.005
REMARK  15 active torsions:
REMARK  status: ('A' for Active; 'I' for Inactive)
REMARK    1  A    between atoms: C2_2  and  C3_3 
REMARK    2  A    between atoms: C3_3  and  N1_4 
REMARK    3  A    between atoms: C11_13  and  S1_14 
REMARK    4  A    between atoms: S1_14  and  C12_15 
REMARK    5  A    between atoms: C14_17  and  C15_18 
REMARK       I    between atoms: C15_18  and  N2_20 
REMARK    6  A    between atoms: N2_20  and  C17_22 
REMARK    7  A    between atoms: N3_25  and  C20_26 
REMARK    8  A    between atoms: C21_27  and  O3_28 
REMARK    9  A    between atoms: C21_27  and  N4_30 
REMARK   10  A    between atoms: C24_33  and  C25_34 
REMARK   11  A    between atoms: C25_34  and  C26_35 
REMARK   12  A    between atoms: C26_35  and  C27_36 
REMARK   13  A    between atoms: C27_36  and  C28_37 
REMARK   14  A    between atoms: C28_37  and  C29_38 
REMARK   15  A    between atoms: C29_38  and  C30_39 
ROOT
HETATM    1  C12 UNL     1      36.886  18.129  68.998  1.00  0.00     0.071 C 
HETATM    2  C13 UNL     1      37.884  19.231  69.140  1.00  0.00     0.080 C 
HETATM    3  C14 UNL     1      39.033  18.728  68.298  1.00  0.00     0.081 C 
HETATM    4  N3  UNL     1      38.465  18.091  67.221  1.00  0.00    -0.350 N 
HETATM    5  C36 UNL     1      37.295  17.431  67.683  1.00  0.00     0.144 C 
ENDROOT
BRANCH   4   6
HETATM    6  C20 UNL     1      38.827  17.987  65.927  1.00  0.00     0.146 C 
HETATM    7  C21 UNL     1      39.876  17.311  65.250  1.00  0.00     0.153 C 
BRANCH   7   8
HETATM    8  O3  UNL     1      39.771  17.410  63.932  1.00  0.00    -0.345 OA
ATOM      9  H3  UNL     1      40.599  17.627  63.520  1.00  0.00     0.219 HD
ENDBRANCH   7   8
BRANCH   7  10
HETATM   10  N4  UNL     1      40.998  16.568  65.613  1.00  0.00    -0.361 N 
HETATM   11  C22 UNL     1      41.925  15.867  64.753  1.00  0.00     0.125 C 
HETATM   12  C23 UNL     1      41.713  14.365  64.963  1.00  0.00     0.024 C 
HETATM   13  C24 UNL     1      41.355  14.046  66.371  1.00  0.00    -0.012 C 
HETATM   14  C34 UNL     1      42.046  15.068  67.252  1.00  0.00     0.024 C 
HETATM   15  C35 UNL     1      41.389  16.439  67.053  1.00  0.00     0.125 C 
BRANCH  13  16
HETATM   16  C25 UNL     1      41.794  12.677  66.744  1.00  0.00     0.005 C 
BRANCH  16  17
HETATM   17  C26 UNL     1      43.024  12.637  67.632  1.00  0.00     0.000 C 
BRANCH  17  18
HETATM   18  C27 UNL     1      42.797  11.750  68.835  1.00  0.00     0.000 C 
BRANCH  18  19
HETATM   19  C28 UNL     1      43.717  12.103  69.978  1.00  0.00     0.001 C 
BRANCH  19  20
HETATM   20  C29 UNL     1      43.795  13.592  70.203  1.00  0.00     0.015 C 
BRANCH  20  21
HETATM   21  C30 UNL     1      44.494  13.997  71.457  1.00  0.00     0.087 C 
HETATM   22  C31 UNL     1      43.504  14.295  72.558  1.00  0.00     0.041 C 
HETATM   23  C32 UNL     1      42.942  15.623  72.088  1.00  0.00     0.179 C 
HETATM   24  O4  UNL     1      44.006  16.223  71.348  1.00  0.00    -0.321 OA
HETATM   25  C33 UNL     1      45.074  15.359  71.224  1.00  0.00     0.263 C 
HETATM   26  O5  UNL     1      46.282  15.587  70.975  1.00  0.00    -0.265 OA
ENDBRANCH  20  21
ENDBRANCH  19  20
ENDBRANCH  18  19
ENDBRANCH  17  18
ENDBRANCH  16  17
ENDBRANCH  13  16
ENDBRANCH   7  10
ENDBRANCH   4   6
BRANCH   3  27
HETATM   27  C15 UNL     1      40.174  19.588  68.158  1.00  0.00     0.266 C 
HETATM   28  O2  UNL     1      40.169  20.511  67.312  1.00  0.00    -0.266 OA
HETATM   29  N2  UNL     1      41.338  19.460  68.932  1.00  0.00    -0.347 N 
HETATM   30  C16 UNL     1      41.565  18.448  69.941  1.00  0.00     0.153 C 
BRANCH  29  31
HETATM   31  C17 UNL     1      42.428  20.421  68.724  1.00  0.00     0.087 A 
HETATM   32  C18 UNL     1      43.800  19.934  68.395  1.00  0.00     0.027 A 
HETATM   33  C19 UNL     1      43.478  20.643  69.713  1.00  0.00     0.027 A 
ENDBRANCH  29  31
ENDBRANCH   3  27
BRANCH   1  34
HETATM   34  S1  UNL     1      36.933  16.941  70.268  1.00  0.00    -0.157 SA
BRANCH  34  35
HETATM   35  C11 UNL     1      37.810  15.433  70.142  1.00  0.00     0.061 C 
HETATM   36  C5  UNL     1      37.307  14.587  69.014  1.00  0.00     0.093 C 
HETATM   37  C4  UNL     1      36.687  13.354  69.658  1.00  0.00     0.225 C 
HETATM   38  C6  UNL     1      38.360  14.003  68.139  1.00  0.00     0.040 C 
HETATM   39  N1  UNL     1      37.480  12.248  69.277  1.00  0.00    -0.344 N 
HETATM   40  O1  UNL     1      35.667  13.381  70.380  1.00  0.00    -0.273 OA
HETATM   41  C7  UNL     1      38.809  12.774  68.906  1.00  0.00     0.088 C 
HETATM   42  C8  UNL     1      39.495  13.136  70.203  1.00  0.00     0.025 C 
HETATM   43  C9  UNL     1      40.157  14.466  70.167  1.00  0.00     0.003 C 
HETATM   44  C10 UNL     1      39.315  15.652  70.000  1.00  0.00     0.016 C 
BRANCH  39  45
HETATM   45  C3  UNL     1      37.087  10.874  69.249  1.00  0.00     0.152 C 
BRANCH  45  46
HETATM   46  C2  UNL     1      37.271  10.295  70.618  1.00  0.00    -0.017 C 
HETATM   47  C1  UNL     1      38.384   9.625  70.903  1.00  0.00     0.008 C 
ENDBRANCH  45  46
ENDBRANCH  39  45
ENDBRANCH  34  35
ENDBRANCH   1  34
TORSDOF 15
ENDMDL
MODEL 3
REMARK VINA RESULT: -6.645906531      2.331      4.079
REMARK  15 active torsions:
REMARK  status: ('A' for Active; 'I' for Inactive)
REMARK    1  A    between atoms: C2_2  and  C3_3 
REMARK    2  A    between atoms: C3_3  and  N1_4 
REMARK    3  A    between atoms: C11_13  and  S1_14 
REMARK    4  A    between atoms: S1_14  and  C12_15 
REMARK    5  A    between atoms: C14_17  and  C15_18 
REMARK       I    between atoms: C15_18  and  N2_20 
REMARK    6  A    between atoms: N2_20  and  C17_22 
REMARK    7  A    between atoms: N3_25  and  C20_26 
REMARK    8  A    between atoms: C21_27  and  O3_28 
REMARK    9  A    between atoms: C21_27  and  N4_30 
REMARK   10  A    between atoms: C24_33  and  C25_34 
REMARK   11  A    between atoms: C25_34  and  C26_35 
REMARK   12  A    between atoms: C26_35  and  C27_36 
REMARK   13  A    between atoms: C27_36  and  C28_37 
REMARK   14  A    between atoms: C28_37  and  C29_38 
REMARK   15  A    between atoms: C29_38  and  C30_39 
ROOT
HETATM    1  C12 UNL     1      38.830  16.252  70.584  1.00  0.00     0.071 C 
HETATM    2  C13 UNL     1      37.373  16.480  70.818  1.00  0.00     0.080 C 
HETATM    3  C14 UNL     1      37.308  17.983  70.962  1.00  0.00     0.081 C 
HETATM    4  N3  UNL     1      38.220  18.491  70.069  1.00  0.00    -0.350 N 
HETATM    5  C36 UNL     1      39.333  17.608  70.047  1.00  0.00     0.144 C 
ENDROOT
BRANCH   4   6
HETATM    6  C20 UNL     1      38.228  19.601  69.305  1.00  0.00     0.146 C 
HETATM    7  C21 UNL     1      38.226  19.831  67.903  1.00  0.00     0.153 C 
BRANCH   7   8
HETATM    8  O3  UNL     1      38.126  21.117  67.604  1.00  0.00    -0.345 OA
ATOM      9  H3  UNL     1      38.951  21.483  67.305  1.00  0.00     0.219 HD
ENDBRANCH   7   8
BRANCH   7  10
HETATM   10  N4  UNL     1      38.308  19.049  66.752  1.00  0.00    -0.361 N 
HETATM   11  C22 UNL     1      37.562  17.854  66.426  1.00  0.00     0.125 C 
HETATM   12  C23 UNL     1      38.531  16.669  66.471  1.00  0.00     0.024 C 
HETATM   13  C24 UNL     1      39.894  17.048  66.010  1.00  0.00    -0.012 C 
HETATM   14  C34 UNL     1      39.728  18.135  64.967  1.00  0.00     0.024 C 
HETATM   15  C35 UNL     1      39.246  19.423  65.645  1.00  0.00     0.125 C 
BRANCH  13  16
HETATM   16  C25 UNL     1      40.609  15.887  65.422  1.00  0.00     0.005 C 
BRANCH  16  17
HETATM   17  C26 UNL     1      42.081  15.812  65.785  1.00  0.00     0.000 C 
BRANCH  17  18
HETATM   18  C27 UNL     1      42.261  15.504  67.255  1.00  0.00     0.000 C 
BRANCH  18  19
HETATM   19  C28 UNL     1      43.460  16.213  67.836  1.00  0.00     0.001 C 
BRANCH  19  20
HETATM   20  C29 UNL     1      43.063  17.402  68.674  1.00  0.00     0.015 C 
BRANCH  20  21
HETATM   21  C30 UNL     1      43.699  18.690  68.270  1.00  0.00     0.087 C 
HETATM   22  C31 UNL     1      43.392  19.782  69.267  1.00  0.00     0.041 C 
HETATM   23  C32 UNL     1      41.934  20.058  68.951  1.00  0.00     0.179 C 
HETATM   24  O4  UNL     1      41.798  19.737  67.566  1.00  0.00    -0.321 OA
HETATM   25  C33 UNL     1      42.963  19.193  67.066  1.00  0.00     0.263 C 
HETATM   26  O5  UNL     1      43.379  19.103  65.887  1.00  0.00    -0.265 OA
ENDBRANCH  20  21
ENDBRANCH  19  20
ENDBRANCH  18  19
ENDBRANCH  17  18
ENDBRANCH  16  17
ENDBRANCH  13  16
ENDBRANCH   7  10
ENDBRANCH   4   6
BRANCH   3  27
HETATM   27  C15 UNL     1      36.011  18.572  71.143  1.00  0.00     0.266 C 
HETATM   28  O2  UNL     1      35.238  18.709  70.168  1.00  0.00    -0.266 OA
HETATM   29  N2  UNL     1      35.532  19.023  72.384  1.00  0.00    -0.347 N 
HETATM   30  C16 UNL     1      36.271  18.987  73.628  1.00  0.00     0.153 C 
BRANCH  29  31
HETATM   31  C17 UNL     1      34.175  19.576  72.454  1.00  0.00     0.087 A 
HETATM   32  C18 UNL     1      33.970  21.054  72.448  1.00  0.00     0.027 A 
HETATM   33  C19 UNL     1      33.638  20.187  73.665  1.00  0.00     0.027 A 
ENDBRANCH  29  31
ENDBRANCH   3  27
BRANCH   1  34
HETATM   34  S1  UNL     1      39.743  15.876  72.017  1.00  0.00    -0.157 SA
BRANCH  34  35
HETATM   35  C11 UNL     1      40.957  14.617  72.081  1.00  0.00     0.061 C 
HETATM   36  C5  UNL     1      41.784  14.575  70.834  1.00  0.00     0.093 C 
HETATM   37  C4  UNL     1      41.461  13.247  70.162  1.00  0.00     0.225 C 
HETATM   38  C6  UNL     1      43.254  14.482  71.048  1.00  0.00     0.040 C 
HETATM   39  N1  UNL     1      42.641  12.471  70.195  1.00  0.00    -0.344 N 
HETATM   40  O1  UNL     1      40.341  12.957  69.689  1.00  0.00    -0.273 OA
HETATM   41  C7  UNL     1      43.479  13.002  71.290  1.00  0.00     0.088 C 
HETATM   42  C8  UNL     1      42.837  12.535  72.576  1.00  0.00     0.025 C 
HETATM   43  C9  UNL     1      42.722  13.606  73.599  1.00  0.00     0.003 C 
HETATM   44  C10 UNL     1      41.863  14.753  73.303  1.00  0.00     0.016 C 
BRANCH  39  45
HETATM   45  C3  UNL     1      42.978  11.376  69.340  1.00  0.00     0.152 C 
BRANCH  45  46
HETATM   46  C2  UNL     1      43.227  11.903  67.961  1.00  0.00    -0.017 C 
HETATM   47  C1  UNL     1      42.339  11.670  67.000  1.00  0.00     0.008 C 
ENDBRANCH  45  46
ENDBRANCH  39  45
ENDBRANCH  34  35
ENDBRANCH   1  34
TORSDOF 15
ENDMDL
MODEL 4
REMARK VINA RESULT: -6.563790717      1.973      4.371
REMARK  15 active torsions:
REMARK  status: ('A' for Active; 'I' for Inactive)
REMARK    1  A    between atoms: C2_2  and  C3_3 
REMARK    2  A    between atoms: C3_3  and  N1_4 
REMARK    3  A    between atoms: C11_13  and  S1_14 
REMARK    4  A    between atoms: S1_14  and  C12_15 
REMARK    5  A    between atoms: C14_17  and  C15_18 
REMARK       I    between atoms: C15_18  and  N2_20 
REMARK    6  A    between atoms: N2_20  and  C17_22 
REMARK    7  A    between atoms: N3_25  and  C20_26 
REMARK    8  A    between atoms: C21_27  and  O3_28 
REMARK    9  A    between atoms: C21_27  and  N4_30 
REMARK   10  A    between atoms: C24_33  and  C25_34 
REMARK   11  A    between atoms: C25_34  and  C26_35 
REMARK   12  A    between atoms: C26_35  and  C27_36 
REMARK   13  A    between atoms: C27_36  and  C28_37 
REMARK   14  A    between atoms: C28_37  and  C29_38 
REMARK   15  A    between atoms: C29_38  and  C30_39 
ROOT
HETATM    1  C12 UNL     1      40.129  15.262  66.654  1.00  0.00     0.071 C 
HETATM    2  C13 UNL     1      40.311  16.064  67.900  1.00  0.00     0.080 C 
HETATM    3  C14 UNL     1      40.877  17.358  67.364  1.00  0.00     0.081 C 
HETATM    4  N3  UNL     1      40.238  17.587  66.170  1.00  0.00    -0.350 N 
HETATM    5  C36 UNL     1      40.044  16.328  65.541  1.00  0.00     0.144 C 
ENDROOT
BRANCH   4   6
HETATM    6  C20 UNL     1      39.829  18.715  65.555  1.00  0.00     0.146 C 
HETATM    7  C21 UNL     1      38.782  19.643  65.796  1.00  0.00     0.153 C 
BRANCH   7   8
HETATM    8  O3  UNL     1      38.830  20.681  64.975  1.00  0.00    -0.345 OA
ATOM      9  H3  UNL     1      38.642  21.500  65.418  1.00  0.00     0.219 HD
ENDBRANCH   7   8
BRANCH   7  10
HETATM   10  N4  UNL     1      37.704  19.743  66.676  1.00  0.00    -0.361 N 
HETATM   11  C22 UNL     1      37.676  20.339  67.992  1.00  0.00     0.125 C 
HETATM   12  C23 UNL     1      37.521  19.211  69.015  1.00  0.00     0.024 C 
HETATM   13  C24 UNL     1      36.673  18.104  68.497  1.00  0.00    -0.012 C 
HETATM   14  C34 UNL     1      35.653  18.722  67.561  1.00  0.00     0.024 C 
HETATM   15  C35 UNL     1      36.358  19.212  66.291  1.00  0.00     0.125 C 
BRANCH  13  16
HETATM   16  C25 UNL     1      35.981  17.390  69.600  1.00  0.00     0.005 C 
BRANCH  16  17
HETATM   17  C26 UNL     1      36.912  16.828  70.659  1.00  0.00     0.000 C 
BRANCH  17  18
HETATM   18  C27 UNL     1      37.154  15.352  70.440  1.00  0.00     0.000 C 
BRANCH  18  19
HETATM   19  C28 UNL     1      38.523  14.929  70.911  1.00  0.00     0.001 C 
BRANCH  19  20
HETATM   20  C29 UNL     1      39.350  16.101  71.376  1.00  0.00     0.015 C 
BRANCH  20  21
HETATM   21  C30 UNL     1      40.617  15.734  72.073  1.00  0.00     0.087 C 
HETATM   22  C31 UNL     1      40.396  15.594  73.560  1.00  0.00     0.041 C 
HETATM   23  C32 UNL     1      40.243  17.048  73.966  1.00  0.00     0.179 C 
HETATM   24  O4  UNL     1      41.023  17.772  73.015  1.00  0.00    -0.321 OA
HETATM   25  C33 UNL     1      41.512  16.935  72.033  1.00  0.00     0.263 C 
HETATM   26  O5  UNL     1      42.479  17.078  71.248  1.00  0.00    -0.265 OA
ENDBRANCH  20  21
ENDBRANCH  19  20
ENDBRANCH  18  19
ENDBRANCH  17  18
ENDBRANCH  16  17
ENDBRANCH  13  16
ENDBRANCH   7  10
ENDBRANCH   4   6
BRANCH   3  27
HETATM   27  C15 UNL     1      41.124  18.411  68.309  1.00  0.00     0.266 C 
HETATM   28  O2  UNL     1      40.323  18.617  69.248  1.00  0.00    -0.266 OA
HETATM   29  N2  UNL     1      42.243  19.257  68.249  1.00  0.00    -0.347 N 
HETATM   30  C16 UNL     1      43.272  19.211  67.233  1.00  0.00     0.153 C 
BRANCH  29  31
HETATM   31  C17 UNL     1      42.409  20.276  69.291  1.00  0.00     0.087 A 
HETATM   32  C18 UNL     1      42.660  21.697  68.913  1.00  0.00     0.027 A 
HETATM   33  C19 UNL     1      43.708  20.845  69.633  1.00  0.00     0.027 A 
ENDBRANCH  29  31
ENDBRANCH   3  27
BRANCH   1  34
HETATM   34  S1  UNL     1      41.455  14.202  66.274  1.00  0.00    -0.157 SA
BRANCH  34  35
HETATM   35  C11 UNL     1      42.284  13.231  67.471  1.00  0.00     0.061 C 
HETATM   36  C5  UNL     1      42.033  13.726  68.862  1.00  0.00     0.093 C 
HETATM   37  C4  UNL     1      43.375  14.231  69.375  1.00  0.00     0.225 C 
HETATM   38  C6  UNL     1      41.679  12.677  69.856  1.00  0.00     0.040 C 
HETATM   39  N1  UNL     1      43.754  13.384  70.440  1.00  0.00    -0.344 N 
HETATM   40  O1  UNL     1      43.979  15.217  68.900  1.00  0.00    -0.273 OA
HETATM   41  C7  UNL     1      43.026  12.111  70.263  1.00  0.00     0.088 C 
HETATM   42  C8  UNL     1      43.706  11.393  69.120  1.00  0.00     0.025 C 
HETATM   43  C9  UNL     1      42.753  10.825  68.131  1.00  0.00     0.003 C 
HETATM   44  C10 UNL     1      41.915  11.752  67.370  1.00  0.00     0.016 C 
BRANCH  39  45
HETATM   45  C3  UNL     1      44.667  13.684  71.499  1.00  0.00     0.152 C 
BRANCH  45  46
HETATM   46  C2  UNL     1      43.883  14.003  72.733  1.00  0.00    -0.017 C 
HETATM   47  C1  UNL     1      44.290  14.982  73.535  1.00  0.00     0.008 C 
ENDBRANCH  45  46
ENDBRANCH  39  45
ENDBRANCH  34  35
ENDBRANCH   1  34
TORSDOF 15
ENDMDL
MODEL 5
REMARK VINA RESULT: -6.523519597      2.479      5.052
REMARK  15 active torsions:
REMARK  status: ('A' for Active; 'I' for Inactive)
REMARK    1  A    between atoms: C2_2  and  C3_3 
REMARK    2  A    between atoms: C3_3  and  N1_4 
REMARK    3  A    between atoms: C11_13  and  S1_14 
REMARK    4  A    between atoms: S1_14  and  C12_15 
REMARK    5  A    between atoms: C14_17  and  C15_18 
REMARK       I    between atoms: C15_18  and  N2_20 
REMARK    6  A    between atoms: N2_20  and  C17_22 
REMARK    7  A    between atoms: N3_25  and  C20_26 
REMARK    8  A    between atoms: C21_27  and  O3_28 
REMARK    9  A    between atoms: C21_27  and  N4_30 
REMARK   10  A    between atoms: C24_33  and  C25_34 
REMARK   11  A    between atoms: C25_34  and  C26_35 
REMARK   12  A    between atoms: C26_35  and  C27_36 
REMARK   13  A    between atoms: C27_36  and  C28_37 
REMARK   14  A    between atoms: C28_37  and  C29_38 
REMARK   15  A    between atoms: C29_38  and  C30_39 
ROOT
HETATM    1  C12 UNL     1      38.433  16.352  69.859  1.00  0.00     0.071 C 
HETATM    2  C13 UNL     1      37.007  16.523  69.451  1.00  0.00     0.080 C 
HETATM    3  C14 UNL     1      36.976  17.965  69.002  1.00  0.00     0.081 C 
HETATM    4  N3  UNL     1      38.178  18.196  68.379  1.00  0.00    -0.350 N 
HETATM    5  C36 UNL     1      39.172  17.464  69.083  1.00  0.00     0.144 C 
ENDROOT
BRANCH   4   6
HETATM    6  C20 UNL     1      38.527  18.954  67.321  1.00  0.00     0.146 C 
HETATM    7  C21 UNL     1      39.119  18.672  66.061  1.00  0.00     0.153 C 
BRANCH   7   8
HETATM    8  O3  UNL     1      39.177  19.742  65.281  1.00  0.00    -0.345 OA
ATOM      9  H3  UNL     1      40.070  20.032  65.134  1.00  0.00     0.219 HD
ENDBRANCH   7   8
BRANCH   7  10
HETATM   10  N4  UNL     1      39.663  17.556  65.428  1.00  0.00    -0.361 N 
HETATM   11  C22 UNL     1      39.190  16.190  65.459  1.00  0.00     0.125 C 
HETATM   12  C23 UNL     1      40.193  15.365  66.271  1.00  0.00     0.024 C 
HETATM   13  C24 UNL     1      41.589  15.844  66.080  1.00  0.00    -0.012 C 
HETATM   14  C34 UNL     1      41.686  16.388  64.668  1.00  0.00     0.024 C 
HETATM   15  C35 UNL     1      40.882  17.689  64.568  1.00  0.00     0.125 C 
BRANCH  13  16
HETATM   16  C25 UNL     1      42.568  14.743  66.266  1.00  0.00     0.005 C 
BRANCH  16  17
HETATM   17  C26 UNL     1      43.771  15.116  67.115  1.00  0.00     0.000 C 
BRANCH  17  18
HETATM   18  C27 UNL     1      43.350  15.476  68.522  1.00  0.00     0.000 C 
BRANCH  18  19
HETATM   19  C28 UNL     1      44.107  16.671  69.047  1.00  0.00     0.001 C 
BRANCH  19  20
HETATM   20  C29 UNL     1      43.225  17.887  69.181  1.00  0.00     0.015 C 
BRANCH  20  21
HETATM   21  C30 UNL     1      43.767  19.124  68.545  1.00  0.00     0.087 C 
HETATM   22  C31 UNL     1      43.334  20.356  69.303  1.00  0.00     0.041 C 
HETATM   23  C32 UNL     1      41.871  20.436  68.910  1.00  0.00     0.179 C 
HETATM   24  O4  UNL     1      41.813  19.843  67.613  1.00  0.00    -0.321 OA
HETATM   25  C33 UNL     1      43.036  19.317  67.251  1.00  0.00     0.263 C 
HETATM   26  O5  UNL     1      43.501  19.038  66.121  1.00  0.00    -0.265 OA
ENDBRANCH  20  21
ENDBRANCH  19  20
ENDBRANCH  18  19
ENDBRANCH  17  18
ENDBRANCH  16  17
ENDBRANCH  13  16
ENDBRANCH   7  10
ENDBRANCH   4   6
BRANCH   3  27
HETATM   27  C15 UNL     1      35.737  18.465  68.475  1.00  0.00     0.266 C 
HETATM   28  O2  UNL     1      35.692  18.953  67.323  1.00  0.00    -0.266 OA
HETATM   29  N2  UNL     1      34.529  18.445  69.190  1.00  0.00    -0.347 N 
HETATM   30  C16 UNL     1      34.364  17.955  70.541  1.00  0.00     0.153 C 
BRANCH  29  31
HETATM   31  C17 UNL     1      33.318  18.952  68.535  1.00  0.00     0.087 A 
HETATM   32  C18 UNL     1      32.371  19.826  69.288  1.00  0.00     0.027 A 
HETATM   33  C19 UNL     1      31.990  18.419  68.820  1.00  0.00     0.027 A 
ENDBRANCH  29  31
ENDBRANCH   3  27
BRANCH   1  34
HETATM   34  S1  UNL     1      38.736  16.596  71.554  1.00  0.00    -0.157 SA
BRANCH  34  35
HETATM   35  C11 UNL     1      39.955  15.718  72.450  1.00  0.00     0.061 C 
HETATM   36  C5  UNL     1      41.197  15.504  71.641  1.00  0.00     0.093 C 
HETATM   37  C4  UNL     1      41.295  14.001  71.413  1.00  0.00     0.225 C 
HETATM   38  C6  UNL     1      42.473  15.811  72.342  1.00  0.00     0.040 C 
HETATM   39  N1  UNL     1      42.446  13.555  72.101  1.00  0.00    -0.344 N 
HETATM   40  O1  UNL     1      40.478  13.343  70.734  1.00  0.00    -0.273 OA
HETATM   41  C7  UNL     1      42.741  14.555  73.148  1.00  0.00     0.088 C 
HETATM   42  C8  UNL     1      41.707  14.347  74.231  1.00  0.00     0.025 C 
HETATM   43  C9  UNL     1      41.099  15.614  74.714  1.00  0.00     0.003 C 
HETATM   44  C10 UNL     1      40.305  16.402  73.771  1.00  0.00     0.016 C 
BRANCH  39  45
HETATM   45  C3  UNL     1      43.196  12.365  71.846  1.00  0.00     0.152 C 
BRANCH  45  46
HETATM   46  C2  UNL     1      43.957  12.542  70.569  1.00  0.00    -0.017 C 
HETATM   47  C1  UNL     1      43.592  11.858  69.489  1.00  0.00     0.008 C 
ENDBRANCH  45  46
ENDBRANCH  39  45
ENDBRANCH  34  35
ENDBRANCH   1  34
TORSDOF 15
ENDMDL
