MODEL 1
REMARK VINA RESULT: -6.239868170      0.000      0.000
REMARK  16 active torsions:
REMARK  status: ('A' for Active; 'I' for Inactive)
REMARK    1  A    between atoms: C2_2  and  C3_3 
REMARK    2  A    between atoms: C3_3  and  C4_4 
REMARK    3  A    between atoms: C3_3  and  C32_43 
REMARK    4  A    between atoms: C4_4  and  C5_5 
REMARK    5  A    between atoms: C5_5  and  N1_6 
REMARK       I    between atoms: N1_6  and  C7_8 
REMARK    6  A    between atoms: C7_8  and  C8_10 
REMARK    7  A    between atoms: C8_10  and  C9_11 
REMARK    8  A    between atoms: C8_10  and  N4_22 
REMARK    9  A    between atoms: C9_11  and  C10_12 
REMARK   10  A    between atoms: C10_12  and  C11_13 
REMARK   11  A    between atoms: C11_13  and  C12_14 
REMARK   12  A    between atoms: C12_14  and  C13_15 
REMARK   13  A    between atoms: C13_15  and  N2_16 
REMARK   14  A    between atoms: N4_22  and  C16_23 
REMARK   15  A    between atoms: N4_22  and  S2_39 
REMARK   16  A    between atoms: C32_43  and  O6_45 
ROOT
HETATM    1  C8  UNL     1      41.060  18.699  66.999  1.00  0.00     0.194 C 
ENDROOT
BRANCH   1   2
HETATM    2  C7  UNL     1      39.917  19.272  67.736  1.00  0.00     0.243 C 
HETATM    3  N1  UNL     1      38.747  19.817  67.191  1.00  0.00    -0.355 N 
HETATM    4  C6  UNL     1      38.514  19.923  65.776  1.00  0.00     0.152 C 
HETATM    5  O1  UNL     1      40.037  19.255  69.012  1.00  0.00    -0.271 OA
BRANCH   3   6
HETATM    6  C5  UNL     1      37.700  20.325  68.077  1.00  0.00     0.126 C 
BRANCH   6   7
HETATM    7  C4  UNL     1      36.485  19.434  68.021  1.00  0.00     0.034 C 
BRANCH   7   8
HETATM    8  C3  UNL     1      36.194  18.709  69.293  1.00  0.00     0.086 C 
BRANCH   8   9
HETATM    9  C2  UNL     1      34.792  18.109  69.298  1.00  0.00     0.010 C 
HETATM   10  C1  UNL     1      33.912  18.784  68.268  1.00  0.00     0.006 C 
ENDBRANCH   8   9
BRANCH   8  11
HETATM   11  C32 UNL     1      36.350  19.540  70.507  1.00  0.00     0.262 C 
HETATM   12  O5  UNL     1      35.607  20.508  70.748  1.00  0.00    -0.265 OA
BRANCH  11  13
HETATM   13  O6  UNL     1      37.366  19.246  71.444  1.00  0.00    -0.326 OA
HETATM   14  C33 UNL     1      36.973  18.778  72.716  1.00  0.00     0.213 C 
ENDBRANCH  11  13
ENDBRANCH   8  11
ENDBRANCH   7   8
ENDBRANCH   6   7
ENDBRANCH   3   6
ENDBRANCH   1   2
BRANCH   1  15
HETATM   15  C9  UNL     1      42.240  18.673  67.965  1.00  0.00     0.036 C 
BRANCH  15  16
HETATM   16  C10 UNL     1      43.446  17.969  67.471  1.00  0.00     0.002 C 
BRANCH  16  17
HETATM   17  C11 UNL     1      44.052  17.153  68.582  1.00  0.00     0.002 C 
BRANCH  17  18
HETATM   18  C12 UNL     1      43.400  17.329  69.919  1.00  0.00     0.022 C 
BRANCH  18  19
HETATM   19  C13 UNL     1      43.173  16.036  70.665  1.00  0.00     0.148 C 
BRANCH  19  20
HETATM   20  N2  UNL     1      41.786  15.947  71.180  1.00  0.00    -0.297 N 
HETATM   21  C14 UNL     1      41.470  14.923  71.989  1.00  0.00     0.160 A 
HETATM   22  S1  UNL     1      39.819  15.237  72.306  1.00  0.00    -0.076 SA
HETATM   23  C15 UNL     1      39.662  16.661  71.373  1.00  0.00     0.158 A 
HETATM   24  N3  UNL     1      40.889  16.787  70.891  1.00  0.00    -0.303 N 
ATOM     25  H3  UNL     1      41.112  17.572  70.278  1.00  0.00     0.186 HD
ENDBRANCH  19  20
ENDBRANCH  18  19
ENDBRANCH  17  18
ENDBRANCH  16  17
ENDBRANCH  15  16
ENDBRANCH   1  15
BRANCH   1  26
HETATM   26  N4  UNL     1      40.819  17.455  66.339  1.00  0.00    -0.262 N 
BRANCH  26  27
HETATM   27  C16 UNL     1      40.222  16.347  67.058  1.00  0.00     0.047 A 
HETATM   28  C17 UNL     1      40.888  15.384  67.674  1.00  0.00     0.042 A 
HETATM   29  C18 UNL     1      39.957  14.449  68.283  1.00  0.00    -0.031 A 
HETATM   30  C19 UNL     1      40.053  13.349  68.989  1.00  0.00    -0.014 C 
HETATM   31  C29 UNL     1      38.631  14.966  67.961  1.00  0.00    -0.041 A 
HETATM   32  C20 UNL     1      38.897  12.564  69.507  1.00  0.00     0.034 C 
HETATM   33  C21 UNL     1      37.714  12.814  68.627  1.00  0.00     0.010 C 
HETATM   34  C22 UNL     1      37.395  14.272  68.400  1.00  0.00     0.025 C 
HETATM   35  C27 UNL     1      36.543  12.040  69.138  1.00  0.00     0.008 C 
HETATM   36  C23 UNL     1      36.952  14.843  69.701  1.00  0.00     0.012 C 
HETATM   37  C24 UNL     1      35.727  14.160  70.255  1.00  0.00     0.033 C 
HETATM   38  C25 UNL     1      35.381  12.892  69.556  1.00  0.00     0.132 C 
HETATM   39  O2  UNL     1      35.076  11.895  70.502  1.00  0.00    -0.384 OA
HETATM   40  C26 UNL     1      36.479  11.703  70.586  1.00  0.00     0.180 C 
HETATM   41  C28 UNL     1      36.095  10.885  68.288  1.00  0.00     0.020 C 
HETATM   42  C30 UNL     1      38.802  16.075  67.245  1.00  0.00     0.038 A 
ENDBRANCH  26  27
BRANCH  26  43
HETATM   43  S2  UNL     1      41.199  17.112  64.694  1.00  0.00     0.230 S 
HETATM   44  C31 UNL     1      41.692  15.419  64.476  1.00  0.00     0.186 C 
HETATM   45  O3  UNL     1      39.969  17.322  63.859  1.00  0.00    -0.206 OA
HETATM   46  O4  UNL     1      42.241  18.044  64.129  1.00  0.00    -0.206 OA
ENDBRANCH  26  43
ENDBRANCH   1  26
TORSDOF 16
ENDMDL
MODEL 2
REMARK VINA RESULT: -6.203585189      1.772      2.375
REMARK  16 active torsions:
REMARK  status: ('A' for Active; 'I' for Inactive)
REMARK    1  A    between atoms: C2_2  and  C3_3 
REMARK    2  A    between atoms: C3_3  and  C4_4 
REMARK    3  A    between atoms: C3_3  and  C32_43 
REMARK    4  A    between atoms: C4_4  and  C5_5 
REMARK    5  A    between atoms: C5_5  and  N1_6 
REMARK       I    between atoms: N1_6  and  C7_8 
REMARK    6  A    between atoms: C7_8  and  C8_10 
REMARK    7  A    between atoms: C8_10  and  C9_11 
REMARK    8  A    between atoms: C8_10  and  N4_22 
REMARK    9  A    between atoms: C9_11  and  C10_12 
REMARK   10  A    between atoms: C10_12  and  C11_13 
REMARK   11  A    between atoms: C11_13  and  C12_14 
REMARK   12  A    between atoms: C12_14  and  C13_15 
REMARK   13  A    between atoms: C13_15  and  N2_16 
REMARK   14  A    between atoms: N4_22  and  C16_23 
REMARK   15  A    between atoms: N4_22  and  S2_39 
REMARK   16  A    between atoms: C32_43  and  O6_45 
ROOT
HETATM    1  C8  UNL     1      41.006  18.419  66.986  1.00  0.00     0.194 C 
ENDROOT
BRANCH   1   2
HETATM    2  C7  UNL     1      39.809  19.047  67.579  1.00  0.00     0.243 C 
HETATM    3  N1  UNL     1      38.778  19.709  66.900  1.00  0.00    -0.355 N 
HETATM    4  C6  UNL     1      38.770  19.898  65.475  1.00  0.00     0.152 C 
HETATM    5  O1  UNL     1      39.734  18.962  68.855  1.00  0.00    -0.271 OA
BRANCH   3   6
HETATM    6  C5  UNL     1      37.648  20.258  67.650  1.00  0.00     0.126 C 
BRANCH   6   7
HETATM    7  C4  UNL     1      36.377  19.530  67.293  1.00  0.00     0.034 C 
BRANCH   7   8
HETATM    8  C3  UNL     1      35.585  19.063  68.468  1.00  0.00     0.086 C 
BRANCH   8   9
HETATM    9  C2  UNL     1      36.177  17.801  69.088  1.00  0.00     0.010 C 
HETATM   10  C1  UNL     1      36.611  18.054  70.515  1.00  0.00     0.006 C 
ENDBRANCH   8   9
BRANCH   8  11
HETATM   11  C32 UNL     1      34.157  18.810  68.168  1.00  0.00     0.262 C 
HETATM   12  O5  UNL     1      33.669  19.019  67.043  1.00  0.00    -0.265 OA
BRANCH  11  13
HETATM   13  O6  UNL     1      33.298  18.311  69.173  1.00  0.00    -0.326 OA
HETATM   14  C33 UNL     1      31.952  18.066  68.825  1.00  0.00     0.213 C 
ENDBRANCH  11  13
ENDBRANCH   8  11
ENDBRANCH   7   8
ENDBRANCH   6   7
ENDBRANCH   3   6
ENDBRANCH   1   2
BRANCH   1  15
HETATM   15  C9  UNL     1      42.060  18.349  68.088  1.00  0.00     0.036 C 
BRANCH  15  16
HETATM   16  C10 UNL     1      43.420  17.973  67.640  1.00  0.00     0.002 C 
BRANCH  16  17
HETATM   17  C11 UNL     1      44.095  17.141  68.697  1.00  0.00     0.002 C 
BRANCH  17  18
HETATM   18  C12 UNL     1      43.810  15.673  68.618  1.00  0.00     0.022 C 
BRANCH  18  19
HETATM   19  C13 UNL     1      43.903  14.957  69.944  1.00  0.00     0.148 C 
BRANCH  19  20
HETATM   20  N2  UNL     1      43.747  13.492  69.780  1.00  0.00    -0.297 N 
HETATM   21  C14 UNL     1      43.772  12.720  70.877  1.00  0.00     0.160 A 
HETATM   22  S1  UNL     1      43.567  11.162  70.203  1.00  0.00    -0.076 SA
HETATM   23  C15 UNL     1      43.463  11.625  68.559  1.00  0.00     0.158 A 
HETATM   24  N3  UNL     1      43.594  12.939  68.655  1.00  0.00    -0.303 N 
ATOM     25  H3  UNL     1      43.571  13.510  67.810  1.00  0.00     0.186 HD
ENDBRANCH  19  20
ENDBRANCH  18  19
ENDBRANCH  17  18
ENDBRANCH  16  17
ENDBRANCH  15  16
ENDBRANCH   1  15
BRANCH   1  26
HETATM   26  N4  UNL     1      40.792  17.182  66.305  1.00  0.00    -0.262 N 
BRANCH  26  27
HETATM   27  C16 UNL     1      40.206  16.054  67.001  1.00  0.00     0.047 A 
HETATM   28  C17 UNL     1      40.879  15.046  67.532  1.00  0.00     0.042 A 
HETATM   29  C18 UNL     1      39.958  14.104  68.146  1.00  0.00    -0.031 A 
HETATM   30  C19 UNL     1      40.063  12.967  68.791  1.00  0.00    -0.014 C 
HETATM   31  C29 UNL     1      38.630  14.667  67.923  1.00  0.00    -0.041 A 
HETATM   32  C20 UNL     1      38.916  12.184  69.334  1.00  0.00     0.034 C 
HETATM   33  C21 UNL     1      37.694  12.507  68.533  1.00  0.00     0.010 C 
HETATM   34  C22 UNL     1      37.402  13.981  68.395  1.00  0.00     0.025 C 
HETATM   35  C27 UNL     1      36.533  11.736  69.070  1.00  0.00     0.008 C 
HETATM   36  C23 UNL     1      37.045  14.497  69.746  1.00  0.00     0.012 C 
HETATM   37  C24 UNL     1      35.834  13.816  70.332  1.00  0.00     0.033 C 
HETATM   38  C25 UNL     1      35.418  12.593  69.593  1.00  0.00     0.132 C 
HETATM   39  O2  UNL     1      35.139  11.557  70.504  1.00  0.00    -0.384 OA
HETATM   40  C26 UNL     1      36.538  11.328  70.502  1.00  0.00     0.180 C 
HETATM   41  C28 UNL     1      36.010  10.636  68.191  1.00  0.00     0.020 C 
HETATM   42  C30 UNL     1      38.792  15.806  67.253  1.00  0.00     0.038 A 
ENDBRANCH  26  27
BRANCH  26  43
HETATM   43  S2  UNL     1      41.193  16.870  64.660  1.00  0.00     0.230 S 
HETATM   44  C31 UNL     1      41.830  15.225  64.441  1.00  0.00     0.186 C 
HETATM   45  O3  UNL     1      39.946  16.971  63.830  1.00  0.00    -0.206 OA
HETATM   46  O4  UNL     1      42.148  17.888  64.088  1.00  0.00    -0.206 OA
ENDBRANCH  26  43
ENDBRANCH   1  26
TORSDOF 16
ENDMDL
MODEL 3
REMARK VINA RESULT: -6.174091942      2.867      5.415
REMARK  16 active torsions:
REMARK  status: ('A' for Active; 'I' for Inactive)
REMARK    1  A    between atoms: C2_2  and  C3_3 
REMARK    2  A    between atoms: C3_3  and  C4_4 
REMARK    3  A    between atoms: C3_3  and  C32_43 
REMARK    4  A    between atoms: C4_4  and  C5_5 
REMARK    5  A    between atoms: C5_5  and  N1_6 
REMARK       I    between atoms: N1_6  and  C7_8 
REMARK    6  A    between atoms: C7_8  and  C8_10 
REMARK    7  A    between atoms: C8_10  and  C9_11 
REMARK    8  A    between atoms: C8_10  and  N4_22 
REMARK    9  A    between atoms: C9_11  and  C10_12 
REMARK   10  A    between atoms: C10_12  and  C11_13 
REMARK   11  A    between atoms: C11_13  and  C12_14 
REMARK   12  A    between atoms: C12_14  and  C13_15 
REMARK   13  A    between atoms: C13_15  and  N2_16 
REMARK   14  A    between atoms: N4_22  and  C16_23 
REMARK   15  A    between atoms: N4_22  and  S2_39 
REMARK   16  A    between atoms: C32_43  and  O6_45 
ROOT
HETATM    1  C8  UNL     1      41.259  16.003  67.349  1.00  0.00     0.194 C 
ENDROOT
BRANCH   1   2
HETATM    2  C7  UNL     1      41.366  15.823  68.810  1.00  0.00     0.243 C 
HETATM    3  N1  UNL     1      42.214  16.513  69.687  1.00  0.00    -0.355 N 
HETATM    4  C6  UNL     1      43.155  17.508  69.250  1.00  0.00     0.152 C 
HETATM    5  O1  UNL     1      40.588  14.931  69.300  1.00  0.00    -0.271 OA
BRANCH   3   6
HETATM    6  C5  UNL     1      42.174  16.219  71.119  1.00  0.00     0.126 C 
BRANCH   6   7
HETATM    7  C4  UNL     1      41.419  17.296  71.856  1.00  0.00     0.034 C 
BRANCH   7   8
HETATM    8  C3  UNL     1      40.279  16.796  72.679  1.00  0.00     0.086 C 
BRANCH   8   9
HETATM    9  C2  UNL     1      38.931  17.203  72.091  1.00  0.00     0.010 C 
HETATM   10  C1  UNL     1      38.205  16.003  71.524  1.00  0.00     0.006 C 
ENDBRANCH   8   9
BRANCH   8  11
HETATM   11  C32 UNL     1      40.322  17.231  74.093  1.00  0.00     0.262 C 
HETATM   12  O5  UNL     1      40.651  16.461  75.013  1.00  0.00    -0.265 OA
BRANCH  11  13
HETATM   13  O6  UNL     1      39.986  18.559  74.439  1.00  0.00    -0.326 OA
HETATM   14  C33 UNL     1      40.849  19.248  75.317  1.00  0.00     0.213 C 
ENDBRANCH  11  13
ENDBRANCH   8  11
ENDBRANCH   7   8
ENDBRANCH   6   7
ENDBRANCH   3   6
ENDBRANCH   1   2
BRANCH   1  15
HETATM   15  C9  UNL     1      40.635  14.727  66.791  1.00  0.00     0.036 C 
BRANCH  15  16
HETATM   16  C10 UNL     1      41.557  13.851  66.033  1.00  0.00     0.002 C 
BRANCH  16  17
HETATM   17  C11 UNL     1      41.764  12.559  66.778  1.00  0.00     0.002 C 
BRANCH  17  18
HETATM   18  C12 UNL     1      42.934  12.553  67.713  1.00  0.00     0.022 C 
BRANCH  18  19
HETATM   19  C13 UNL     1      43.286  11.186  68.248  1.00  0.00     0.148 C 
BRANCH  19  20
HETATM   20  N2  UNL     1      43.663  11.247  69.680  1.00  0.00    -0.297 N 
HETATM   21  C14 UNL     1      43.718  12.449  70.276  1.00  0.00     0.160 A 
HETATM   22  S1  UNL     1      44.185  12.021  71.864  1.00  0.00    -0.076 SA
HETATM   23  C15 UNL     1      44.273  10.328  71.640  1.00  0.00     0.158 A 
HETATM   24  N3  UNL     1      43.937  10.221  70.364  1.00  0.00    -0.303 N 
ATOM     25  H3  UNL     1      43.898   9.300  69.928  1.00  0.00     0.186 HD
ENDBRANCH  19  20
ENDBRANCH  18  19
ENDBRANCH  17  18
ENDBRANCH  16  17
ENDBRANCH  15  16
ENDBRANCH   1  15
BRANCH   1  26
HETATM   26  N4  UNL     1      40.621  17.204  66.911  1.00  0.00    -0.262 N 
BRANCH  26  27
HETATM   27  C16 UNL     1      39.507  17.755  67.657  1.00  0.00     0.047 A 
HETATM   28  C17 UNL     1      39.579  18.762  68.511  1.00  0.00     0.042 A 
HETATM   29  C18 UNL     1      38.264  19.037  69.066  1.00  0.00    -0.031 A 
HETATM   30  C19 UNL     1      37.763  19.889  69.927  1.00  0.00    -0.014 C 
HETATM   31  C29 UNL     1      37.374  18.065  68.438  1.00  0.00    -0.041 A 
HETATM   32  C20 UNL     1      36.329  19.956  70.327  1.00  0.00     0.034 C 
HETATM   33  C21 UNL     1      35.713  18.607  70.130  1.00  0.00     0.010 C 
HETATM   34  C22 UNL     1      35.927  18.011  68.760  1.00  0.00     0.025 C 
HETATM   35  C27 UNL     1      34.271  18.659  70.518  1.00  0.00     0.008 C 
HETATM   36  C23 UNL     1      35.179  18.850  67.783  1.00  0.00     0.012 C 
HETATM   37  C24 UNL     1      33.698  18.898  68.064  1.00  0.00     0.033 C 
HETATM   38  C25 UNL     1      33.323  18.351  69.396  1.00  0.00     0.132 C 
HETATM   39  O2  UNL     1      32.406  19.214  70.025  1.00  0.00    -0.384 OA
HETATM   40  C26 UNL     1      33.546  19.955  70.425  1.00  0.00     0.180 C 
HETATM   41  C28 UNL     1      33.899  17.913  71.768  1.00  0.00     0.020 C 
HETATM   42  C30 UNL     1      38.115  17.324  67.617  1.00  0.00     0.038 A 
ENDBRANCH  26  27
BRANCH  26  43
HETATM   43  S2  UNL     1      41.049  18.102  65.506  1.00  0.00     0.230 S 
HETATM   44  C31 UNL     1      41.158  17.060  64.070  1.00  0.00     0.186 C 
HETATM   45  O3  UNL     1      39.974  19.115  65.233  1.00  0.00    -0.206 OA
HETATM   46  O4  UNL     1      42.321  18.894  65.684  1.00  0.00    -0.206 OA
ENDBRANCH  26  43
ENDBRANCH   1  26
TORSDOF 16
ENDMDL
MODEL 4
REMARK VINA RESULT: -6.118975300      2.719      5.085
REMARK  16 active torsions:
REMARK  status: ('A' for Active; 'I' for Inactive)
REMARK    1  A    between atoms: C2_2  and  C3_3 
REMARK    2  A    between atoms: C3_3  and  C4_4 
REMARK    3  A    between atoms: C3_3  and  C32_43 
REMARK    4  A    between atoms: C4_4  and  C5_5 
REMARK    5  A    between atoms: C5_5  and  N1_6 
REMARK       I    between atoms: N1_6  and  C7_8 
REMARK    6  A    between atoms: C7_8  and  C8_10 
REMARK    7  A    between atoms: C8_10  and  C9_11 
REMARK    8  A    between atoms: C8_10  and  N4_22 
REMARK    9  A    between atoms: C9_11  and  C10_12 
REMARK   10  A    between atoms: C10_12  and  C11_13 
REMARK   11  A    between atoms: C11_13  and  C12_14 
REMARK   12  A    between atoms: C12_14  and  C13_15 
REMARK   13  A    between atoms: C13_15  and  N2_16 
REMARK   14  A    between atoms: N4_22  and  C16_23 
REMARK   15  A    between atoms: N4_22  and  S2_39 
REMARK   16  A    between atoms: C32_43  and  O6_45 
ROOT
HETATM    1  C8  UNL     1      41.312  18.762  66.240  1.00  0.00     0.194 C 
ENDROOT
BRANCH   1   2
HETATM    2  C7  UNL     1      42.226  18.374  67.332  1.00  0.00     0.243 C 
HETATM    3  N1  UNL     1      42.457  19.066  68.528  1.00  0.00    -0.355 N 
HETATM    4  C6  UNL     1      41.827  20.319  68.844  1.00  0.00     0.152 C 
HETATM    5  O1  UNL     1      42.865  17.280  67.135  1.00  0.00    -0.271 OA
BRANCH   3   6
HETATM    6  C5  UNL     1      43.389  18.522  69.515  1.00  0.00     0.126 C 
BRANCH   6   7
HETATM    7  C4  UNL     1      42.663  17.622  70.483  1.00  0.00     0.034 C 
BRANCH   7   8
HETATM    8  C3  UNL     1      42.972  16.171  70.323  1.00  0.00     0.086 C 
BRANCH   8   9
HETATM    9  C2  UNL     1      41.754  15.296  70.602  1.00  0.00     0.010 C 
HETATM   10  C1  UNL     1      41.361  15.367  72.062  1.00  0.00     0.006 C 
ENDBRANCH   8   9
BRANCH   8  11
HETATM   11  C32 UNL     1      44.090  15.697  71.169  1.00  0.00     0.262 C 
HETATM   12  O5  UNL     1      44.521  16.359  72.130  1.00  0.00    -0.265 OA
BRANCH  11  13
HETATM   13  O6  UNL     1      44.706  14.454  70.902  1.00  0.00    -0.326 OA
HETATM   14  C33 UNL     1      44.772  13.513  71.952  1.00  0.00     0.213 C 
ENDBRANCH  11  13
ENDBRANCH   8  11
ENDBRANCH   7   8
ENDBRANCH   6   7
ENDBRANCH   3   6
ENDBRANCH   1   2
BRANCH   1  15
HETATM   15  C9  UNL     1      41.707  17.936  65.019  1.00  0.00     0.036 C 
BRANCH  15  16
HETATM   16  C10 UNL     1      40.815  16.795  64.712  1.00  0.00     0.002 C 
BRANCH  16  17
HETATM   17  C11 UNL     1      41.637  15.589  64.341  1.00  0.00     0.002 C 
BRANCH  17  18
HETATM   18  C12 UNL     1      41.417  14.388  65.209  1.00  0.00     0.022 C 
BRANCH  18  19
HETATM   19  C13 UNL     1      42.104  14.466  66.551  1.00  0.00     0.148 C 
BRANCH  19  20
HETATM   20  N2  UNL     1      42.346  13.116  67.113  1.00  0.00    -0.297 N 
HETATM   21  C14 UNL     1      43.273  12.980  68.074  1.00  0.00     0.160 A 
HETATM   22  S1  UNL     1      43.196  11.301  68.388  1.00  0.00    -0.076 SA
HETATM   23  C15 UNL     1      41.976  10.902  67.258  1.00  0.00     0.158 A 
HETATM   24  N3  UNL     1      41.721  12.088  66.727  1.00  0.00    -0.303 N 
ATOM     25  H3  UNL     1      41.012  12.173  65.999  1.00  0.00     0.186 HD
ENDBRANCH  19  20
ENDBRANCH  18  19
ENDBRANCH  17  18
ENDBRANCH  16  17
ENDBRANCH  15  16
ENDBRANCH   1  15
BRANCH   1  26
HETATM   26  N4  UNL     1      39.917  18.719  66.547  1.00  0.00    -0.262 N 
BRANCH  26  27
HETATM   27  C16 UNL     1      39.407  17.760  67.507  1.00  0.00     0.047 A 
HETATM   28  C17 UNL     1      39.003  18.044  68.734  1.00  0.00     0.042 A 
HETATM   29  C18 UNL     1      38.559  16.832  69.402  1.00  0.00    -0.031 A 
HETATM   30  C19 UNL     1      38.078  16.530  70.584  1.00  0.00    -0.014 C 
HETATM   31  C29 UNL     1      38.742  15.767  68.423  1.00  0.00    -0.041 A 
HETATM   32  C20 UNL     1      37.689  15.159  71.022  1.00  0.00     0.034 C 
HETATM   33  C21 UNL     1      38.474  14.162  70.230  1.00  0.00     0.010 C 
HETATM   34  C22 UNL     1      38.412  14.354  68.735  1.00  0.00     0.025 C 
HETATM   35  C27 UNL     1      38.090  12.781  70.651  1.00  0.00     0.008 C 
HETATM   36  C23 UNL     1      37.014  14.075  68.304  1.00  0.00     0.012 C 
HETATM   37  C24 UNL     1      36.569  12.672  68.631  1.00  0.00     0.033 C 
HETATM   38  C25 UNL     1      37.486  11.953  69.556  1.00  0.00     0.132 C 
HETATM   39  O2  UNL     1      36.741  11.298  70.554  1.00  0.00    -0.384 OA
HETATM   40  C26 UNL     1      36.731  12.552  71.214  1.00  0.00     0.180 C 
HETATM   41  C28 UNL     1      39.132  12.010  71.410  1.00  0.00     0.020 C 
HETATM   42  C30 UNL     1      39.238  16.325  67.320  1.00  0.00     0.038 A 
ENDBRANCH  26  27
BRANCH  26  43
HETATM   43  S2  UNL     1      38.713  19.730  65.844  1.00  0.00     0.230 S 
HETATM   44  C31 UNL     1      37.088  19.319  66.434  1.00  0.00     0.186 C 
HETATM   45  O3  UNL     1      38.980  21.152  66.247  1.00  0.00    -0.206 OA
HETATM   46  O4  UNL     1      38.748  19.718  64.336  1.00  0.00    -0.206 OA
ENDBRANCH  26  43
ENDBRANCH   1  26
TORSDOF 16
ENDMDL
MODEL 5
REMARK VINA RESULT: -6.101295465      3.298      6.049
REMARK  16 active torsions:
REMARK  status: ('A' for Active; 'I' for Inactive)
REMARK    1  A    between atoms: C2_2  and  C3_3 
REMARK    2  A    between atoms: C3_3  and  C4_4 
REMARK    3  A    between atoms: C3_3  and  C32_43 
REMARK    4  A    between atoms: C4_4  and  C5_5 
REMARK    5  A    between atoms: C5_5  and  N1_6 
REMARK       I    between atoms: N1_6  and  C7_8 
REMARK    6  A    between atoms: C7_8  and  C8_10 
REMARK    7  A    between atoms: C8_10  and  C9_11 
REMARK    8  A    between atoms: C8_10  and  N4_22 
REMARK    9  A    between atoms: C9_11  and  C10_12 
REMARK   10  A    between atoms: C10_12  and  C11_13 
REMARK   11  A    between atoms: C11_13  and  C12_14 
REMARK   12  A    between atoms: C12_14  and  C13_15 
REMARK   13  A    between atoms: C13_15  and  N2_16 
REMARK   14  A    between atoms: N4_22  and  C16_23 
REMARK   15  A    between atoms: N4_22  and  S2_39 
REMARK   16  A    between atoms: C32_43  and  O6_45 
ROOT
HETATM    1  C8  UNL     1      40.479  17.909  67.723  1.00  0.00     0.194 C 
ENDROOT
BRANCH   1   2
HETATM    2  C7  UNL     1      39.631  17.951  68.930  1.00  0.00     0.243 C 
HETATM    3  N1  UNL     1      38.779  16.943  69.401  1.00  0.00    -0.355 N 
HETATM    4  C6  UNL     1      38.589  15.693  68.718  1.00  0.00     0.152 C 
HETATM    5  O1  UNL     1      39.703  19.042  69.600  1.00  0.00    -0.271 OA
BRANCH   3   6
HETATM    6  C5  UNL     1      38.023  17.149  70.636  1.00  0.00     0.126 C 
BRANCH   6   7
HETATM    7  C4  UNL     1      38.406  16.117  71.666  1.00  0.00     0.034 C 
BRANCH   7   8
HETATM    8  C3  UNL     1      39.856  16.110  72.020  1.00  0.00     0.086 C 
BRANCH   8   9
HETATM    9  C2  UNL     1      40.226  14.907  72.882  1.00  0.00     0.010 C 
HETATM   10  C1  UNL     1      39.760  13.618  72.239  1.00  0.00     0.006 C 
ENDBRANCH   8   9
BRANCH   8  11
HETATM   11  C32 UNL     1      40.312  17.336  72.711  1.00  0.00     0.262 C 
HETATM   12  O5  UNL     1      39.720  17.797  73.704  1.00  0.00    -0.265 OA
BRANCH  11  13
HETATM   13  O6  UNL     1      41.456  18.027  72.253  1.00  0.00    -0.326 OA
HETATM   14  C33 UNL     1      42.677  17.793  72.921  1.00  0.00     0.213 C 
ENDBRANCH  11  13
ENDBRANCH   8  11
ENDBRANCH   7   8
ENDBRANCH   6   7
ENDBRANCH   3   6
ENDBRANCH   1   2
BRANCH   1  15
HETATM   15  C9  UNL     1      40.237  19.212  66.967  1.00  0.00     0.036 C 
BRANCH  15  16
HETATM   16  C10 UNL     1      39.480  19.078  65.702  1.00  0.00     0.002 C 
BRANCH  16  17
HETATM   17  C11 UNL     1      38.257  19.955  65.743  1.00  0.00     0.002 C 
BRANCH  17  18
HETATM   18  C12 UNL     1      37.257  19.590  66.797  1.00  0.00     0.022 C 
BRANCH  18  19
HETATM   19  C13 UNL     1      35.901  19.211  66.252  1.00  0.00     0.148 C 
BRANCH  19  20
HETATM   20  N2  UNL     1      34.918  19.006  67.342  1.00  0.00    -0.297 N 
HETATM   21  C14 UNL     1      35.378  18.775  68.582  1.00  0.00     0.160 A 
HETATM   22  S1  UNL     1      33.921  18.603  69.460  1.00  0.00    -0.076 SA
HETATM   23  C15 UNL     1      32.831  18.842  68.164  1.00  0.00     0.158 A 
HETATM   24  N3  UNL     1      33.669  19.036  67.158  1.00  0.00    -0.303 N 
ATOM     25  H3  UNL     1      33.302  19.212  66.223  1.00  0.00     0.186 HD
ENDBRANCH  19  20
ENDBRANCH  18  19
ENDBRANCH  17  18
ENDBRANCH  16  17
ENDBRANCH  15  16
ENDBRANCH   1  15
BRANCH   1  26
HETATM   26  N4  UNL     1      41.859  17.607  67.938  1.00  0.00    -0.262 N 
BRANCH  26  27
HETATM   27  C16 UNL     1      42.265  16.271  68.328  1.00  0.00     0.047 A 
HETATM   28  C17 UNL     1      42.594  15.296  67.497  1.00  0.00     0.042 A 
HETATM   29  C18 UNL     1      42.945  14.102  68.249  1.00  0.00    -0.031 A 
HETATM   30  C19 UNL     1      43.331  12.884  67.957  1.00  0.00    -0.014 C 
HETATM   31  C29 UNL     1      42.789  14.474  69.651  1.00  0.00    -0.041 A 
HETATM   32  C20 UNL     1      43.637  11.822  68.957  1.00  0.00     0.034 C 
HETATM   33  C21 UNL     1      42.871  12.108  70.209  1.00  0.00     0.010 C 
HETATM   34  C22 UNL     1      43.044  13.508  70.748  1.00  0.00     0.025 C 
HETATM   35  C27 UNL     1      43.173  11.057  71.227  1.00  0.00     0.008 C 
HETATM   36  C23 UNL     1      44.456  13.644  71.199  1.00  0.00     0.012 C 
HETATM   37  C24 UNL     1      44.824  12.660  72.281  1.00  0.00     0.033 C 
HETATM   38  C25 UNL     1      43.818  11.581  72.475  1.00  0.00     0.132 C 
HETATM   39  O2  UNL     1      44.468  10.337  72.581  1.00  0.00    -0.384 OA
HETATM   40  C26 UNL     1      44.480  10.348  71.163  1.00  0.00     0.180 C 
HETATM   41  C28 UNL     1      42.052  10.109  71.547  1.00  0.00     0.020 C 
HETATM   42  C30 UNL     1      42.392  15.745  69.681  1.00  0.00     0.038 A 
ENDBRANCH  26  27
BRANCH  26  43
HETATM   43  S2  UNL     1      43.157  18.729  67.789  1.00  0.00     0.230 S 
HETATM   44  C31 UNL     1      42.964  20.105  68.896  1.00  0.00     0.186 C 
HETATM   45  O3  UNL     1      44.437  18.040  68.164  1.00  0.00    -0.206 OA
HETATM   46  O4  UNL     1      43.352  19.212  66.373  1.00  0.00    -0.206 OA
ENDBRANCH  26  43
ENDBRANCH   1  26
TORSDOF 16
ENDMDL
