MODEL 1
REMARK VINA RESULT: -6.818947075      0.000      0.000
REMARK  17 active torsions:
REMARK  status: ('A' for Active; 'I' for Inactive)
REMARK    1  A    between atoms: C2_2  and  O1_3 
REMARK    2  A    between atoms: O1_3  and  C3_4 
REMARK    3  A    between atoms: C3_4  and  C4_6 
REMARK    4  A    between atoms: C4_6  and  C5_7 
REMARK    5  A    between atoms: C5_7  and  N1_8 
REMARK    6  A    between atoms: N1_8  and  C6_9 
REMARK    7  A    between atoms: N1_8  and  S1_22 
REMARK    8  A    between atoms: C7_10  and  O3_11 
REMARK    9  A    between atoms: C7_10  and  N2_13 
REMARK   10  A    between atoms: N2_13  and  C9_15 
REMARK   11  A    between atoms: C9_15  and  C10_16 
REMARK   12  A    between atoms: C10_16  and  N3_17 
REMARK   13  A    between atoms: N3_17  and  C11_18 
REMARK   14  A    between atoms: N3_17  and  C13_20 
REMARK   15  A    between atoms: S1_22  and  C15_25 
REMARK   16  A    between atoms: C19_29  and  N4_30 
REMARK       I    between atoms: N4_30  and  C21_32 
REMARK   17  A    between atoms: C27_39  and  C28_40 
ROOT
HETATM    1  S1  UNL     1      41.931  15.957  65.522  1.00  0.00     0.247 S 
HETATM    2  O4  UNL     1      41.147  15.552  64.277  1.00  0.00    -0.205 OA
HETATM    3  O5  UNL     1      43.418  15.812  65.234  1.00  0.00    -0.205 OA
ENDROOT
BRANCH   1   4
HETATM    4  N1  UNL     1      41.507  17.582  65.916  1.00  0.00    -0.178 NA
BRANCH   4   5
HETATM    5  C5  UNL     1      40.451  18.052  65.081  1.00  0.00     0.122 C 
BRANCH   5   6
HETATM    6  C4  UNL     1      39.094  18.029  65.734  1.00  0.00     0.127 C 
BRANCH   6   7
HETATM    7  C3  UNL     1      38.514  19.414  65.633  1.00  0.00     0.259 C 
HETATM    8  O2  UNL     1      39.270  20.408  65.445  1.00  0.00    -0.265 OA
BRANCH   7   9
HETATM    9  O1  UNL     1      37.174  19.646  65.741  1.00  0.00    -0.322 OA
BRANCH   9  10
HETATM   10  C2  UNL     1      36.230  18.975  66.502  1.00  0.00     0.174 C 
HETATM   11  C1  UNL     1      34.845  19.223  65.952  1.00  0.00     0.034 C 
ENDBRANCH   9  10
ENDBRANCH   7   9
ENDBRANCH   6   7
ENDBRANCH   5   6
ENDBRANCH   4   5
BRANCH   4  12
HETATM   12  C6  UNL     1      42.630  18.356  66.175  1.00  0.00     0.132 C 
HETATM   13  C7  UNL     1      42.908  19.014  67.414  1.00  0.00     0.149 C 
BRANCH  13  14
HETATM   14  O3  UNL     1      44.103  19.598  67.433  1.00  0.00    -0.345 OA
ATOM     15  H3  UNL     1      44.169  20.282  68.089  1.00  0.00     0.219 HD
ENDBRANCH  13  14
BRANCH  13  16
HETATM   16  N2  UNL     1      42.225  19.196  68.620  1.00  0.00    -0.364 N 
HETATM   17  C8  UNL     1      42.898  19.293  69.899  1.00  0.00     0.151 C 
BRANCH  16  18
HETATM   18  C9  UNL     1      40.767  19.353  68.687  1.00  0.00     0.144 C 
BRANCH  18  19
HETATM   19  C10 UNL     1      40.085  18.124  69.255  1.00  0.00     0.146 C 
BRANCH  19  20
HETATM   20  N3  UNL     1      38.677  18.298  69.210  1.00  0.00    -0.373 N 
BRANCH  20  21
HETATM   21  C11 UNL     1      38.262  19.616  69.390  1.00  0.00     0.058 C 
HETATM   22  C12 UNL     1      37.039  19.823  70.245  1.00  0.00     0.055 C 
ENDBRANCH  20  21
BRANCH  20  23
HETATM   23  C13 UNL     1      37.930  17.248  69.720  1.00  0.00     0.058 C 
HETATM   24  C14 UNL     1      38.628  16.472  70.826  1.00  0.00     0.055 C 
ENDBRANCH  20  23
ENDBRANCH  19  20
ENDBRANCH  18  19
ENDBRANCH  16  18
ENDBRANCH  13  16
ENDBRANCH   4  12
ENDBRANCH   1   4
BRANCH   1  25
HETATM   25  C15 UNL     1      41.511  14.841  66.748  1.00  0.00     0.078 A 
HETATM   26  C16 UNL     1      40.163  14.654  67.076  1.00  0.00     0.038 A 
HETATM   27  C17 UNL     1      39.814  13.836  68.093  1.00  0.00    -0.008 A 
HETATM   28  C18 UNL     1      40.749  13.169  68.826  1.00  0.00    -0.015 A 
HETATM   29  C32 UNL     1      38.500  13.502  68.662  1.00  0.00     0.022 A 
HETATM   30  C19 UNL     1      42.120  13.311  68.546  1.00  0.00     0.045 A 
HETATM   31  C24 UNL     1      40.096  12.386  69.856  1.00  0.00     0.082 A 
HETATM   32  C23 UNL     1      42.462  14.146  67.510  1.00  0.00     0.055 A 
HETATM   33  C25 UNL     1      38.634  12.655  69.717  1.00  0.00    -0.035 A 
HETATM   34  C26 UNL     1      37.493  12.272  70.352  1.00  0.00     0.024 A 
HETATM   35  C27 UNL     1      36.316  12.763  69.882  1.00  0.00    -0.009 A 
HETATM   36  S2  UNL     1      36.804  13.742  68.573  1.00  0.00    -0.093 SA
BRANCH  30  37
HETATM   37  N4  UNL     1      43.051  12.599  69.345  1.00  0.00    -0.322 N 
HETATM   38  C20 UNL     1      43.521  11.276  69.020  1.00  0.00     0.159 C 
HETATM   39  C21 UNL     1      43.544  13.228  70.509  1.00  0.00     0.220 C 
HETATM   40  C22 UNL     1      44.515  12.525  71.421  1.00  0.00     0.117 C 
HETATM   41  O6  UNL     1      43.188  14.383  70.817  1.00  0.00    -0.274 OA
ENDBRANCH  30  37
BRANCH  35  42
HETATM   42  C28 UNL     1      34.941  12.502  70.386  1.00  0.00    -0.018 C 
HETATM   43  C29 UNL     1      34.314  13.859  70.675  1.00  0.00     0.020 C 
HETATM   44  C30 UNL     1      34.129  11.835  69.309  1.00  0.00     0.020 C 
HETATM   45  C31 UNL     1      34.962  11.718  71.690  1.00  0.00     0.020 C 
ENDBRANCH  35  42
ENDBRANCH   1  25
TORSDOF 17
ENDMDL
MODEL 2
REMARK VINA RESULT: -6.771632052      2.605      5.921
REMARK  17 active torsions:
REMARK  status: ('A' for Active; 'I' for Inactive)
REMARK    1  A    between atoms: C2_2  and  O1_3 
REMARK    2  A    between atoms: O1_3  and  C3_4 
REMARK    3  A    between atoms: C3_4  and  C4_6 
REMARK    4  A    between atoms: C4_6  and  C5_7 
REMARK    5  A    between atoms: C5_7  and  N1_8 
REMARK    6  A    between atoms: N1_8  and  C6_9 
REMARK    7  A    between atoms: N1_8  and  S1_22 
REMARK    8  A    between atoms: C7_10  and  O3_11 
REMARK    9  A    between atoms: C7_10  and  N2_13 
REMARK   10  A    between atoms: N2_13  and  C9_15 
REMARK   11  A    between atoms: C9_15  and  C10_16 
REMARK   12  A    between atoms: C10_16  and  N3_17 
REMARK   13  A    between atoms: N3_17  and  C11_18 
REMARK   14  A    between atoms: N3_17  and  C13_20 
REMARK   15  A    between atoms: S1_22  and  C15_25 
REMARK   16  A    between atoms: C19_29  and  N4_30 
REMARK       I    between atoms: N4_30  and  C21_32 
REMARK   17  A    between atoms: C27_39  and  C28_40 
ROOT
HETATM    1  S1  UNL     1      42.445  19.097  67.878  1.00  0.00     0.247 S 
HETATM    2  O4  UNL     1      43.962  18.959  67.791  1.00  0.00    -0.205 OA
HETATM    3  O5  UNL     1      42.109  20.490  68.394  1.00  0.00    -0.205 OA
ENDROOT
BRANCH   1   4
HETATM    4  N1  UNL     1      41.790  18.818  66.308  1.00  0.00    -0.178 NA
BRANCH   4   5
HETATM    5  C5  UNL     1      40.435  18.381  66.389  1.00  0.00     0.122 C 
BRANCH   5   6
HETATM    6  C4  UNL     1      39.610  18.704  65.171  1.00  0.00     0.127 C 
BRANCH   6   7
HETATM    7  C3  UNL     1      38.692  19.842  65.528  1.00  0.00     0.259 C 
HETATM    8  O2  UNL     1      39.168  20.974  65.824  1.00  0.00    -0.265 OA
BRANCH   7   9
HETATM    9  O1  UNL     1      37.336  19.697  65.549  1.00  0.00    -0.322 OA
BRANCH   9  10
HETATM   10  C2  UNL     1      36.526  19.189  66.552  1.00  0.00     0.174 C 
HETATM   11  C1  UNL     1      35.089  19.149  66.092  1.00  0.00     0.034 C 
ENDBRANCH   9  10
ENDBRANCH   7   9
ENDBRANCH   6   7
ENDBRANCH   5   6
ENDBRANCH   4   5
BRANCH   4  12
HETATM   12  C6  UNL     1      42.707  18.195  65.473  1.00  0.00     0.132 C 
HETATM   13  C7  UNL     1      42.726  16.797  65.168  1.00  0.00     0.149 C 
BRANCH  13  14
HETATM   14  O3  UNL     1      43.641  16.480  64.256  1.00  0.00    -0.345 OA
ATOM     15  H3  UNL     1      43.265  16.313  63.399  1.00  0.00     0.219 HD
ENDBRANCH  13  14
BRANCH  13  16
HETATM   16  N2  UNL     1      42.015  15.675  65.599  1.00  0.00    -0.364 N 
HETATM   17  C8  UNL     1      40.891  15.126  64.867  1.00  0.00     0.151 C 
BRANCH  16  18
HETATM   18  C9  UNL     1      42.376  14.925  66.808  1.00  0.00     0.144 C 
BRANCH  18  19
HETATM   19  C10 UNL     1      41.189  14.194  67.404  1.00  0.00     0.146 C 
BRANCH  19  20
HETATM   20  N3  UNL     1      41.601  12.918  67.870  1.00  0.00    -0.373 N 
BRANCH  20  21
HETATM   21  C11 UNL     1      40.765  12.370  68.842  1.00  0.00     0.058 C 
HETATM   22  C12 UNL     1      39.388  12.969  68.954  1.00  0.00     0.055 C 
ENDBRANCH  20  21
BRANCH  20  23
HETATM   23  C13 UNL     1      42.971  12.718  67.927  1.00  0.00     0.058 C 
HETATM   24  C14 UNL     1      43.379  11.424  68.616  1.00  0.00     0.055 C 
ENDBRANCH  20  23
ENDBRANCH  19  20
ENDBRANCH  18  19
ENDBRANCH  16  18
ENDBRANCH  13  16
ENDBRANCH   4  12
ENDBRANCH   1   4
BRANCH   1  25
HETATM   25  C15 UNL     1      41.916  17.956  69.036  1.00  0.00     0.078 A 
HETATM   26  C16 UNL     1      42.815  16.995  69.515  1.00  0.00     0.038 A 
HETATM   27  C17 UNL     1      42.397  16.035  70.371  1.00  0.00    -0.008 A 
HETATM   28  C18 UNL     1      41.105  15.971  70.797  1.00  0.00    -0.015 A 
HETATM   29  C32 UNL     1      43.111  14.903  70.981  1.00  0.00     0.022 A 
HETATM   30  C19 UNL     1      40.154  16.908  70.356  1.00  0.00     0.045 A 
HETATM   31  C24 UNL     1      40.939  14.839  71.687  1.00  0.00     0.082 A 
HETATM   32  C23 UNL     1      40.589  17.878  69.485  1.00  0.00     0.055 A 
HETATM   33  C25 UNL     1      42.271  14.167  71.756  1.00  0.00    -0.035 A 
HETATM   34  C26 UNL     1      42.796  13.074  72.373  1.00  0.00     0.024 A 
HETATM   35  C27 UNL     1      44.114  12.808  72.168  1.00  0.00    -0.009 A 
HETATM   36  S2  UNL     1      44.602  14.070  71.129  1.00  0.00    -0.093 SA
BRANCH  30  37
HETATM   37  N4  UNL     1      38.820  16.790  70.825  1.00  0.00    -0.322 N 
HETATM   38  C20 UNL     1      37.784  16.107  70.094  1.00  0.00     0.159 C 
HETATM   39  C21 UNL     1      38.503  17.366  72.075  1.00  0.00     0.220 C 
HETATM   40  C22 UNL     1      37.102  17.304  72.626  1.00  0.00     0.117 C 
HETATM   41  O6  UNL     1      39.372  17.944  72.757  1.00  0.00    -0.274 OA
ENDBRANCH  30  37
BRANCH  35  42
HETATM   42  C28 UNL     1      44.926  11.691  72.721  1.00  0.00    -0.018 C 
HETATM   43  C29 UNL     1      44.380  11.398  74.111  1.00  0.00     0.020 C 
HETATM   44  C30 UNL     1      44.733  10.462  71.876  1.00  0.00     0.020 C 
HETATM   45  C31 UNL     1      46.388  12.086  72.875  1.00  0.00     0.020 C 
ENDBRANCH  35  42
ENDBRANCH   1  25
TORSDOF 17
ENDMDL
MODEL 3
REMARK VINA RESULT: -6.700870819      0.840      1.076
REMARK  17 active torsions:
REMARK  status: ('A' for Active; 'I' for Inactive)
REMARK    1  A    between atoms: C2_2  and  O1_3 
REMARK    2  A    between atoms: O1_3  and  C3_4 
REMARK    3  A    between atoms: C3_4  and  C4_6 
REMARK    4  A    between atoms: C4_6  and  C5_7 
REMARK    5  A    between atoms: C5_7  and  N1_8 
REMARK    6  A    between atoms: N1_8  and  C6_9 
REMARK    7  A    between atoms: N1_8  and  S1_22 
REMARK    8  A    between atoms: C7_10  and  O3_11 
REMARK    9  A    between atoms: C7_10  and  N2_13 
REMARK   10  A    between atoms: N2_13  and  C9_15 
REMARK   11  A    between atoms: C9_15  and  C10_16 
REMARK   12  A    between atoms: C10_16  and  N3_17 
REMARK   13  A    between atoms: N3_17  and  C11_18 
REMARK   14  A    between atoms: N3_17  and  C13_20 
REMARK   15  A    between atoms: S1_22  and  C15_25 
REMARK   16  A    between atoms: C19_29  and  N4_30 
REMARK       I    between atoms: N4_30  and  C21_32 
REMARK   17  A    between atoms: C27_39  and  C28_40 
ROOT
HETATM    1  S1  UNL     1      41.838  15.917  65.458  1.00  0.00     0.247 S 
HETATM    2  O4  UNL     1      41.079  15.469  64.213  1.00  0.00    -0.205 OA
HETATM    3  O5  UNL     1      43.332  15.813  65.186  1.00  0.00    -0.205 OA
ENDROOT
BRANCH   1   4
HETATM    4  N1  UNL     1      41.362  17.535  65.821  1.00  0.00    -0.178 NA
BRANCH   4   5
HETATM    5  C5  UNL     1      40.221  17.916  65.056  1.00  0.00     0.122 C 
BRANCH   5   6
HETATM    6  C4  UNL     1      38.950  18.019  65.858  1.00  0.00     0.127 C 
BRANCH   6   7
HETATM    7  C3  UNL     1      38.562  19.473  65.917  1.00  0.00     0.259 C 
HETATM    8  O2  UNL     1      39.184  20.325  65.224  1.00  0.00    -0.265 OA
BRANCH   7   9
HETATM    9  O1  UNL     1      37.545  19.918  66.709  1.00  0.00    -0.322 OA
BRANCH   9  10
HETATM   10  C2  UNL     1      36.429  19.234  67.165  1.00  0.00     0.174 C 
HETATM   11  C1  UNL     1      35.379  19.170  66.081  1.00  0.00     0.034 C 
ENDBRANCH   9  10
ENDBRANCH   7   9
ENDBRANCH   6   7
ENDBRANCH   5   6
ENDBRANCH   4   5
BRANCH   4  12
HETATM   12  C6  UNL     1      42.460  18.373  65.959  1.00  0.00     0.132 C 
HETATM   13  C7  UNL     1      42.987  18.841  67.203  1.00  0.00     0.149 C 
BRANCH  13  14
HETATM   14  O3  UNL     1      44.109  19.542  67.058  1.00  0.00    -0.345 OA
ATOM     15  H3  UNL     1      43.951  20.440  66.791  1.00  0.00     0.219 HD
ENDBRANCH  13  14
BRANCH  13  16
HETATM   16  N2  UNL     1      42.609  18.743  68.545  1.00  0.00    -0.364 N 
HETATM   17  C8  UNL     1      42.289  19.897  69.359  1.00  0.00     0.151 C 
BRANCH  16  18
HETATM   18  C9  UNL     1      42.457  17.454  69.231  1.00  0.00     0.144 C 
BRANCH  18  19
HETATM   19  C10 UNL     1      41.524  17.549  70.423  1.00  0.00     0.146 C 
BRANCH  19  20
HETATM   20  N3  UNL     1      40.365  16.764  70.183  1.00  0.00    -0.373 N 
BRANCH  20  21
HETATM   21  C11 UNL     1      39.387  17.411  69.429  1.00  0.00     0.058 C 
HETATM   22  C12 UNL     1      37.956  17.089  69.770  1.00  0.00     0.055 C 
ENDBRANCH  20  21
BRANCH  20  23
HETATM   23  C13 UNL     1      40.009  15.898  71.204  1.00  0.00     0.058 C 
HETATM   24  C14 UNL     1      40.659  16.220  72.542  1.00  0.00     0.055 C 
ENDBRANCH  20  23
ENDBRANCH  19  20
ENDBRANCH  18  19
ENDBRANCH  16  18
ENDBRANCH  13  16
ENDBRANCH   4  12
ENDBRANCH   1   4
BRANCH   1  25
HETATM   25  C15 UNL     1      41.440  14.809  66.698  1.00  0.00     0.078 A 
HETATM   26  C16 UNL     1      40.097  14.622  67.048  1.00  0.00     0.038 A 
HETATM   27  C17 UNL     1      39.766  13.810  68.077  1.00  0.00    -0.008 A 
HETATM   28  C18 UNL     1      40.714  13.151  68.800  1.00  0.00    -0.015 A 
HETATM   29  C32 UNL     1      38.461  13.477  68.668  1.00  0.00     0.022 A 
HETATM   30  C19 UNL     1      42.079  13.294  68.498  1.00  0.00     0.045 A 
HETATM   31  C24 UNL     1      40.078  12.374  69.846  1.00  0.00     0.082 A 
HETATM   32  C23 UNL     1      42.404  14.122  67.450  1.00  0.00     0.055 A 
HETATM   33  C25 UNL     1      38.614  12.639  69.727  1.00  0.00    -0.035 A 
HETATM   34  C26 UNL     1      37.484  12.258  70.383  1.00  0.00     0.024 A 
HETATM   35  C27 UNL     1      36.298  12.743  69.928  1.00  0.00    -0.009 A 
HETATM   36  S2  UNL     1      36.764  13.713  68.605  1.00  0.00    -0.093 SA
BRANCH  30  37
HETATM   37  N4  UNL     1      43.025  12.590  69.288  1.00  0.00    -0.322 N 
HETATM   38  C20 UNL     1      43.513  11.277  68.950  1.00  0.00     0.159 C 
HETATM   39  C21 UNL     1      43.512  13.217  70.454  1.00  0.00     0.220 C 
HETATM   40  C22 UNL     1      44.498  12.521  71.357  1.00  0.00     0.117 C 
HETATM   41  O6  UNL     1      43.140  14.363  70.773  1.00  0.00    -0.274 OA
ENDBRANCH  30  37
BRANCH  35  42
HETATM   42  C28 UNL     1      34.932  12.483  70.455  1.00  0.00    -0.018 C 
HETATM   43  C29 UNL     1      34.344  13.833  70.837  1.00  0.00     0.020 C 
HETATM   44  C30 UNL     1      34.076  11.894  69.366  1.00  0.00     0.020 C 
HETATM   45  C31 UNL     1      34.970  11.625  71.712  1.00  0.00     0.020 C 
ENDBRANCH  35  42
ENDBRANCH   1  25
TORSDOF 17
ENDMDL
MODEL 4
REMARK VINA RESULT: -6.578488692      2.111      6.264
REMARK  17 active torsions:
REMARK  status: ('A' for Active; 'I' for Inactive)
REMARK    1  A    between atoms: C2_2  and  O1_3 
REMARK    2  A    between atoms: O1_3  and  C3_4 
REMARK    3  A    between atoms: C3_4  and  C4_6 
REMARK    4  A    between atoms: C4_6  and  C5_7 
REMARK    5  A    between atoms: C5_7  and  N1_8 
REMARK    6  A    between atoms: N1_8  and  C6_9 
REMARK    7  A    between atoms: N1_8  and  S1_22 
REMARK    8  A    between atoms: C7_10  and  O3_11 
REMARK    9  A    between atoms: C7_10  and  N2_13 
REMARK   10  A    between atoms: N2_13  and  C9_15 
REMARK   11  A    between atoms: C9_15  and  C10_16 
REMARK   12  A    between atoms: C10_16  and  N3_17 
REMARK   13  A    between atoms: N3_17  and  C11_18 
REMARK   14  A    between atoms: N3_17  and  C13_20 
REMARK   15  A    between atoms: S1_22  and  C15_25 
REMARK   16  A    between atoms: C19_29  and  N4_30 
REMARK       I    between atoms: N4_30  and  C21_32 
REMARK   17  A    between atoms: C27_39  and  C28_40 
ROOT
HETATM    1  S1  UNL     1      40.381  19.151  66.827  1.00  0.00     0.247 S 
HETATM    2  O4  UNL     1      40.350  20.557  67.418  1.00  0.00    -0.205 OA
HETATM    3  O5  UNL     1      40.013  19.230  65.353  1.00  0.00    -0.205 OA
ENDROOT
BRANCH   1   4
HETATM    4  N1  UNL     1      41.964  18.507  67.061  1.00  0.00    -0.178 NA
BRANCH   4   5
HETATM    5  C5  UNL     1      42.672  19.240  68.058  1.00  0.00     0.122 C 
BRANCH   5   6
HETATM    6  C4  UNL     1      43.375  18.378  69.074  1.00  0.00     0.127 C 
BRANCH   6   7
HETATM    7  C3  UNL     1      42.598  18.462  70.360  1.00  0.00     0.259 C 
HETATM    8  O2  UNL     1      43.167  18.836  71.424  1.00  0.00    -0.265 OA
BRANCH   7   9
HETATM    9  O1  UNL     1      41.273  18.141  70.427  1.00  0.00    -0.322 OA
BRANCH   9  10
HETATM   10  C2  UNL     1      40.609  17.362  71.361  1.00  0.00     0.174 C 
HETATM   11  C1  UNL     1      40.966  15.906  71.173  1.00  0.00     0.034 C 
ENDBRANCH   9  10
ENDBRANCH   7   9
ENDBRANCH   6   7
ENDBRANCH   5   6
ENDBRANCH   4   5
BRANCH   4  12
HETATM   12  C6  UNL     1      42.557  18.155  65.857  1.00  0.00     0.132 C 
HETATM   13  C7  UNL     1      42.838  16.816  65.437  1.00  0.00     0.149 C 
BRANCH  13  14
HETATM   14  O3  UNL     1      43.308  16.752  64.195  1.00  0.00    -0.345 OA
ATOM     15  H3  UNL     1      43.900  17.465  63.987  1.00  0.00     0.219 HD
ENDBRANCH  13  14
BRANCH  13  16
HETATM   16  N2  UNL     1      42.739  15.550  66.019  1.00  0.00    -0.364 N 
HETATM   17  C8  UNL     1      41.727  14.585  65.638  1.00  0.00     0.151 C 
BRANCH  16  18
HETATM   18  C9  UNL     1      43.685  15.069  67.034  1.00  0.00     0.144 C 
BRANCH  18  19
HETATM   19  C10 UNL     1      42.990  14.685  68.326  1.00  0.00     0.146 C 
BRANCH  19  20
HETATM   20  N3  UNL     1      43.613  13.534  68.876  1.00  0.00    -0.373 N 
BRANCH  20  21
HETATM   21  C11 UNL     1      43.331  12.353  68.189  1.00  0.00     0.058 C 
HETATM   22  C12 UNL     1      43.376  11.082  68.995  1.00  0.00     0.055 C 
ENDBRANCH  20  21
BRANCH  20  23
HETATM   23  C13 UNL     1      43.750  13.531  70.254  1.00  0.00     0.058 C 
HETATM   24  C14 UNL     1      44.503  14.735  70.803  1.00  0.00     0.055 C 
ENDBRANCH  20  23
ENDBRANCH  19  20
ENDBRANCH  18  19
ENDBRANCH  16  18
ENDBRANCH  13  16
ENDBRANCH   4  12
ENDBRANCH   1   4
BRANCH   1  25
HETATM   25  C15 UNL     1      39.169  18.254  67.635  1.00  0.00     0.078 A 
HETATM   26  C16 UNL     1      39.376  16.893  67.890  1.00  0.00     0.038 A 
HETATM   27  C17 UNL     1      38.400  16.148  68.456  1.00  0.00    -0.008 A 
HETATM   28  C18 UNL     1      37.198  16.688  68.798  1.00  0.00    -0.015 A 
HETATM   29  C32 UNL     1      38.342  14.716  68.786  1.00  0.00     0.022 A 
HETATM   30  C19 UNL     1      36.928  18.049  68.572  1.00  0.00     0.045 A 
HETATM   31  C24 UNL     1      36.344  15.661  69.364  1.00  0.00     0.082 A 
HETATM   32  C23 UNL     1      37.927  18.796  67.995  1.00  0.00     0.055 A 
HETATM   33  C25 UNL     1      37.132  14.394  69.314  1.00  0.00    -0.035 A 
HETATM   34  C26 UNL     1      36.931  13.091  69.653  1.00  0.00     0.024 A 
HETATM   35  C27 UNL     1      37.954  12.221  69.440  1.00  0.00    -0.009 A 
HETATM   36  S2  UNL     1      39.171  13.215  68.778  1.00  0.00    -0.093 SA
BRANCH  30  37
HETATM   37  N4  UNL     1      35.656  18.558  68.942  1.00  0.00    -0.322 N 
HETATM   38  C20 UNL     1      35.303  18.890  70.299  1.00  0.00     0.159 C 
HETATM   39  C21 UNL     1      34.699  18.753  67.924  1.00  0.00     0.220 C 
HETATM   40  C22 UNL     1      33.318  19.265  68.243  1.00  0.00     0.117 C 
HETATM   41  O6  UNL     1      34.967  18.507  66.731  1.00  0.00    -0.274 OA
ENDBRANCH  30  37
BRANCH  35  42
HETATM   42  C28 UNL     1      37.997  10.761  69.724  1.00  0.00    -0.018 C 
HETATM   43  C29 UNL     1      37.674  10.591  71.201  1.00  0.00     0.020 C 
HETATM   44  C30 UNL     1      36.927  10.063  68.930  1.00  0.00     0.020 C 
HETATM   45  C31 UNL     1      39.386  10.186  69.487  1.00  0.00     0.020 C 
ENDBRANCH  35  42
ENDBRANCH   1  25
TORSDOF 17
ENDMDL
MODEL 5
REMARK VINA RESULT: -6.544674872      2.054      5.888
REMARK  17 active torsions:
REMARK  status: ('A' for Active; 'I' for Inactive)
REMARK    1  A    between atoms: C2_2  and  O1_3 
REMARK    2  A    between atoms: O1_3  and  C3_4 
REMARK    3  A    between atoms: C3_4  and  C4_6 
REMARK    4  A    between atoms: C4_6  and  C5_7 
REMARK    5  A    between atoms: C5_7  and  N1_8 
REMARK    6  A    between atoms: N1_8  and  C6_9 
REMARK    7  A    between atoms: N1_8  and  S1_22 
REMARK    8  A    between atoms: C7_10  and  O3_11 
REMARK    9  A    between atoms: C7_10  and  N2_13 
REMARK   10  A    between atoms: N2_13  and  C9_15 
REMARK   11  A    between atoms: C9_15  and  C10_16 
REMARK   12  A    between atoms: C10_16  and  N3_17 
REMARK   13  A    between atoms: N3_17  and  C11_18 
REMARK   14  A    between atoms: N3_17  and  C13_20 
REMARK   15  A    between atoms: S1_22  and  C15_25 
REMARK   16  A    between atoms: C19_29  and  N4_30 
REMARK       I    between atoms: N4_30  and  C21_32 
REMARK   17  A    between atoms: C27_39  and  C28_40 
ROOT
HETATM    1  S1  UNL     1      40.217  18.458  66.021  1.00  0.00     0.247 S 
HETATM    2  O4  UNL     1      39.947  19.958  65.964  1.00  0.00    -0.205 OA
HETATM    3  O5  UNL     1      39.863  17.844  64.674  1.00  0.00    -0.205 OA
ENDROOT
BRANCH   1   4
HETATM    4  N1  UNL     1      41.880  18.228  66.415  1.00  0.00    -0.178 NA
BRANCH   4   5
HETATM    5  C5  UNL     1      42.396  19.348  67.131  1.00  0.00     0.122 C 
BRANCH   5   6
HETATM    6  C4  UNL     1      43.060  18.992  68.436  1.00  0.00     0.127 C 
BRANCH   6   7
HETATM    7  C3  UNL     1      42.078  19.277  69.541  1.00  0.00     0.259 C 
HETATM    8  O2  UNL     1      41.016  19.916  69.299  1.00  0.00    -0.265 OA
BRANCH   7   9
HETATM    9  O1  UNL     1      42.295  18.865  70.823  1.00  0.00    -0.322 OA
BRANCH   9  10
HETATM   10  C2  UNL     1      42.263  17.582  71.346  1.00  0.00     0.174 C 
HETATM   11  C1  UNL     1      40.976  16.893  70.958  1.00  0.00     0.034 C 
ENDBRANCH   9  10
ENDBRANCH   7   9
ENDBRANCH   6   7
ENDBRANCH   5   6
ENDBRANCH   4   5
BRANCH   4  12
HETATM   12  C6  UNL     1      42.580  17.648  65.366  1.00  0.00     0.132 C 
HETATM   13  C7  UNL     1      42.843  16.249  65.225  1.00  0.00     0.149 C 
BRANCH  13  14
HETATM   14  O3  UNL     1      43.438  15.949  64.074  1.00  0.00    -0.345 OA
ATOM     15  H3  UNL     1      44.313  15.597  64.191  1.00  0.00     0.219 HD
ENDBRANCH  13  14
BRANCH  13  16
HETATM   16  N2  UNL     1      42.628  15.112  66.007  1.00  0.00    -0.364 N 
HETATM   17  C8  UNL     1      41.606  14.130  65.705  1.00  0.00     0.151 C 
BRANCH  16  18
HETATM   18  C9  UNL     1      43.452  14.789  67.178  1.00  0.00     0.144 C 
BRANCH  18  19
HETATM   19  C10 UNL     1      43.071  13.458  67.796  1.00  0.00     0.146 C 
BRANCH  19  20
HETATM   20  N3  UNL     1      43.317  13.494  69.194  1.00  0.00    -0.373 N 
BRANCH  20  21
HETATM   21  C11 UNL     1      43.826  14.710  69.649  1.00  0.00     0.058 C 
HETATM   22  C12 UNL     1      44.565  14.678  70.960  1.00  0.00     0.055 C 
ENDBRANCH  20  21
BRANCH  20  23
HETATM   23  C13 UNL     1      43.737  12.300  69.757  1.00  0.00     0.058 C 
HETATM   24  C14 UNL     1      43.387  11.070  68.931  1.00  0.00     0.055 C 
ENDBRANCH  20  23
ENDBRANCH  19  20
ENDBRANCH  18  19
ENDBRANCH  16  18
ENDBRANCH  13  16
ENDBRANCH   4  12
ENDBRANCH   1   4
BRANCH   1  25
HETATM   25  C15 UNL     1      39.156  17.815  67.198  1.00  0.00     0.078 A 
HETATM   26  C16 UNL     1      39.283  16.474  67.579  1.00  0.00     0.038 A 
HETATM   27  C17 UNL     1      38.406  15.924  68.449  1.00  0.00    -0.008 A 
HETATM   28  C18 UNL     1      37.383  16.647  68.983  1.00  0.00    -0.015 A 
HETATM   29  C32 UNL     1      38.289  14.555  68.973  1.00  0.00     0.022 A 
HETATM   30  C19 UNL     1      37.203  18.000  68.645  1.00  0.00     0.045 A 
HETATM   31  C24 UNL     1      36.596  15.804  69.862  1.00  0.00     0.082 A 
HETATM   32  C23 UNL     1      38.099  18.547  67.759  1.00  0.00     0.055 A 
HETATM   33  C25 UNL     1      37.218  14.449  69.803  1.00  0.00    -0.035 A 
HETATM   34  C26 UNL     1      36.978  13.226  70.351  1.00  0.00     0.024 A 
HETATM   35  C27 UNL     1      37.827  12.214  70.027  1.00  0.00    -0.009 A 
HETATM   36  S2  UNL     1      38.938  12.968  68.975  1.00  0.00    -0.093 SA
BRANCH  30  37
HETATM   37  N4  UNL     1      36.116  18.704  69.226  1.00  0.00    -0.322 N 
HETATM   38  C20 UNL     1      34.798  18.741  68.643  1.00  0.00     0.159 C 
HETATM   39  C21 UNL     1      36.343  19.391  70.437  1.00  0.00     0.220 C 
HETATM   40  C22 UNL     1      35.244  20.182  71.100  1.00  0.00     0.117 C 
HETATM   41  O6  UNL     1      37.458  19.366  70.994  1.00  0.00    -0.274 OA
ENDBRANCH  30  37
BRANCH  35  42
HETATM   42  C28 UNL     1      37.794  10.800  70.486  1.00  0.00    -0.018 C 
HETATM   43  C29 UNL     1      36.522  10.634  71.305  1.00  0.00     0.020 C 
HETATM   44  C30 UNL     1      37.703   9.886  69.294  1.00  0.00     0.020 C 
HETATM   45  C31 UNL     1      38.971  10.478  71.396  1.00  0.00     0.020 C 
ENDBRANCH  35  42
ENDBRANCH   1  25
TORSDOF 17
ENDMDL
