MODEL 1
REMARK VINA RESULT: -6.780532612      0.000      0.000
REMARK  15 active torsions:
REMARK  status: ('A' for Active; 'I' for Inactive)
REMARK    1  A    between atoms: C2_2  and  O1_3 
REMARK    2  A    between atoms: O1_3  and  C3_4 
REMARK       I    between atoms: C3_4  and  N1_6 
REMARK    3  A    between atoms: N1_6  and  C4_7 
REMARK    4  A    between atoms: C8_11  and  C9_12 
REMARK    5  A    between atoms: C10_14  and  C11_15 
REMARK    6  A    between atoms: C11_15  and  C12_16 
REMARK    7  A    between atoms: C12_16  and  N2_17 
REMARK    8  A    between atoms: C15_20  and  C16_21 
REMARK    9  A    between atoms: C16_21  and  N3_22 
REMARK   10  A    between atoms: C18_26  and  N5_27 
REMARK   11  A    between atoms: C24_35  and  O6_36 
REMARK   12  A    between atoms: O6_36  and  C25_37 
REMARK   13  A    between atoms: C25_37  and  C26_38 
REMARK   14  A    between atoms: C26_38  and  N6_39 
REMARK   15  A    between atoms: C32_45  and  C33_46 
ROOT
HETATM    1  C9  UNL     1      37.419  11.398  69.581  1.00  0.00     0.155 C 
HETATM    2  O3  UNL     1      36.807  12.260  70.447  1.00  0.00    -0.378 OA
HETATM    3  C10 UNL     1      35.433  12.049  70.403  1.00  0.00     0.126 C 
HETATM    4  C23 UNL     1      35.175  11.677  68.976  1.00  0.00     0.066 C 
HETATM    5  C24 UNL     1      36.397  10.846  68.638  1.00  0.00     0.153 C 
ENDROOT
BRANCH   3   6
HETATM    6  C11 UNL     1      34.805  13.410  70.666  1.00  0.00     0.052 C 
BRANCH   6   7
HETATM    7  C12 UNL     1      35.485  14.149  71.766  1.00  0.00     0.130 C 
BRANCH   7   8
HETATM    8  N2  UNL     1      36.063  15.426  71.303  1.00  0.00    -0.366 N 
HETATM    9  C13 UNL     1      37.285  15.900  71.563  1.00  0.00     0.091 A 
HETATM   10  C14 UNL     1      37.430  17.120  70.948  1.00  0.00     0.027 A 
HETATM   11  C15 UNL     1      36.259  17.413  70.286  1.00  0.00    -0.013 A 
HETATM   12  C22 UNL     1      35.440  16.335  70.534  1.00  0.00     0.099 A 
BRANCH  11  13
HETATM   13  C16 UNL     1      35.968  18.626  69.490  1.00  0.00     0.316 C 
BRANCH  13  14
HETATM   14  N3  UNL     1      36.345  18.501  68.116  1.00  0.00     0.126 N 
HETATM   15  C17 UNL     1      35.366  18.971  67.185  1.00  0.00     0.398 C 
HETATM   16  N4  UNL     1      36.143  19.533  66.123  1.00  0.00    -0.347 N 
HETATM   17  C18 UNL     1      37.393  19.589  66.401  1.00  0.00     0.186 C 
ATOM     18  H4  UNL     1      35.744  19.855  65.241  1.00  0.00     0.162 HD
HETATM   19  C19 UNL     1      37.607  19.033  67.774  1.00  0.00     0.218 C 
HETATM   20  C20 UNL     1      38.732  18.054  67.690  1.00  0.00     0.058 C 
HETATM   21  C21 UNL     1      38.047  20.149  68.723  1.00  0.00     0.058 C 
BRANCH  17  22
HETATM   22  N5  UNL     1      38.446  20.092  65.568  1.00  0.00    -0.100 N 
HETATM   23  O4  UNL     1      38.757  19.565  64.482  1.00  0.00    -0.531 OA
HETATM   24  O5  UNL     1      39.142  21.201  65.980  1.00  0.00    -0.531 OA
ENDBRANCH  17  22
ENDBRANCH  13  14
ENDBRANCH  11  13
ENDBRANCH   7   8
ENDBRANCH   6   7
ENDBRANCH   3   6
BRANCH   1  25
HETATM   25  C8  UNL     1      38.559  12.138  68.878  1.00  0.00     0.019 C 
HETATM   26  C7  UNL     1      39.851  11.596  69.452  1.00  0.00     0.036 C 
HETATM   27  C6  UNL     1      41.051  11.788  68.601  1.00  0.00     0.251 C 
HETATM   28  N1  UNL     1      41.625  13.093  68.527  1.00  0.00     0.024 N 
HETATM   29  C3  UNL     1      41.789  13.408  67.138  1.00  0.00     0.459 C 
HETATM   30  C32 UNL     1      40.856  14.111  69.188  1.00  0.00     0.206 C 
HETATM   31  O2  UNL     1      41.765  12.502  66.235  1.00  0.00    -0.231 OA
HETATM   32  C31 UNL     1      39.585  14.337  68.425  1.00  0.00     0.035 C 
HETATM   33  C30 UNL     1      38.404  13.605  69.078  1.00  0.00     0.009 C 
BRANCH  28  34
HETATM   34  C4  UNL     1      42.986  12.989  69.055  1.00  0.00     0.246 C 
HETATM   35  C5  UNL     1      43.475  11.563  69.078  1.00  0.00     0.035 C 
ENDBRANCH  28  34
BRANCH  29  36
HETATM   36  O1  UNL     1      41.985  14.687  66.646  1.00  0.00    -0.299 OA
BRANCH  36  37
HETATM   37  C2  UNL     1      41.730  15.042  65.302  1.00  0.00     0.176 C 
HETATM   38  C1  UNL     1      40.518  15.913  65.167  1.00  0.00     0.034 C 
ENDBRANCH  36  37
ENDBRANCH  29  36
BRANCH  30  39
HETATM   39  C33 UNL     1      41.581  15.373  69.497  1.00  0.00     0.017 A 
HETATM   40  C34 UNL     1      41.557  15.700  71.002  1.00  0.00     0.007 A 
HETATM   41  C35 UNL     1      40.998  16.607  69.985  1.00  0.00     0.007 A 
ENDBRANCH  30  39
ENDBRANCH   1  25
BRANCH   5  42
HETATM   42  O6  UNL     1      36.200   9.502  68.930  1.00  0.00    -0.382 OA
BRANCH  42  43
HETATM   43  C25 UNL     1      35.541   8.803  67.934  1.00  0.00     0.196 C 
BRANCH  43  44
HETATM   44  C26 UNL     1      35.997   9.100  66.547  1.00  0.00     0.262 C 
BRANCH  44  45
HETATM   45  N6  UNL     1      36.410   7.907  65.877  1.00  0.00    -0.077 N 
HETATM   46  C27 UNL     1      37.813   7.602  65.968  1.00  0.00     0.271 C 
HETATM   47  C28 UNL     1      35.709   6.741  66.441  1.00  0.00     0.271 C 
HETATM   48  C29 UNL     1      36.066   7.913  64.458  1.00  0.00     0.271 C 
ENDBRANCH  44  45
ENDBRANCH  43  44
ENDBRANCH  42  43
ENDBRANCH   5  42
TORSDOF 15
ENDMDL
MODEL 2
REMARK VINA RESULT: -6.544242459      3.572      8.919
REMARK  15 active torsions:
REMARK  status: ('A' for Active; 'I' for Inactive)
REMARK    1  A    between atoms: C2_2  and  O1_3 
REMARK    2  A    between atoms: O1_3  and  C3_4 
REMARK       I    between atoms: C3_4  and  N1_6 
REMARK    3  A    between atoms: N1_6  and  C4_7 
REMARK    4  A    between atoms: C8_11  and  C9_12 
REMARK    5  A    between atoms: C10_14  and  C11_15 
REMARK    6  A    between atoms: C11_15  and  C12_16 
REMARK    7  A    between atoms: C12_16  and  N2_17 
REMARK    8  A    between atoms: C15_20  and  C16_21 
REMARK    9  A    between atoms: C16_21  and  N3_22 
REMARK   10  A    between atoms: C18_26  and  N5_27 
REMARK   11  A    between atoms: C24_35  and  O6_36 
REMARK   12  A    between atoms: O6_36  and  C25_37 
REMARK   13  A    between atoms: C25_37  and  C26_38 
REMARK   14  A    between atoms: C26_38  and  N6_39 
REMARK   15  A    between atoms: C32_45  and  C33_46 
ROOT
HETATM    1  C9  UNL     1      41.225  18.896  66.576  1.00  0.00     0.155 C 
HETATM    2  O3  UNL     1      42.156  18.142  65.919  1.00  0.00    -0.378 OA
HETATM    3  C10 UNL     1      41.598  17.656  64.741  1.00  0.00     0.126 C 
HETATM    4  C23 UNL     1      40.160  17.430  65.094  1.00  0.00     0.066 C 
HETATM    5  C24 UNL     1      39.871  18.600  66.013  1.00  0.00     0.153 C 
ENDROOT
BRANCH   3   6
HETATM    6  C11 UNL     1      42.254  16.303  64.508  1.00  0.00     0.052 C 
BRANCH   6   7
HETATM    7  C12 UNL     1      41.399  15.169  64.954  1.00  0.00     0.130 C 
BRANCH   7   8
HETATM    8  N2  UNL     1      42.019  14.403  66.052  1.00  0.00    -0.366 N 
HETATM    9  C13 UNL     1      42.977  14.820  66.887  1.00  0.00     0.091 A 
HETATM   10  C14 UNL     1      43.277  13.806  67.763  1.00  0.00     0.027 A 
HETATM   11  C15 UNL     1      42.480  12.724  67.463  1.00  0.00    -0.013 A 
HETATM   12  C22 UNL     1      41.717  13.140  66.396  1.00  0.00     0.099 A 
BRANCH  11  13
HETATM   13  C16 UNL     1      42.464  11.413  68.151  1.00  0.00     0.316 C 
BRANCH  13  14
HETATM   14  N3  UNL     1      41.713  11.425  69.367  1.00  0.00     0.126 N 
HETATM   15  C17 UNL     1      40.597  10.529  69.386  1.00  0.00     0.398 C 
HETATM   16  N4  UNL     1      40.546  10.072  70.740  1.00  0.00    -0.347 N 
HETATM   17  C18 UNL     1      41.557  10.454  71.430  1.00  0.00     0.186 C 
ATOM     18  H4  UNL     1      39.787   9.505  71.116  1.00  0.00     0.162 HD
HETATM   19  C19 UNL     1      42.461  11.263  70.554  1.00  0.00     0.218 C 
HETATM   20  C20 UNL     1      42.797  12.516  71.294  1.00  0.00     0.058 C 
HETATM   21  C21 UNL     1      43.770  10.508  70.320  1.00  0.00     0.058 C 
BRANCH  17  22
HETATM   22  N5  UNL     1      41.821  10.175  72.811  1.00  0.00    -0.100 N 
HETATM   23  O4  UNL     1      42.677   9.349  73.180  1.00  0.00    -0.531 OA
HETATM   24  O5  UNL     1      41.103  10.846  73.770  1.00  0.00    -0.531 OA
ENDBRANCH  17  22
ENDBRANCH  13  14
ENDBRANCH  11  13
ENDBRANCH   7   8
ENDBRANCH   6   7
ENDBRANCH   3   6
BRANCH   1  25
HETATM   25  C8  UNL     1      41.336  18.614  68.075  1.00  0.00     0.019 C 
HETATM   26  C7  UNL     1      42.495  17.654  68.254  1.00  0.00     0.036 C 
HETATM   27  C6  UNL     1      43.094  17.631  69.610  1.00  0.00     0.251 C 
HETATM   28  N1  UNL     1      42.378  16.970  70.654  1.00  0.00     0.024 N 
HETATM   29  C3  UNL     1      42.307  17.877  71.762  1.00  0.00     0.459 C 
HETATM   30  C32 UNL     1      41.064  16.530  70.277  1.00  0.00     0.206 C 
HETATM   31  O2  UNL     1      43.081  18.891  71.853  1.00  0.00    -0.231 OA
HETATM   32  C31 UNL     1      40.185  17.727  70.071  1.00  0.00     0.035 C 
HETATM   33  C30 UNL     1      40.047  18.069  68.581  1.00  0.00     0.009 C 
BRANCH  28  34
HETATM   34  C4  UNL     1      43.224  15.870  71.119  1.00  0.00     0.246 C 
HETATM   35  C5  UNL     1      44.573  15.871  70.444  1.00  0.00     0.035 C 
ENDBRANCH  28  34
BRANCH  29  36
HETATM   36  O1  UNL     1      41.416  17.753  72.815  1.00  0.00    -0.299 OA
BRANCH  36  37
HETATM   37  C2  UNL     1      41.831  17.590  74.157  1.00  0.00     0.176 C 
HETATM   38  C1  UNL     1      41.823  16.152  74.581  1.00  0.00     0.034 C 
ENDBRANCH  36  37
ENDBRANCH  29  36
BRANCH  30  39
HETATM   39  C33 UNL     1      40.447  15.501  71.158  1.00  0.00     0.017 A 
HETATM   40  C34 UNL     1      39.805  14.358  70.350  1.00  0.00     0.007 A 
HETATM   41  C35 UNL     1      39.034  15.202  71.278  1.00  0.00     0.007 A 
ENDBRANCH  30  39
ENDBRANCH   1  25
BRANCH   5  42
HETATM   42  O6  UNL     1      39.429  19.712  65.305  1.00  0.00    -0.382 OA
BRANCH  42  43
HETATM   43  C25 UNL     1      38.081  19.981  65.471  1.00  0.00     0.196 C 
BRANCH  43  44
HETATM   44  C26 UNL     1      37.577  19.839  66.866  1.00  0.00     0.262 C 
BRANCH  44  45
HETATM   45  N6  UNL     1      36.465  18.942  66.919  1.00  0.00    -0.077 N 
HETATM   46  C27 UNL     1      36.787  17.549  66.765  1.00  0.00     0.271 C 
HETATM   47  C28 UNL     1      35.785  19.054  68.220  1.00  0.00     0.271 C 
HETATM   48  C29 UNL     1      35.443  19.255  65.924  1.00  0.00     0.271 C 
ENDBRANCH  44  45
ENDBRANCH  43  44
ENDBRANCH  42  43
ENDBRANCH   5  42
TORSDOF 15
ENDMDL
MODEL 3
REMARK VINA RESULT: -6.403507109      2.368      7.782
REMARK  15 active torsions:
REMARK  status: ('A' for Active; 'I' for Inactive)
REMARK    1  A    between atoms: C2_2  and  O1_3 
REMARK    2  A    between atoms: O1_3  and  C3_4 
REMARK       I    between atoms: C3_4  and  N1_6 
REMARK    3  A    between atoms: N1_6  and  C4_7 
REMARK    4  A    between atoms: C8_11  and  C9_12 
REMARK    5  A    between atoms: C10_14  and  C11_15 
REMARK    6  A    between atoms: C11_15  and  C12_16 
REMARK    7  A    between atoms: C12_16  and  N2_17 
REMARK    8  A    between atoms: C15_20  and  C16_21 
REMARK    9  A    between atoms: C16_21  and  N3_22 
REMARK   10  A    between atoms: C18_26  and  N5_27 
REMARK   11  A    between atoms: C24_35  and  O6_36 
REMARK   12  A    between atoms: O6_36  and  C25_37 
REMARK   13  A    between atoms: C25_37  and  C26_38 
REMARK   14  A    between atoms: C26_38  and  N6_39 
REMARK   15  A    between atoms: C32_45  and  C33_46 
ROOT
HETATM    1  C9  UNL     1      37.887  15.136  69.099  1.00  0.00     0.155 C 
HETATM    2  O3  UNL     1      37.833  13.908  69.695  1.00  0.00    -0.378 OA
HETATM    3  C10 UNL     1      37.376  14.055  71.000  1.00  0.00     0.126 C 
HETATM    4  C23 UNL     1      37.935  15.377  71.427  1.00  0.00     0.066 C 
HETATM    5  C24 UNL     1      37.826  16.193  70.155  1.00  0.00     0.153 C 
ENDROOT
BRANCH   3   6
HETATM    6  C11 UNL     1      38.066  12.959  71.799  1.00  0.00     0.052 C 
BRANCH   6   7
HETATM    7  C12 UNL     1      38.921  12.085  70.948  1.00  0.00     0.130 C 
BRANCH   7   8
HETATM    8  N2  UNL     1      38.266  10.801  70.637  1.00  0.00    -0.366 N 
HETATM    9  C13 UNL     1      37.242  10.238  71.285  1.00  0.00     0.091 A 
HETATM   10  C14 UNL     1      36.932   9.045  70.680  1.00  0.00     0.027 A 
HETATM   11  C15 UNL     1      37.793   8.860  69.621  1.00  0.00    -0.013 A 
HETATM   12  C22 UNL     1      38.601   9.973  69.633  1.00  0.00     0.099 A 
BRANCH  11  13
HETATM   13  C16 UNL     1      37.822   7.710  68.689  1.00  0.00     0.316 C 
BRANCH  13  14
HETATM   14  N3  UNL     1      37.804   8.100  67.313  1.00  0.00     0.126 N 
HETATM   15  C17 UNL     1      38.822   7.495  66.511  1.00  0.00     0.398 C 
HETATM   16  N4  UNL     1      38.190   7.302  65.242  1.00  0.00    -0.347 N 
HETATM   17  C18 UNL     1      36.934   7.559  65.270  1.00  0.00     0.186 C 
ATOM     18  H4  UNL     1      38.685   6.992  64.406  1.00  0.00     0.162 HD
HETATM   19  C19 UNL     1      36.560   7.981  66.656  1.00  0.00     0.218 C 
HETATM   20  C20 UNL     1      35.756   9.235  66.541  1.00  0.00     0.058 C 
HETATM   21  C21 UNL     1      35.661   6.923  67.296  1.00  0.00     0.058 C 
BRANCH  17  22
HETATM   22  N5  UNL     1      36.005   7.471  64.182  1.00  0.00    -0.100 N 
HETATM   23  O4  UNL     1      35.706   8.448  63.470  1.00  0.00    -0.531 OA
HETATM   24  O5  UNL     1      35.419   6.260  63.911  1.00  0.00    -0.531 OA
ENDBRANCH  17  22
ENDBRANCH  13  14
ENDBRANCH  11  13
ENDBRANCH   7   8
ENDBRANCH   6   7
ENDBRANCH   3   6
BRANCH   1  25
HETATM   25  C8  UNL     1      39.150  15.207  68.238  1.00  0.00     0.019 C 
HETATM   26  C7  UNL     1      39.883  13.895  68.430  1.00  0.00     0.036 C 
HETATM   27  C6  UNL     1      40.836  13.540  67.350  1.00  0.00     0.251 C 
HETATM   28  N1  UNL     1      42.082  14.235  67.293  1.00  0.00     0.024 N 
HETATM   29  C3  UNL     1      42.245  14.705  65.949  1.00  0.00     0.459 C 
HETATM   30  C32 UNL     1      42.191  15.322  68.225  1.00  0.00     0.206 C 
HETATM   31  O2  UNL     1      41.562  14.226  64.980  1.00  0.00    -0.231 OA
HETATM   32  C31 UNL     1      41.257  16.419  67.811  1.00  0.00     0.035 C 
HETATM   33  C30 UNL     1      39.962  16.390  68.633  1.00  0.00     0.009 C 
BRANCH  28  34
HETATM   34  C4  UNL     1      43.135  13.234  67.474  1.00  0.00     0.246 C 
HETATM   35  C5  UNL     1      42.597  11.828  67.396  1.00  0.00     0.035 C 
ENDBRANCH  28  34
BRANCH  29  36
HETATM   36  O1  UNL     1      43.133  15.699  65.573  1.00  0.00    -0.299 OA
BRANCH  36  37
HETATM   37  C2  UNL     1      42.921  16.538  64.454  1.00  0.00     0.176 C 
HETATM   38  C1  UNL     1      42.808  17.981  64.842  1.00  0.00     0.034 C 
ENDBRANCH  36  37
ENDBRANCH  29  36
BRANCH  30  39
HETATM   39  C33 UNL     1      43.572  15.806  68.498  1.00  0.00     0.017 A 
HETATM   40  C34 UNL     1      43.886  15.838  70.005  1.00  0.00     0.007 A 
HETATM   41  C35 UNL     1      43.939  17.042  69.159  1.00  0.00     0.007 A 
ENDBRANCH  30  39
ENDBRANCH   1  25
BRANCH   5  42
HETATM   42  O6  UNL     1      36.601  16.844  70.066  1.00  0.00    -0.382 OA
BRANCH  42  43
HETATM   43  C25 UNL     1      36.682  18.121  69.539  1.00  0.00     0.196 C 
BRANCH  43  44
HETATM   44  C26 UNL     1      35.684  18.430  68.477  1.00  0.00     0.262 C 
BRANCH  44  45
HETATM   45  N6  UNL     1      36.330  18.717  67.234  1.00  0.00    -0.077 N 
HETATM   46  C27 UNL     1      36.999  17.606  66.615  1.00  0.00     0.271 C 
HETATM   47  C28 UNL     1      35.345  19.193  66.249  1.00  0.00     0.271 C 
HETATM   48  C29 UNL     1      37.309  19.794  67.349  1.00  0.00     0.271 C 
ENDBRANCH  44  45
ENDBRANCH  43  44
ENDBRANCH  42  43
ENDBRANCH   5  42
TORSDOF 15
ENDMDL
MODEL 4
REMARK VINA RESULT: -6.386010508      4.164      6.067
REMARK  15 active torsions:
REMARK  status: ('A' for Active; 'I' for Inactive)
REMARK    1  A    between atoms: C2_2  and  O1_3 
REMARK    2  A    between atoms: O1_3  and  C3_4 
REMARK       I    between atoms: C3_4  and  N1_6 
REMARK    3  A    between atoms: N1_6  and  C4_7 
REMARK    4  A    between atoms: C8_11  and  C9_12 
REMARK    5  A    between atoms: C10_14  and  C11_15 
REMARK    6  A    between atoms: C11_15  and  C12_16 
REMARK    7  A    between atoms: C12_16  and  N2_17 
REMARK    8  A    between atoms: C15_20  and  C16_21 
REMARK    9  A    between atoms: C16_21  and  N3_22 
REMARK   10  A    between atoms: C18_26  and  N5_27 
REMARK   11  A    between atoms: C24_35  and  O6_36 
REMARK   12  A    between atoms: O6_36  and  C25_37 
REMARK   13  A    between atoms: C25_37  and  C26_38 
REMARK   14  A    between atoms: C26_38  and  N6_39 
REMARK   15  A    between atoms: C32_45  and  C33_46 
ROOT
HETATM    1  C9  UNL     1      43.729  16.173  71.863  1.00  0.00     0.155 C 
HETATM    2  O3  UNL     1      43.257  17.229  72.591  1.00  0.00    -0.378 OA
HETATM    3  C10 UNL     1      42.553  16.746  73.689  1.00  0.00     0.126 C 
HETATM    4  C23 UNL     1      41.921  15.487  73.183  1.00  0.00     0.066 C 
HETATM    5  C24 UNL     1      42.999  14.933  72.273  1.00  0.00     0.153 C 
ENDROOT
BRANCH   3   6
HETATM    6  C11 UNL     1      41.455  17.766  73.949  1.00  0.00     0.052 C 
BRANCH   6   7
HETATM    7  C12 UNL     1      40.246  17.158  74.570  1.00  0.00     0.130 C 
BRANCH   7   8
HETATM    8  N2  UNL     1      39.010  17.515  73.848  1.00  0.00    -0.366 N 
HETATM    9  C13 UNL     1      38.119  18.451  74.187  1.00  0.00     0.091 A 
HETATM   10  C14 UNL     1      37.113  18.468  73.252  1.00  0.00     0.027 A 
HETATM   11  C15 UNL     1      37.388  17.510  72.302  1.00  0.00    -0.013 A 
HETATM   12  C22 UNL     1      38.574  16.945  72.712  1.00  0.00     0.099 A 
BRANCH  11  13
HETATM   13  C16 UNL     1      36.574  17.180  71.111  1.00  0.00     0.316 C 
BRANCH  13  14
HETATM   14  N3  UNL     1      37.237  17.469  69.877  1.00  0.00     0.126 N 
HETATM   15  C17 UNL     1      37.615  16.315  69.121  1.00  0.00     0.398 C 
HETATM   16  N4  UNL     1      37.444  16.724  67.761  1.00  0.00    -0.347 N 
HETATM   17  C18 UNL     1      36.877  17.870  67.657  1.00  0.00     0.186 C 
ATOM     18  H4  UNL     1      37.740  16.165  66.961  1.00  0.00     0.162 HD
HETATM   19  C19 UNL     1      36.585  18.390  69.029  1.00  0.00     0.218 C 
HETATM   20  C20 UNL     1      37.078  19.799  69.088  1.00  0.00     0.058 C 
HETATM   21  C21 UNL     1      35.074  18.427  69.260  1.00  0.00     0.058 C 
BRANCH  17  22
HETATM   22  N5  UNL     1      36.556  18.573  66.449  1.00  0.00    -0.100 N 
HETATM   23  O4  UNL     1      35.448  18.475  65.887  1.00  0.00    -0.531 OA
HETATM   24  O5  UNL     1      37.505  19.389  65.888  1.00  0.00    -0.531 OA
ENDBRANCH  17  22
ENDBRANCH  13  14
ENDBRANCH  11  13
ENDBRANCH   7   8
ENDBRANCH   6   7
ENDBRANCH   3   6
BRANCH   1  25
HETATM   25  C8  UNL     1      43.585  16.500  70.376  1.00  0.00     0.019 C 
HETATM   26  C7  UNL     1      42.319  17.320  70.230  1.00  0.00     0.036 C 
HETATM   27  C6  UNL     1      42.241  18.151  69.004  1.00  0.00     0.251 C 
HETATM   28  N1  UNL     1      41.970  17.500  67.763  1.00  0.00     0.024 N 
HETATM   29  C3  UNL     1      42.961  17.941  66.825  1.00  0.00     0.459 C 
HETATM   30  C32 UNL     1      41.954  16.066  67.843  1.00  0.00     0.206 C 
HETATM   31  O2  UNL     1      43.663  18.990  67.031  1.00  0.00    -0.231 OA
HETATM   32  C31 UNL     1      43.347  15.574  68.101  1.00  0.00     0.035 C 
HETATM   33  C30 UNL     1      43.556  15.241  69.585  1.00  0.00     0.009 C 
BRANCH  28  34
HETATM   34  C4  UNL     1      40.707  18.047  67.264  1.00  0.00     0.246 C 
HETATM   35  C5  UNL     1      40.409  19.404  67.850  1.00  0.00     0.035 C 
ENDBRANCH  28  34
BRANCH  29  36
HETATM   36  O1  UNL     1      43.251  17.294  65.635  1.00  0.00    -0.299 OA
BRANCH  36  37
HETATM   37  C2  UNL     1      42.948  17.843  64.368  1.00  0.00     0.176 C 
HETATM   38  C1  UNL     1      41.641  17.342  63.833  1.00  0.00     0.034 C 
ENDBRANCH  36  37
ENDBRANCH  29  36
BRANCH  30  39
HETATM   39  C33 UNL     1      41.287  15.361  66.715  1.00  0.00     0.017 A 
HETATM   40  C34 UNL     1      40.276  14.309  67.207  1.00  0.00     0.007 A 
HETATM   41  C35 UNL     1      41.432  13.962  66.364  1.00  0.00     0.007 A 
ENDBRANCH  30  39
ENDBRANCH   1  25
BRANCH   5  42
HETATM   42  O6  UNL     1      43.877  14.106  72.964  1.00  0.00    -0.382 OA
BRANCH  42  43
HETATM   43  C25 UNL     1      43.637  12.755  72.778  1.00  0.00     0.196 C 
BRANCH  43  44
HETATM   44  C26 UNL     1      44.221  12.176  71.535  1.00  0.00     0.262 C 
BRANCH  44  45
HETATM   45  N6  UNL     1      43.301  11.280  70.906  1.00  0.00    -0.077 N 
HETATM   46  C27 UNL     1      41.940  11.738  70.842  1.00  0.00     0.271 C 
HETATM   47  C28 UNL     1      43.707  11.033  69.513  1.00  0.00     0.271 C 
HETATM   48  C29 UNL     1      43.279   9.965  71.539  1.00  0.00     0.271 C 
ENDBRANCH  44  45
ENDBRANCH  43  44
ENDBRANCH  42  43
ENDBRANCH   5  42
TORSDOF 15
ENDMDL
MODEL 5
REMARK VINA RESULT: -6.371841721      2.382      8.111
REMARK  15 active torsions:
REMARK  status: ('A' for Active; 'I' for Inactive)
REMARK    1  A    between atoms: C2_2  and  O1_3 
REMARK    2  A    between atoms: O1_3  and  C3_4 
REMARK       I    between atoms: C3_4  and  N1_6 
REMARK    3  A    between atoms: N1_6  and  C4_7 
REMARK    4  A    between atoms: C8_11  and  C9_12 
REMARK    5  A    between atoms: C10_14  and  C11_15 
REMARK    6  A    between atoms: C11_15  and  C12_16 
REMARK    7  A    between atoms: C12_16  and  N2_17 
REMARK    8  A    between atoms: C15_20  and  C16_21 
REMARK    9  A    between atoms: C16_21  and  N3_22 
REMARK   10  A    between atoms: C18_26  and  N5_27 
REMARK   11  A    between atoms: C24_35  and  O6_36 
REMARK   12  A    between atoms: O6_36  and  C25_37 
REMARK   13  A    between atoms: C25_37  and  C26_38 
REMARK   14  A    between atoms: C26_38  and  N6_39 
REMARK   15  A    between atoms: C32_45  and  C33_46 
ROOT
HETATM    1  C9  UNL     1      38.186  15.189  68.867  1.00  0.00     0.155 C 
HETATM    2  O3  UNL     1      37.685  14.052  69.436  1.00  0.00    -0.378 OA
HETATM    3  C10 UNL     1      36.501  14.359  70.098  1.00  0.00     0.126 C 
HETATM    4  C23 UNL     1      36.728  15.747  70.612  1.00  0.00     0.066 C 
HETATM    5  C24 UNL     1      37.519  16.378  69.482  1.00  0.00     0.153 C 
ENDROOT
BRANCH   3   6
HETATM    6  C11 UNL     1      36.442  13.410  71.286  1.00  0.00     0.052 C 
BRANCH   6   7
HETATM    7  C12 UNL     1      35.742  12.136  70.964  1.00  0.00     0.130 C 
BRANCH   7   8
HETATM    8  N2  UNL     1      36.680  11.074  70.553  1.00  0.00    -0.366 N 
HETATM    9  C13 UNL     1      37.963  10.948  70.908  1.00  0.00     0.091 A 
HETATM   10  C14 UNL     1      38.482   9.826  70.310  1.00  0.00     0.027 A 
HETATM   11  C15 UNL     1      37.490   9.236  69.559  1.00  0.00    -0.013 A 
HETATM   12  C22 UNL     1      36.391  10.044  69.740  1.00  0.00     0.099 A 
BRANCH  11  13
HETATM   13  C16 UNL     1      37.605   8.004  68.746  1.00  0.00     0.316 C 
BRANCH  13  14
HETATM   14  N3  UNL     1      37.655   8.261  67.340  1.00  0.00     0.126 N 
HETATM   15  C17 UNL     1      38.710   7.585  66.650  1.00  0.00     0.398 C 
HETATM   16  N4  UNL     1      38.140   7.269  65.376  1.00  0.00    -0.347 N 
HETATM   17  C18 UNL     1      36.885   7.525  65.318  1.00  0.00     0.186 C 
ATOM     18  H4  UNL     1      38.675   6.883  64.598  1.00  0.00     0.162 HD
HETATM   19  C19 UNL     1      36.444   8.076  66.638  1.00  0.00     0.218 C 
HETATM   20  C20 UNL     1      35.649   9.310  66.363  1.00  0.00     0.058 C 
HETATM   21  C21 UNL     1      35.513   7.081  67.331  1.00  0.00     0.058 C 
BRANCH  17  22
HETATM   22  N5  UNL     1      36.010   7.329  64.200  1.00  0.00    -0.100 N 
HETATM   23  O4  UNL     1      35.687   8.252  63.427  1.00  0.00    -0.531 OA
HETATM   24  O5  UNL     1      35.506   6.074  63.966  1.00  0.00    -0.531 OA
ENDBRANCH  17  22
ENDBRANCH  13  14
ENDBRANCH  11  13
ENDBRANCH   7   8
ENDBRANCH   6   7
ENDBRANCH   3   6
BRANCH   1  25
HETATM   25  C8  UNL     1      39.706  15.190  69.032  1.00  0.00     0.019 C 
HETATM   26  C7  UNL     1      40.294  15.496  67.670  1.00  0.00     0.036 C 
HETATM   27  C6  UNL     1      41.678  16.030  67.683  1.00  0.00     0.251 C 
HETATM   28  N1  UNL     1      42.749  15.124  67.948  1.00  0.00     0.024 N 
HETATM   29  C3  UNL     1      43.554  15.707  68.981  1.00  0.00     0.459 C 
HETATM   30  C32 UNL     1      42.322  13.805  68.325  1.00  0.00     0.206 C 
HETATM   31  O2  UNL     1      43.480  16.950  69.271  1.00  0.00    -0.231 OA
HETATM   32  C31 UNL     1      41.685  13.864  69.680  1.00  0.00     0.035 C 
HETATM   33  C30 UNL     1      40.154  13.879  69.577  1.00  0.00     0.009 C 
BRANCH  28  34
HETATM   34  C4  UNL     1      43.604  15.118  66.760  1.00  0.00     0.246 C 
HETATM   35  C5  UNL     1      42.994  15.896  65.622  1.00  0.00     0.035 C 
ENDBRANCH  28  34
BRANCH  29  36
HETATM   36  O1  UNL     1      44.468  15.004  69.748  1.00  0.00    -0.299 OA
BRANCH  36  37
HETATM   37  C2  UNL     1      44.675  15.259  71.123  1.00  0.00     0.176 C 
HETATM   38  C1  UNL     1      44.790  13.996  71.922  1.00  0.00     0.034 C 
ENDBRANCH  36  37
ENDBRANCH  29  36
BRANCH  30  39
HETATM   39  C33 UNL     1      43.351  12.734  68.212  1.00  0.00     0.017 A 
HETATM   40  C34 UNL     1      42.824  11.506  67.445  1.00  0.00     0.007 A 
HETATM   41  C35 UNL     1      43.307  11.426  68.834  1.00  0.00     0.007 A 
ENDBRANCH  30  39
ENDBRANCH   1  25
BRANCH   5  42
HETATM   42  O6  UNL     1      36.685  16.962  68.536  1.00  0.00    -0.382 OA
BRANCH  42  43
HETATM   43  C25 UNL     1      37.151  18.172  68.050  1.00  0.00     0.196 C 
BRANCH  43  44
HETATM   44  C26 UNL     1      37.768  18.111  66.696  1.00  0.00     0.262 C 
BRANCH  44  45
HETATM   45  N6  UNL     1      38.909  18.969  66.615  1.00  0.00    -0.077 N 
HETATM   46  C27 UNL     1      39.911  18.575  65.661  1.00  0.00     0.271 C 
HETATM   47  C28 UNL     1      38.496  20.327  66.225  1.00  0.00     0.271 C 
HETATM   48  C29 UNL     1      39.584  19.126  67.900  1.00  0.00     0.271 C 
ENDBRANCH  44  45
ENDBRANCH  43  44
ENDBRANCH  42  43
ENDBRANCH   5  42
TORSDOF 15
ENDMDL
