MODEL 1
REMARK VINA RESULT: -6.115695150      0.000      0.000
REMARK  9 active torsions:
REMARK  status: ('A' for Active; 'I' for Inactive)
REMARK    1  A    between atoms: C2_2  and  C3_3 
REMARK    2  A    between atoms: C11_11  and  C12_12 
REMARK    3  A    between atoms: C12_12  and  C13_13 
REMARK    4  A    between atoms: N1_18  and  C17_19 
REMARK    5  A    between atoms: C17_19  and  C18_20 
REMARK    6  A    between atoms: C18_20  and  C19_21 
REMARK    7  A    between atoms: C19_21  and  N2_22 
REMARK    8  A    between atoms: N2_22  and  C20_25 
REMARK    9  A    between atoms: C20_25  and  C21_26 
ROOT
HETATM    1  C13 UNL     1      48.101  15.132   3.954  1.00  0.00     0.101 A 
HETATM    2  C14 UNL     1      46.671  15.509   3.846  1.00  0.00    -0.007 A 
HETATM    3  C15 UNL     1      46.205  16.741   3.808  1.00  0.00     0.071 A 
HETATM    4  C16 UNL     1      47.077  17.911   3.871  1.00  0.00     0.249 A 
HETATM    5  O1  UNL     1      46.613  19.077   3.832  1.00  0.00    -0.268 OA
HETATM    6  N1  UNL     1      48.470  17.686   3.981  1.00  0.00    -0.284 N 
HETATM    7  C22 UNL     1      48.960  16.385   4.026  1.00  0.00     0.234 A 
HETATM    8  O2  UNL     1      50.202  16.154   4.135  1.00  0.00    -0.272 OA
ENDROOT
BRANCH   1   9
HETATM    9  C12 UNL     1      48.579  14.297   2.833  1.00  0.00     0.024 C 
BRANCH   9  10
HETATM   10  C11 UNL     1      47.647  13.709   1.858  1.00  0.00     0.002 C 
HETATM   11  C3  UNL     1      47.481  12.260   1.725  1.00  0.00    -0.023 C 
HETATM   12  C4  UNL     1      47.354  11.426   2.945  1.00  0.00     0.020 C 
HETATM   13  C5  UNL     1      48.566  11.589   0.887  1.00  0.00     0.014 C 
HETATM   14  C6  UNL     1      48.774  12.258  -0.446  1.00  0.00     0.005 C 
HETATM   15  C7  UNL     1      49.144  13.696  -0.157  1.00  0.00    -0.014 C 
HETATM   16  C8  UNL     1      49.586  14.438  -1.377  1.00  0.00     0.010 C 
HETATM   17  C9  UNL     1      47.985  14.357   0.501  1.00  0.00    -0.010 C 
HETATM   18  C10 UNL     1      46.794  14.598  -0.354  1.00  0.00     0.011 C 
BRANCH  11  19
HETATM   19  C2  UNL     1      46.200  12.024   0.953  1.00  0.00    -0.027 C 
HETATM   20  C1  UNL     1      45.668  10.819   0.969  1.00  0.00     0.007 C 
ENDBRANCH  11  19
ENDBRANCH   9  10
ENDBRANCH   1   9
BRANCH   6  21
HETATM   21  C17 UNL     1      49.336  18.840   4.032  1.00  0.00     0.137 C 
BRANCH  21  22
HETATM   22  C18 UNL     1      49.880  19.253   2.685  1.00  0.00     0.048 C 
BRANCH  22  23
HETATM   23  C19 UNL     1      49.315  20.614   2.374  1.00  0.00     0.234 C 
BRANCH  23  24
HETATM   24  N2  UNL     1      48.171  20.543   1.496  1.00  0.00    -0.074 N 
ATOM     25  H22 UNL     1      47.293  20.502   2.014  1.00  0.00     0.277 HD
ATOM     26  H21 UNL     1      48.012  21.423   1.003  1.00  0.00     0.277 HD
BRANCH  24  27
HETATM   27  C20 UNL     1      48.315  19.434   0.586  1.00  0.00     0.243 C 
BRANCH  27  28
HETATM   28  C21 UNL     1      46.911  18.875   0.327  1.00  0.00     0.113 C 
HETATM   29  S1  UNL     1      45.719  20.256   0.453  1.00  0.00    -0.096 SA
ENDBRANCH  27  28
ENDBRANCH  24  27
ENDBRANCH  23  24
ENDBRANCH  22  23
ENDBRANCH  21  22
ENDBRANCH   6  21
TORSDOF 9
ENDMDL
MODEL 2
REMARK VINA RESULT: -6.073685434      2.695      3.107
REMARK  9 active torsions:
REMARK  status: ('A' for Active; 'I' for Inactive)
REMARK    1  A    between atoms: C2_2  and  C3_3 
REMARK    2  A    between atoms: C11_11  and  C12_12 
REMARK    3  A    between atoms: C12_12  and  C13_13 
REMARK    4  A    between atoms: N1_18  and  C17_19 
REMARK    5  A    between atoms: C17_19  and  C18_20 
REMARK    6  A    between atoms: C18_20  and  C19_21 
REMARK    7  A    between atoms: C19_21  and  N2_22 
REMARK    8  A    between atoms: N2_22  and  C20_25 
REMARK    9  A    between atoms: C20_25  and  C21_26 
ROOT
HETATM    1  C13 UNL     1      47.660  15.794   4.301  1.00  0.00     0.101 A 
HETATM    2  C14 UNL     1      46.441  16.485   3.815  1.00  0.00    -0.007 A 
HETATM    3  C15 UNL     1      46.407  17.683   3.268  1.00  0.00     0.071 A 
HETATM    4  C16 UNL     1      47.608  18.492   3.075  1.00  0.00     0.249 A 
HETATM    5  O1  UNL     1      47.554  19.631   2.549  1.00  0.00    -0.268 OA
HETATM    6  N1  UNL     1      48.842  17.945   3.503  1.00  0.00    -0.284 N 
HETATM    7  C22 UNL     1      48.875  16.683   4.085  1.00  0.00     0.234 A 
HETATM    8  O2  UNL     1      49.966  16.174   4.488  1.00  0.00    -0.272 OA
ENDROOT
BRANCH   1   9
HETATM    9  C12 UNL     1      47.905  14.493   3.645  1.00  0.00     0.024 C 
BRANCH   9  10
HETATM   10  C11 UNL     1      47.597  14.278   2.222  1.00  0.00     0.002 C 
HETATM   11  C3  UNL     1      47.162  12.974   1.716  1.00  0.00    -0.023 C 
HETATM   12  C4  UNL     1      46.135  12.207   2.463  1.00  0.00     0.020 C 
HETATM   13  C5  UNL     1      48.306  11.992   1.477  1.00  0.00     0.014 C 
HETATM   14  C6  UNL     1      49.417  12.579   0.646  1.00  0.00     0.005 C 
HETATM   15  C7  UNL     1      49.916  13.799   1.387  1.00  0.00    -0.014 C 
HETATM   16  C8  UNL     1      51.160  14.372   0.791  1.00  0.00     0.010 C 
HETATM   17  C9  UNL     1      48.816  14.801   1.438  1.00  0.00    -0.010 C 
HETATM   18  C10 UNL     1      48.459  15.449   0.150  1.00  0.00     0.011 C 
BRANCH  11  19
HETATM   19  C2  UNL     1      46.561  13.203   0.345  1.00  0.00    -0.027 C 
HETATM   20  C1  UNL     1      45.905  12.215  -0.228  1.00  0.00     0.007 C 
ENDBRANCH  11  19
ENDBRANCH   9  10
ENDBRANCH   1   9
BRANCH   6  21
HETATM   21  C17 UNL     1      50.033  18.737   3.303  1.00  0.00     0.137 C 
BRANCH  21  22
HETATM   22  C18 UNL     1      50.767  18.420   2.022  1.00  0.00     0.048 C 
BRANCH  22  23
HETATM   23  C19 UNL     1      51.715  19.561   1.759  1.00  0.00     0.234 C 
BRANCH  23  24
HETATM   24  N2  UNL     1      52.428  19.965   2.948  1.00  0.00    -0.074 N 
ATOM     25  H22 UNL     1      52.312  20.959   3.144  1.00  0.00     0.277 HD
ATOM     26  H21 UNL     1      51.997  19.595   3.796  1.00  0.00     0.277 HD
BRANCH  24  27
HETATM   27  C20 UNL     1      53.817  19.594   2.841  1.00  0.00     0.243 C 
BRANCH  27  28
HETATM   28  C21 UNL     1      54.161  19.549   1.348  1.00  0.00     0.113 C 
HETATM   29  S1  UNL     1      55.834  18.831   1.173  1.00  0.00    -0.096 SA
ENDBRANCH  27  28
ENDBRANCH  24  27
ENDBRANCH  23  24
ENDBRANCH  22  23
ENDBRANCH  21  22
ENDBRANCH   6  21
TORSDOF 9
ENDMDL
MODEL 3
REMARK VINA RESULT: -5.998288629      2.699      3.277
REMARK  9 active torsions:
REMARK  status: ('A' for Active; 'I' for Inactive)
REMARK    1  A    between atoms: C2_2  and  C3_3 
REMARK    2  A    between atoms: C11_11  and  C12_12 
REMARK    3  A    between atoms: C12_12  and  C13_13 
REMARK    4  A    between atoms: N1_18  and  C17_19 
REMARK    5  A    between atoms: C17_19  and  C18_20 
REMARK    6  A    between atoms: C18_20  and  C19_21 
REMARK    7  A    between atoms: C19_21  and  N2_22 
REMARK    8  A    between atoms: N2_22  and  C20_25 
REMARK    9  A    between atoms: C20_25  and  C21_26 
ROOT
HETATM    1  C13 UNL     1      48.237  16.812   4.047  1.00  0.00     0.101 A 
HETATM    2  C14 UNL     1      46.802  17.122   3.839  1.00  0.00    -0.007 A 
HETATM    3  C15 UNL     1      46.331  18.194   3.236  1.00  0.00     0.071 A 
HETATM    4  C16 UNL     1      47.200  19.232   2.689  1.00  0.00     0.249 A 
HETATM    5  O1  UNL     1      46.731  20.246   2.116  1.00  0.00    -0.268 OA
HETATM    6  N1  UNL     1      48.598  19.057   2.827  1.00  0.00    -0.284 N 
HETATM    7  C22 UNL     1      49.094  17.927   3.468  1.00  0.00     0.234 A 
HETATM    8  O2  UNL     1      50.342  17.750   3.616  1.00  0.00    -0.272 OA
ENDROOT
BRANCH   1   9
HETATM    9  C12 UNL     1      48.660  15.531   3.444  1.00  0.00     0.024 C 
BRANCH   9  10
HETATM   10  C11 UNL     1      48.182  15.110   2.117  1.00  0.00     0.002 C 
HETATM   11  C3  UNL     1      47.371  13.903   1.937  1.00  0.00    -0.023 C 
HETATM   12  C4  UNL     1      46.246  13.635   2.866  1.00  0.00     0.020 C 
HETATM   13  C5  UNL     1      48.185  12.612   1.902  1.00  0.00     0.014 C 
HETATM   14  C6  UNL     1      49.335  12.672   0.932  1.00  0.00     0.005 C 
HETATM   15  C7  UNL     1      50.205  13.832   1.358  1.00  0.00    -0.014 C 
HETATM   16  C8  UNL     1      51.500  13.891   0.616  1.00  0.00     0.010 C 
HETATM   17  C9  UNL     1      49.423  15.088   1.203  1.00  0.00    -0.010 C 
HETATM   18  C10 UNL     1      49.140  15.518  -0.190  1.00  0.00     0.011 C 
BRANCH  11  19
HETATM   19  C2  UNL     1      46.735  13.992   0.565  1.00  0.00    -0.027 C 
HETATM   20  C1  UNL     1      45.581  14.614   0.446  1.00  0.00     0.007 C 
ENDBRANCH  11  19
ENDBRANCH   9  10
ENDBRANCH   1   9
BRANCH   6  21
HETATM   21  C17 UNL     1      49.461  20.075   2.277  1.00  0.00     0.137 C 
BRANCH  21  22
HETATM   22  C18 UNL     1      50.085  19.696   0.955  1.00  0.00     0.048 C 
BRANCH  22  23
HETATM   23  C19 UNL     1      51.574  19.873   1.098  1.00  0.00     0.234 C 
BRANCH  23  24
HETATM   24  N2  UNL     1      51.968  20.096   2.469  1.00  0.00    -0.074 N 
ATOM     25  H22 UNL     1      51.954  21.086   2.715  1.00  0.00     0.277 HD
ATOM     26  H21 UNL     1      51.261  19.769   3.128  1.00  0.00     0.277 HD
BRANCH  24  27
HETATM   27  C20 UNL     1      53.255  19.497   2.717  1.00  0.00     0.243 C 
BRANCH  27  28
HETATM   28  C21 UNL     1      53.839  19.096   1.357  1.00  0.00     0.113 C 
HETATM   29  S1  UNL     1      55.623  19.496   1.366  1.00  0.00    -0.096 SA
ENDBRANCH  27  28
ENDBRANCH  24  27
ENDBRANCH  23  24
ENDBRANCH  22  23
ENDBRANCH  21  22
ENDBRANCH   6  21
TORSDOF 9
ENDMDL
MODEL 4
REMARK VINA RESULT: -5.955748113      2.880      4.922
REMARK  9 active torsions:
REMARK  status: ('A' for Active; 'I' for Inactive)
REMARK    1  A    between atoms: C2_2  and  C3_3 
REMARK    2  A    between atoms: C11_11  and  C12_12 
REMARK    3  A    between atoms: C12_12  and  C13_13 
REMARK    4  A    between atoms: N1_18  and  C17_19 
REMARK    5  A    between atoms: C17_19  and  C18_20 
REMARK    6  A    between atoms: C18_20  and  C19_21 
REMARK    7  A    between atoms: C19_21  and  N2_22 
REMARK    8  A    between atoms: N2_22  and  C20_25 
REMARK    9  A    between atoms: C20_25  and  C21_26 
ROOT
HETATM    1  C13 UNL     1      46.900  18.189   0.396  1.00  0.00     0.101 A 
HETATM    2  C14 UNL     1      47.857  17.596  -0.570  1.00  0.00    -0.007 A 
HETATM    3  C15 UNL     1      49.114  17.961  -0.724  1.00  0.00     0.071 A 
HETATM    4  C16 UNL     1      49.723  19.028   0.066  1.00  0.00     0.249 A 
HETATM    5  O1  UNL     1      50.923  19.360  -0.096  1.00  0.00    -0.268 OA
HETATM    6  N1  UNL     1      48.910  19.681   1.023  1.00  0.00    -0.284 N 
HETATM    7  C22 UNL     1      47.583  19.298   1.181  1.00  0.00     0.234 A 
HETATM    8  O2  UNL     1      46.829  19.874   2.024  1.00  0.00    -0.272 OA
ENDROOT
BRANCH   1   9
HETATM    9  C12 UNL     1      46.340  17.211   1.351  1.00  0.00     0.024 C 
BRANCH   9  10
HETATM   10  C11 UNL     1      47.149  16.103   1.883  1.00  0.00     0.002 C 
HETATM   11  C3  UNL     1      46.538  14.860   2.358  1.00  0.00    -0.023 C 
HETATM   12  C4  UNL     1      45.471  14.218   1.551  1.00  0.00     0.020 C 
HETATM   13  C5  UNL     1      45.977  14.950   3.775  1.00  0.00     0.014 C 
HETATM   14  C6  UNL     1      46.968  15.506   4.762  1.00  0.00     0.005 C 
HETATM   15  C7  UNL     1      47.358  16.878   4.262  1.00  0.00    -0.014 C 
HETATM   16  C8  UNL     1      48.179  17.644   5.247  1.00  0.00     0.010 C 
HETATM   17  C9  UNL     1      48.062  16.722   2.960  1.00  0.00    -0.010 C 
HETATM   18  C10 UNL     1      49.414  16.109   3.014  1.00  0.00     0.011 C 
BRANCH  11  19
HETATM   19  C2  UNL     1      47.640  13.825   2.447  1.00  0.00    -0.027 C 
HETATM   20  C1  UNL     1      47.304  12.555   2.542  1.00  0.00     0.007 C 
ENDBRANCH  11  19
ENDBRANCH   9  10
ENDBRANCH   1   9
BRANCH   6  21
HETATM   21  C17 UNL     1      49.512  20.729   1.814  1.00  0.00     0.137 C 
BRANCH  21  22
HETATM   22  C18 UNL     1      49.676  20.373   3.273  1.00  0.00     0.048 C 
BRANCH  22  23
HETATM   23  C19 UNL     1      50.961  19.598   3.400  1.00  0.00     0.234 C 
BRANCH  23  24
HETATM   24  N2  UNL     1      52.041  20.203   2.658  1.00  0.00    -0.074 N 
ATOM     25  H22 UNL     1      51.837  20.254   1.659  1.00  0.00     0.277 HD
ATOM     26  H21 UNL     1      52.120  21.203   2.845  1.00  0.00     0.277 HD
BRANCH  24  27
HETATM   27  C20 UNL     1      53.275  19.506   2.922  1.00  0.00     0.243 C 
BRANCH  27  28
HETATM   28  C21 UNL     1      53.817  19.017   1.574  1.00  0.00     0.113 C 
HETATM   29  S1  UNL     1      55.589  19.460   1.482  1.00  0.00    -0.096 SA
ENDBRANCH  27  28
ENDBRANCH  24  27
ENDBRANCH  23  24
ENDBRANCH  22  23
ENDBRANCH  21  22
ENDBRANCH   6  21
TORSDOF 9
ENDMDL
MODEL 5
REMARK VINA RESULT: -5.922146282      2.622      3.917
REMARK  9 active torsions:
REMARK  status: ('A' for Active; 'I' for Inactive)
REMARK    1  A    between atoms: C2_2  and  C3_3 
REMARK    2  A    between atoms: C11_11  and  C12_12 
REMARK    3  A    between atoms: C12_12  and  C13_13 
REMARK    4  A    between atoms: N1_18  and  C17_19 
REMARK    5  A    between atoms: C17_19  and  C18_20 
REMARK    6  A    between atoms: C18_20  and  C19_21 
REMARK    7  A    between atoms: C19_21  and  N2_22 
REMARK    8  A    between atoms: N2_22  and  C20_25 
REMARK    9  A    between atoms: C20_25  and  C21_26 
ROOT
HETATM    1  C13 UNL     1      48.973  16.093   4.041  1.00  0.00     0.101 A 
HETATM    2  C14 UNL     1      48.194  17.115   4.781  1.00  0.00    -0.007 A 
HETATM    3  C15 UNL     1      47.946  18.339   4.362  1.00  0.00     0.071 A 
HETATM    4  C16 UNL     1      48.430  18.842   3.079  1.00  0.00     0.249 A 
HETATM    5  O1  UNL     1      48.181  20.013   2.698  1.00  0.00    -0.268 OA
HETATM    6  N1  UNL     1      49.194  17.962   2.276  1.00  0.00    -0.284 N 
HETATM    7  C22 UNL     1      49.459  16.672   2.722  1.00  0.00     0.234 A 
HETATM    8  O2  UNL     1      50.151  15.866   2.027  1.00  0.00    -0.272 OA
ENDROOT
BRANCH   1   9
HETATM    9  C12 UNL     1      48.214  14.856   3.762  1.00  0.00     0.024 C 
BRANCH   9  10
HETATM   10  C11 UNL     1      47.834  14.479   2.391  1.00  0.00     0.002 C 
HETATM   11  C3  UNL     1      46.517  14.803   1.838  1.00  0.00    -0.023 C 
HETATM   12  C4  UNL     1      45.954  16.160   2.044  1.00  0.00     0.020 C 
HETATM   13  C5  UNL     1      45.414  13.838   2.263  1.00  0.00     0.014 C 
HETATM   14  C6  UNL     1      45.782  12.395   2.039  1.00  0.00     0.005 C 
HETATM   15  C7  UNL     1      47.043  12.138   2.834  1.00  0.00    -0.014 C 
HETATM   16  C8  UNL     1      47.416  10.692   2.880  1.00  0.00     0.010 C 
HETATM   17  C9  UNL     1      48.135  12.973   2.265  1.00  0.00    -0.010 C 
HETATM   18  C10 UNL     1      48.631  12.578   0.921  1.00  0.00     0.011 C 
BRANCH  11  19
HETATM   19  C2  UNL     1      46.610  14.641   0.335  1.00  0.00    -0.027 C 
HETATM   20  C1  UNL     1      47.125  15.624  -0.374  1.00  0.00     0.007 C 
ENDBRANCH  11  19
ENDBRANCH   9  10
ENDBRANCH   1   9
BRANCH   6  21
HETATM   21  C17 UNL     1      49.665  18.452   1.002  1.00  0.00     0.137 C 
BRANCH  21  22
HETATM   22  C18 UNL     1      51.154  18.698   0.956  1.00  0.00     0.048 C 
BRANCH  22  23
HETATM   23  C19 UNL     1      51.383  20.125   1.383  1.00  0.00     0.234 C 
BRANCH  23  24
HETATM   24  N2  UNL     1      51.940  20.214   2.712  1.00  0.00    -0.074 N 
ATOM     25  H22 UNL     1      52.377  21.120   2.883  1.00  0.00     0.277 HD
ATOM     26  H21 UNL     1      51.215  20.262   3.428  1.00  0.00     0.277 HD
BRANCH  24  27
HETATM   27  C20 UNL     1      52.854  19.122   2.939  1.00  0.00     0.243 C 
BRANCH  27  28
HETATM   28  C21 UNL     1      54.265  19.717   3.002  1.00  0.00     0.113 C 
HETATM   29  S1  UNL     1      55.149  19.240   1.474  1.00  0.00    -0.096 SA
ENDBRANCH  27  28
ENDBRANCH  24  27
ENDBRANCH  23  24
ENDBRANCH  22  23
ENDBRANCH  21  22
ENDBRANCH   6  21
TORSDOF 9
ENDMDL
