MODEL 1
REMARK VINA RESULT: -8.015171122      0.000      0.000
REMARK  10 active torsions:
REMARK  status: ('A' for Active; 'I' for Inactive)
REMARK    1  A    between atoms: C2_2  and  C4_4 
REMARK    2  A    between atoms: C4_4  and  N1_5 
REMARK    3  A    between atoms: C4_4  and  C17_29 
REMARK       I    between atoms: N1_5  and  C5_7 
REMARK    4  A    between atoms: C5_7  and  C6_9 
REMARK    5  A    between atoms: C6_9  and  N2_10 
REMARK    6  A    between atoms: C6_9  and  C11_23 
REMARK       I    between atoms: N2_10  and  C7_12 
REMARK    7  A    between atoms: C7_12  and  C8_14 
REMARK    8  A    between atoms: C8_14  and  N3_15 
REMARK    9  A    between atoms: C8_14  and  C9_19 
REMARK   10  A    between atoms: C9_19  and  C10_20 
ROOT
HETATM    1  C6  UNL     1      16.177   9.030  12.547  1.00  0.00     0.180 C 
ENDROOT
BRANCH   1   2
HETATM    2  C5  UNL     1      16.989   8.891  11.346  1.00  0.00     0.241 C 
HETATM    3  N1  UNL     1      16.582   8.433  10.068  1.00  0.00    -0.354 N 
ATOM      4  H1  UNL     1      15.611   8.156   9.928  1.00  0.00     0.162 HD
HETATM    5  O1  UNL     1      18.234   9.230  11.497  1.00  0.00    -0.271 OA
BRANCH   3   6
HETATM    6  C4  UNL     1      17.511   8.345   8.941  1.00  0.00     0.091 C 
BRANCH   6   7
HETATM    7  C2  UNL     1      17.577   6.931   8.413  1.00  0.00     0.001 C 
HETATM    8  C1  UNL     1      18.448   6.002   9.176  1.00  0.00     0.011 C 
HETATM    9  C3  UNL     1      16.169   6.375   8.407  1.00  0.00     0.011 C 
ENDBRANCH   6   7
BRANCH   6  10
HETATM   10  C17 UNL     1      17.298   9.369   7.887  1.00  0.00     0.001 C 
HETATM   11  C18 UNL     1      17.527  10.790   8.272  1.00  0.00     0.011 C 
HETATM   12  C19 UNL     1      18.132   9.009   6.679  1.00  0.00     0.011 C 
ENDBRANCH   6  10
ENDBRANCH   3   6
ENDBRANCH   1   2
BRANCH   1  13
HETATM   13  N2  UNL     1      15.272  10.153  12.453  1.00  0.00    -0.346 N 
HETATM   14  C7  UNL     1      14.406  10.582  11.465  1.00  0.00     0.249 C 
HETATM   15  O2  UNL     1      14.251  10.032  10.374  1.00  0.00    -0.271 OA
ATOM     16  H2  UNL     1      15.271  10.747  13.282  1.00  0.00     0.163 HD
BRANCH  14  17
HETATM   17  C8  UNL     1      13.566  11.820  11.701  1.00  0.00     0.283 C 
BRANCH  17  18
HETATM   18  N3  UNL     1      13.965  12.897  10.857  1.00  0.00    -0.066 N 
ATOM     19  H33 UNL     1      14.683  12.604  10.194  1.00  0.00     0.275 HD
ATOM     20  H32 UNL     1      13.229  13.144  10.195  1.00  0.00     0.275 HD
ATOM     21  H31 UNL     1      14.267  13.708  11.397  1.00  0.00     0.275 HD
ENDBRANCH  17  18
BRANCH  17  22
HETATM   22  C9  UNL     1      13.668  12.258  13.136  1.00  0.00     0.142 C 
BRANCH  22  23
HETATM   23  C10 UNL     1      12.457  11.910  13.892  1.00  0.00     0.233 C 
HETATM   24  N4  UNL     1      12.331  12.181  15.287  1.00  0.00    -0.062 NA
HETATM   25  O3  UNL     1      11.507  11.353  13.269  1.00  0.00    -0.277 OA
ENDBRANCH  22  23
ENDBRANCH  17  22
ENDBRANCH  14  17
ENDBRANCH   1  13
BRANCH   1  26
HETATM   26  C11 UNL     1      15.365   7.774  12.818  1.00  0.00     0.018 C 
HETATM   27  C12 UNL     1      15.103   7.625  14.304  1.00  0.00     0.007 C 
HETATM   28  C13 UNL     1      16.064   6.649  14.970  1.00  0.00     0.000 C 
HETATM   29  C14 UNL     1      15.842   5.240  14.456  1.00  0.00     0.000 C 
HETATM   30  C15 UNL     1      15.281   5.348  13.054  1.00  0.00     0.000 C 
HETATM   31  C16 UNL     1      16.070   6.500  12.398  1.00  0.00     0.007 C 
ENDBRANCH   1  26
TORSDOF 10
ENDMDL
MODEL 2
REMARK VINA RESULT: -7.970117581      2.207      3.108
REMARK  10 active torsions:
REMARK  status: ('A' for Active; 'I' for Inactive)
REMARK    1  A    between atoms: C2_2  and  C4_4 
REMARK    2  A    between atoms: C4_4  and  N1_5 
REMARK    3  A    between atoms: C4_4  and  C17_29 
REMARK       I    between atoms: N1_5  and  C5_7 
REMARK    4  A    between atoms: C5_7  and  C6_9 
REMARK    5  A    between atoms: C6_9  and  N2_10 
REMARK    6  A    between atoms: C6_9  and  C11_23 
REMARK       I    between atoms: N2_10  and  C7_12 
REMARK    7  A    between atoms: C7_12  and  C8_14 
REMARK    8  A    between atoms: C8_14  and  N3_15 
REMARK    9  A    between atoms: C8_14  and  C9_19 
REMARK   10  A    between atoms: C9_19  and  C10_20 
ROOT
HETATM    1  C6  UNL     1      17.106   6.382  11.495  1.00  0.00     0.180 C 
ENDROOT
BRANCH   1   2
HETATM    2  C5  UNL     1      17.640   6.506  10.146  1.00  0.00     0.241 C 
HETATM    3  N1  UNL     1      16.930   6.769   8.947  1.00  0.00    -0.354 N 
ATOM      4  H1  UNL     1      15.919   6.892   8.990  1.00  0.00     0.162 HD
HETATM    5  O1  UNL     1      18.927   6.348  10.061  1.00  0.00    -0.271 OA
BRANCH   3   6
HETATM    6  C4  UNL     1      17.601   6.871   7.651  1.00  0.00     0.091 C 
BRANCH   6   7
HETATM    7  C2  UNL     1      17.381   5.617   6.838  1.00  0.00     0.001 C 
HETATM    8  C1  UNL     1      18.519   4.663   6.810  1.00  0.00     0.011 C 
HETATM    9  C3  UNL     1      16.171   4.905   7.403  1.00  0.00     0.011 C 
ENDBRANCH   6   7
BRANCH   6  10
HETATM   10  C17 UNL     1      17.317   8.124   6.909  1.00  0.00     0.001 C 
HETATM   11  C18 UNL     1      17.760   9.398   7.542  1.00  0.00     0.011 C 
HETATM   12  C19 UNL     1      17.884   8.005   5.513  1.00  0.00     0.011 C 
ENDBRANCH   6  10
ENDBRANCH   3   6
ENDBRANCH   1   2
BRANCH   1  13
HETATM   13  N2  UNL     1      16.506   7.615  11.948  1.00  0.00    -0.346 N 
HETATM   14  C7  UNL     1      17.033   8.838  12.318  1.00  0.00     0.249 C 
HETATM   15  O2  UNL     1      18.235   9.111  12.342  1.00  0.00    -0.271 OA
ATOM     16  H2  UNL     1      15.488   7.576  12.006  1.00  0.00     0.163 HD
BRANCH  14  17
HETATM   17  C8  UNL     1      16.098   9.954  12.735  1.00  0.00     0.283 C 
BRANCH  17  18
HETATM   18  N3  UNL     1      14.841   9.450  13.180  1.00  0.00    -0.066 N 
ATOM     19  H33 UNL     1      14.959   8.755  13.917  1.00  0.00     0.275 HD
ATOM     20  H32 UNL     1      14.323  10.154  13.706  1.00  0.00     0.275 HD
ATOM     21  H31 UNL     1      14.287   9.081  12.407  1.00  0.00     0.275 HD
ENDBRANCH  17  18
BRANCH  17  22
HETATM   22  C9  UNL     1      15.868  10.901  11.590  1.00  0.00     0.142 C 
BRANCH  22  23
HETATM   23  C10 UNL     1      14.838  10.395  10.672  1.00  0.00     0.233 C 
HETATM   24  N4  UNL     1      13.493  10.868  10.709  1.00  0.00    -0.062 NA
HETATM   25  O3  UNL     1      15.175   9.513   9.829  1.00  0.00    -0.277 OA
ENDBRANCH  22  23
ENDBRANCH  17  22
ENDBRANCH  14  17
ENDBRANCH   1  13
BRANCH   1  26
HETATM   26  C11 UNL     1      16.066   5.276  11.580  1.00  0.00     0.018 C 
HETATM   27  C12 UNL     1      15.391   5.291  12.937  1.00  0.00     0.007 C 
HETATM   28  C13 UNL     1      15.971   4.254  13.890  1.00  0.00     0.000 C 
HETATM   29  C14 UNL     1      15.681   2.849  13.396  1.00  0.00     0.000 C 
HETATM   30  C15 UNL     1      15.545   2.914  11.889  1.00  0.00     0.000 C 
HETATM   31  C16 UNL     1      16.652   3.886  11.432  1.00  0.00     0.007 C 
ENDBRANCH   1  26
TORSDOF 10
ENDMDL
MODEL 3
REMARK VINA RESULT: -7.887002745      1.469      2.009
REMARK  10 active torsions:
REMARK  status: ('A' for Active; 'I' for Inactive)
REMARK    1  A    between atoms: C2_2  and  C4_4 
REMARK    2  A    between atoms: C4_4  and  N1_5 
REMARK    3  A    between atoms: C4_4  and  C17_29 
REMARK       I    between atoms: N1_5  and  C5_7 
REMARK    4  A    between atoms: C5_7  and  C6_9 
REMARK    5  A    between atoms: C6_9  and  N2_10 
REMARK    6  A    between atoms: C6_9  and  C11_23 
REMARK       I    between atoms: N2_10  and  C7_12 
REMARK    7  A    between atoms: C7_12  and  C8_14 
REMARK    8  A    between atoms: C8_14  and  N3_15 
REMARK    9  A    between atoms: C8_14  and  C9_19 
REMARK   10  A    between atoms: C9_19  and  C10_20 
ROOT
HETATM    1  C6  UNL     1      17.680   8.216  12.180  1.00  0.00     0.180 C 
ENDROOT
BRANCH   1   2
HETATM    2  C5  UNL     1      18.168   7.867  10.854  1.00  0.00     0.241 C 
HETATM    3  N1  UNL     1      17.490   7.987   9.615  1.00  0.00    -0.354 N 
ATOM      4  H1  UNL     1      16.539   8.357   9.606  1.00  0.00     0.162 HD
HETATM    5  O1  UNL     1      19.375   7.385  10.835  1.00  0.00    -0.271 OA
BRANCH   3   6
HETATM    6  C4  UNL     1      18.107   7.596   8.347  1.00  0.00     0.091 C 
BRANCH   6   7
HETATM    7  C2  UNL     1      17.420   6.380   7.772  1.00  0.00     0.001 C 
HETATM    8  C1  UNL     1      18.016   5.071   8.144  1.00  0.00     0.011 C 
HETATM    9  C3  UNL     1      15.979   6.401   8.234  1.00  0.00     0.011 C 
ENDBRANCH   6   7
BRANCH   6  10
HETATM   10  C17 UNL     1      18.273   8.706   7.376  1.00  0.00     0.001 C 
HETATM   11  C18 UNL     1      17.879   8.433   5.965  1.00  0.00     0.011 C 
HETATM   12  C19 UNL     1      17.549   9.925   7.899  1.00  0.00     0.011 C 
ENDBRANCH   6  10
ENDBRANCH   3   6
ENDBRANCH   1   2
BRANCH   1  13
HETATM   13  N2  UNL     1      16.471   9.005  12.114  1.00  0.00    -0.346 N 
HETATM   14  C7  UNL     1      16.228  10.328  11.797  1.00  0.00     0.249 C 
HETATM   15  O2  UNL     1      17.093  11.153  11.498  1.00  0.00    -0.271 OA
ATOM     16  H2  UNL     1      15.628   8.480  12.349  1.00  0.00     0.163 HD
BRANCH  14  17
HETATM   17  C8  UNL     1      14.804  10.844  11.808  1.00  0.00     0.283 C 
BRANCH  17  18
HETATM   18  N3  UNL     1      14.702  12.123  11.186  1.00  0.00    -0.066 N 
ATOM     19  H33 UNL     1      15.373  12.221  10.424  1.00  0.00     0.275 HD
ATOM     20  H32 UNL     1      13.838  12.209  10.651  1.00  0.00     0.275 HD
ATOM     21  H31 UNL     1      14.797  12.880  11.864  1.00  0.00     0.275 HD
ENDBRANCH  17  18
BRANCH  17  22
HETATM   22  C9  UNL     1      14.291  10.942  13.217  1.00  0.00     0.142 C 
BRANCH  22  23
HETATM   23  C10 UNL     1      13.204  11.924  13.327  1.00  0.00     0.233 C 
HETATM   24  N4  UNL     1      11.991  11.797  12.587  1.00  0.00    -0.062 NA
HETATM   25  O3  UNL     1      13.366  12.906  14.109  1.00  0.00    -0.277 OA
ENDBRANCH  22  23
ENDBRANCH  17  22
ENDBRANCH  14  17
ENDBRANCH   1  13
BRANCH   1  26
HETATM   26  C11 UNL     1      17.404   6.975  13.015  1.00  0.00     0.018 C 
HETATM   27  C12 UNL     1      17.235   5.764  12.119  1.00  0.00     0.007 C 
HETATM   28  C13 UNL     1      15.772   5.419  11.872  1.00  0.00     0.000 C 
HETATM   29  C14 UNL     1      15.101   4.972  13.156  1.00  0.00     0.000 C 
HETATM   30  C15 UNL     1      15.832   5.631  14.307  1.00  0.00     0.000 C 
HETATM   31  C16 UNL     1      16.125   7.065  13.822  1.00  0.00     0.007 C 
ENDBRANCH   1  26
TORSDOF 10
ENDMDL
MODEL 4
REMARK VINA RESULT: -7.832133578      1.989      2.605
REMARK  10 active torsions:
REMARK  status: ('A' for Active; 'I' for Inactive)
REMARK    1  A    between atoms: C2_2  and  C4_4 
REMARK    2  A    between atoms: C4_4  and  N1_5 
REMARK    3  A    between atoms: C4_4  and  C17_29 
REMARK       I    between atoms: N1_5  and  C5_7 
REMARK    4  A    between atoms: C5_7  and  C6_9 
REMARK    5  A    between atoms: C6_9  and  N2_10 
REMARK    6  A    between atoms: C6_9  and  C11_23 
REMARK       I    between atoms: N2_10  and  C7_12 
REMARK    7  A    between atoms: C7_12  and  C8_14 
REMARK    8  A    between atoms: C8_14  and  N3_15 
REMARK    9  A    between atoms: C8_14  and  C9_19 
REMARK   10  A    between atoms: C9_19  and  C10_20 
ROOT
HETATM    1  C6  UNL     1      17.337   7.338  11.026  1.00  0.00     0.180 C 
ENDROOT
BRANCH   1   2
HETATM    2  C5  UNL     1      18.048   7.058   9.786  1.00  0.00     0.241 C 
HETATM    3  N1  UNL     1      17.519   6.545   8.574  1.00  0.00    -0.354 N 
ATOM      4  H1  UNL     1      16.523   6.332   8.521  1.00  0.00     0.162 HD
HETATM    5  O1  UNL     1      19.321   7.313   9.827  1.00  0.00    -0.271 OA
BRANCH   3   6
HETATM    6  C4  UNL     1      18.356   6.313   7.397  1.00  0.00     0.091 C 
BRANCH   6   7
HETATM    7  C2  UNL     1      18.651   4.840   7.236  1.00  0.00     0.001 C 
HETATM    8  C1  UNL     1      19.947   4.380   7.797  1.00  0.00     0.011 C 
HETATM    9  C3  UNL     1      17.535   4.069   7.907  1.00  0.00     0.011 C 
ENDBRANCH   6   7
BRANCH   6  10
HETATM   10  C17 UNL     1      17.867   6.965   6.157  1.00  0.00     0.001 C 
HETATM   11  C18 UNL     1      16.435   6.753   5.802  1.00  0.00     0.011 C 
HETATM   12  C19 UNL     1      18.180   8.442   6.225  1.00  0.00     0.011 C 
ENDBRANCH   6  10
ENDBRANCH   3   6
ENDBRANCH   1   2
BRANCH   1  13
HETATM   13  N2  UNL     1      16.736   8.652  11.011  1.00  0.00    -0.346 N 
HETATM   14  C7  UNL     1      15.954   9.319  10.086  1.00  0.00     0.249 C 
HETATM   15  O2  UNL     1      15.612   8.864   8.993  1.00  0.00    -0.271 OA
ATOM     16  H2  UNL     1      16.926   9.197  11.853  1.00  0.00     0.163 HD
BRANCH  14  17
HETATM   17  C8  UNL     1      15.462  10.716  10.401  1.00  0.00     0.283 C 
BRANCH  17  18
HETATM   18  N3  UNL     1      16.541  11.604  10.683  1.00  0.00    -0.066 N 
ATOM     19  H33 UNL     1      17.399  11.093  10.893  1.00  0.00     0.275 HD
ATOM     20  H32 UNL     1      16.849  12.093   9.842  1.00  0.00     0.275 HD
ATOM     21  H31 UNL     1      16.306  12.258  11.429  1.00  0.00     0.275 HD
ENDBRANCH  17  18
BRANCH  17  22
HETATM   22  C9  UNL     1      14.528  10.691  11.578  1.00  0.00     0.142 C 
BRANCH  22  23
HETATM   23  C10 UNL     1      13.390  11.600  11.381  1.00  0.00     0.233 C 
HETATM   24  N4  UNL     1      12.398  11.800  12.386  1.00  0.00    -0.062 NA
HETATM   25  O3  UNL     1      13.306  12.216  10.279  1.00  0.00    -0.277 OA
ENDBRANCH  22  23
ENDBRANCH  17  22
ENDBRANCH  14  17
ENDBRANCH   1  13
BRANCH   1  26
HETATM   26  C11 UNL     1      16.248   6.309  11.286  1.00  0.00     0.018 C 
HETATM   27  C12 UNL     1      15.547   6.605  12.598  1.00  0.00     0.007 C 
HETATM   28  C13 UNL     1      16.062   5.742  13.742  1.00  0.00     0.000 C 
HETATM   29  C14 UNL     1      15.721   4.282  13.510  1.00  0.00     0.000 C 
HETATM   30  C15 UNL     1      15.619   4.069  12.015  1.00  0.00     0.000 C 
HETATM   31  C16 UNL     1      16.775   4.895  11.416  1.00  0.00     0.007 C 
ENDBRANCH   1  26
TORSDOF 10
ENDMDL
MODEL 5
REMARK VINA RESULT: -7.830990445      1.604      2.058
REMARK  10 active torsions:
REMARK  status: ('A' for Active; 'I' for Inactive)
REMARK    1  A    between atoms: C2_2  and  C4_4 
REMARK    2  A    between atoms: C4_4  and  N1_5 
REMARK    3  A    between atoms: C4_4  and  C17_29 
REMARK       I    between atoms: N1_5  and  C5_7 
REMARK    4  A    between atoms: C5_7  and  C6_9 
REMARK    5  A    between atoms: C6_9  and  N2_10 
REMARK    6  A    between atoms: C6_9  and  C11_23 
REMARK       I    between atoms: N2_10  and  C7_12 
REMARK    7  A    between atoms: C7_12  and  C8_14 
REMARK    8  A    between atoms: C8_14  and  N3_15 
REMARK    9  A    between atoms: C8_14  and  C9_19 
REMARK   10  A    between atoms: C9_19  and  C10_20 
ROOT
HETATM    1  C6  UNL     1      17.471   8.101  11.808  1.00  0.00     0.180 C 
ENDROOT
BRANCH   1   2
HETATM    2  C5  UNL     1      17.795   7.653  10.461  1.00  0.00     0.241 C 
HETATM    3  N1  UNL     1      16.932   7.049   9.511  1.00  0.00    -0.354 N 
ATOM      4  H1  UNL     1      15.956   6.890   9.762  1.00  0.00     0.162 HD
HETATM    5  O1  UNL     1      19.034   7.837  10.117  1.00  0.00    -0.271 OA
BRANCH   3   6
HETATM    6  C4  UNL     1      17.396   6.648   8.183  1.00  0.00     0.091 C 
BRANCH   6   7
HETATM    7  C2  UNL     1      17.075   5.194   7.923  1.00  0.00     0.001 C 
HETATM    8  C1  UNL     1      18.235   4.268   7.942  1.00  0.00     0.011 C 
HETATM    9  C3  UNL     1      16.083   4.745   8.975  1.00  0.00     0.011 C 
ENDBRANCH   6   7
BRANCH   6  10
HETATM   10  C17 UNL     1      16.982   7.558   7.086  1.00  0.00     0.001 C 
HETATM   11  C18 UNL     1      17.977   8.574   6.642  1.00  0.00     0.011 C 
HETATM   12  C19 UNL     1      16.515   6.729   5.912  1.00  0.00     0.011 C 
ENDBRANCH   6  10
ENDBRANCH   3   6
ENDBRANCH   1   2
BRANCH   1  13
HETATM   13  N2  UNL     1      16.297   8.943  11.823  1.00  0.00    -0.346 N 
HETATM   14  C7  UNL     1      16.117  10.309  11.704  1.00  0.00     0.249 C 
HETATM   15  O2  UNL     1      17.025  11.131  11.565  1.00  0.00    -0.271 OA
ATOM     16  H2  UNL     1      15.426   8.427  11.945  1.00  0.00     0.163 HD
BRANCH  14  17
HETATM   17  C8  UNL     1      14.715  10.880  11.745  1.00  0.00     0.283 C 
BRANCH  17  18
HETATM   18  N3  UNL     1      14.650  12.163  11.128  1.00  0.00    -0.066 N 
ATOM     19  H33 UNL     1      13.759  12.622  11.315  1.00  0.00     0.275 HD
ATOM     20  H32 UNL     1      15.272  12.829  11.588  1.00  0.00     0.275 HD
ATOM     21  H31 UNL     1      14.837  12.110  10.127  1.00  0.00     0.275 HD
ENDBRANCH  17  18
BRANCH  17  22
HETATM   22  C9  UNL     1      14.236  10.994  13.166  1.00  0.00     0.142 C 
BRANCH  22  23
HETATM   23  C10 UNL     1      13.139  11.964  13.287  1.00  0.00     0.233 C 
HETATM   24  N4  UNL     1      11.913  11.813  12.574  1.00  0.00    -0.062 NA
HETATM   25  O3  UNL     1      13.306  12.958  14.052  1.00  0.00    -0.277 OA
ENDBRANCH  22  23
ENDBRANCH  17  22
ENDBRANCH  14  17
ENDBRANCH   1  13
BRANCH   1  26
HETATM   26  C11 UNL     1      17.235   6.925  12.743  1.00  0.00     0.018 C 
HETATM   27  C12 UNL     1      15.752   6.633  12.859  1.00  0.00     0.007 C 
HETATM   28  C13 UNL     1      15.137   7.226  14.119  1.00  0.00     0.000 C 
HETATM   29  C14 UNL     1      15.700   6.558  15.359  1.00  0.00     0.000 C 
HETATM   30  C15 UNL     1      17.089   6.059  15.018  1.00  0.00     0.000 C 
HETATM   31  C16 UNL     1      17.713   7.178  14.159  1.00  0.00     0.007 C 
ENDBRANCH   1  26
TORSDOF 10
ENDMDL
