MODEL 1
REMARK VINA RESULT: -7.321157717      0.000      0.000
REMARK  9 active torsions:
REMARK  status: ('A' for Active; 'I' for Inactive)
REMARK    1  A    between atoms: C2_2  and  C3_3 
REMARK    2  A    between atoms: C3_3  and  C5_5 
REMARK    3  A    between atoms: C5_5  and  N1_6 
REMARK    4  A    between atoms: C5_5  and  C13_20 
REMARK       I    between atoms: N1_6  and  C6_8 
REMARK    5  A    between atoms: C6_8  and  C7_10 
REMARK    6  A    between atoms: C7_10  and  C8_11 
REMARK    7  A    between atoms: C7_10  and  N2_15 
REMARK    8  A    between atoms: C8_11  and  C9_12 
REMARK       I    between atoms: C13_20  and  N5_22 
REMARK    9  A    between atoms: N5_22  and  C14_24 
ROOT
HETATM    1  C5  UNL     1      16.806   7.643  12.256  1.00  0.00     0.180 C 
ENDROOT
BRANCH   1   2
HETATM    2  C3  UNL     1      15.796   6.743  12.921  1.00  0.00     0.013 C 
HETATM    3  C4  UNL     1      15.734   5.380  12.251  1.00  0.00     0.012 C 
BRANCH   2   4
HETATM    4  C2  UNL     1      16.079   6.534  14.374  1.00  0.00     0.002 C 
HETATM    5  C1  UNL     1      14.949   7.105  15.193  1.00  0.00     0.005 C 
ENDBRANCH   2   4
ENDBRANCH   1   2
BRANCH   1   6
HETATM    6  N1  UNL     1      17.110   7.158  10.940  1.00  0.00    -0.346 N 
HETATM    7  C6  UNL     1      18.405   7.033  10.382  1.00  0.00     0.241 C 
HETATM    8  O1  UNL     1      19.380   7.376  11.097  1.00  0.00    -0.271 OA
ATOM      9  H1  UNL     1      16.322   6.879  10.355  1.00  0.00     0.163 HD
BRANCH   7  10
HETATM   10  C7  UNL     1      18.576   6.521   9.020  1.00  0.00     0.176 C 
BRANCH  10  11
HETATM   11  C8  UNL     1      18.012   5.152   8.806  1.00  0.00     0.038 C 
BRANCH  11  12
HETATM   12  C9  UNL     1      16.832   5.089   7.891  1.00  0.00    -0.020 C 
HETATM   13  C10 UNL     1      15.683   4.446   8.659  1.00  0.00     0.009 C 
HETATM   14  C11 UNL     1      17.067   4.208   6.672  1.00  0.00     0.009 C 
ENDBRANCH  11  12
ENDBRANCH  10  11
BRANCH  10  15
HETATM   15  N2  UNL     1      18.139   7.453   8.006  1.00  0.00    -0.354 N 
HETATM   16  C12 UNL     1      18.902   7.886   7.073  1.00  0.00     0.197 C 
HETATM   17  N3  UNL     1      18.483   8.800   6.076  1.00  0.00    -0.067 NA
HETATM   18  N4  UNL     1      20.245   7.423   7.041  1.00  0.00    -0.067 NA
ATOM     19  H2  UNL     1      17.174   7.782   8.035  1.00  0.00     0.162 HD
ENDBRANCH  10  15
ENDBRANCH   7  10
ENDBRANCH   1   6
BRANCH   1  20
HETATM   20  C13 UNL     1      16.424   9.050  12.298  1.00  0.00     0.241 C 
HETATM   21  O2  UNL     1      17.252  10.005  12.127  1.00  0.00    -0.271 OA
HETATM   22  N5  UNL     1      15.076   9.403  12.538  1.00  0.00    -0.355 N 
ATOM     23  H5  UNL     1      14.386   8.664  12.678  1.00  0.00     0.162 HD
BRANCH  22  24
HETATM   24  C14 UNL     1      14.655  10.769  12.588  1.00  0.00     0.084 C 
HETATM   25  C15 UNL     1      13.874  11.147  13.795  1.00  0.00     0.025 C 
HETATM   26  C16 UNL     1      12.577  11.850  13.475  1.00  0.00     0.002 C 
HETATM   27  C17 UNL     1      12.734  12.938  12.457  1.00  0.00     0.000 C 
HETATM   28  C18 UNL     1      13.667  12.596  11.334  1.00  0.00     0.002 C 
HETATM   29  C19 UNL     1      13.856  11.076  11.330  1.00  0.00     0.025 C 
ENDBRANCH  22  24
ENDBRANCH   1  20
TORSDOF 9
ENDMDL
MODEL 2
REMARK VINA RESULT: -7.267251047      2.494      3.928
REMARK  9 active torsions:
REMARK  status: ('A' for Active; 'I' for Inactive)
REMARK    1  A    between atoms: C2_2  and  C3_3 
REMARK    2  A    between atoms: C3_3  and  C5_5 
REMARK    3  A    between atoms: C5_5  and  N1_6 
REMARK    4  A    between atoms: C5_5  and  C13_20 
REMARK       I    between atoms: N1_6  and  C6_8 
REMARK    5  A    between atoms: C6_8  and  C7_10 
REMARK    6  A    between atoms: C7_10  and  C8_11 
REMARK    7  A    between atoms: C7_10  and  N2_15 
REMARK    8  A    between atoms: C8_11  and  C9_12 
REMARK       I    between atoms: C13_20  and  N5_22 
REMARK    9  A    between atoms: N5_22  and  C14_24 
ROOT
HETATM    1  C5  UNL     1      15.617   7.712  13.810  1.00  0.00     0.180 C 
ENDROOT
BRANCH   1   2
HETATM    2  C3  UNL     1      15.444   6.215  13.757  1.00  0.00     0.013 C 
HETATM    3  C4  UNL     1      15.712   5.670  12.364  1.00  0.00     0.012 C 
BRANCH   2   4
HETATM    4  C2  UNL     1      16.337   5.498  14.718  1.00  0.00     0.002 C 
HETATM    5  C1  UNL     1      17.556   6.340  14.996  1.00  0.00     0.005 C 
ENDBRANCH   2   4
ENDBRANCH   1   2
BRANCH   1   6
HETATM    6  N1  UNL     1      15.756   8.240  12.482  1.00  0.00    -0.346 N 
HETATM    7  C6  UNL     1      16.923   8.833  11.944  1.00  0.00     0.241 C 
HETATM    8  O1  UNL     1      17.932   8.906  12.690  1.00  0.00    -0.271 OA
ATOM      9  H1  UNL     1      14.940   8.184  11.873  1.00  0.00     0.163 HD
BRANCH   7  10
HETATM   10  C7  UNL     1      16.931   9.334  10.568  1.00  0.00     0.176 C 
BRANCH  10  11
HETATM   11  C8  UNL     1      17.427   8.346   9.560  1.00  0.00     0.038 C 
BRANCH  11  12
HETATM   12  C9  UNL     1      16.819   8.467   8.200  1.00  0.00    -0.020 C 
HETATM   13  C10 UNL     1      16.359   7.078   7.772  1.00  0.00     0.009 C 
HETATM   14  C11 UNL     1      17.809   8.927   7.141  1.00  0.00     0.009 C 
ENDBRANCH  11  12
ENDBRANCH  10  11
BRANCH  10  15
HETATM   15  N2  UNL     1      15.673   9.925  10.175  1.00  0.00    -0.354 N 
HETATM   16  C12 UNL     1      15.123  10.895  10.806  1.00  0.00     0.197 C 
HETATM   17  N3  UNL     1      13.890  11.480  10.428  1.00  0.00    -0.067 NA
HETATM   18  N4  UNL     1      15.791  11.408  11.950  1.00  0.00    -0.067 NA
ATOM     19  H2  UNL     1      15.198   9.551   9.353  1.00  0.00     0.162 HD
ENDBRANCH  10  15
ENDBRANCH   7  10
ENDBRANCH   1   6
BRANCH   1  20
HETATM   20  C13 UNL     1      14.591   8.373  14.609  1.00  0.00     0.241 C 
HETATM   21  O2  UNL     1      14.017   7.820  15.604  1.00  0.00    -0.271 OA
HETATM   22  N5  UNL     1      14.194   9.691  14.287  1.00  0.00    -0.355 N 
ATOM     23  H5  UNL     1      14.634  10.164  13.498  1.00  0.00     0.162 HD
BRANCH  22  24
HETATM   24  C14 UNL     1      13.192  10.379  15.041  1.00  0.00     0.084 C 
HETATM   25  C15 UNL     1      12.707  11.649  14.441  1.00  0.00     0.025 C 
HETATM   26  C16 UNL     1      12.740  12.816  15.398  1.00  0.00     0.002 C 
HETATM   27  C17 UNL     1      12.163  12.491  16.742  1.00  0.00     0.000 C 
HETATM   28  C18 UNL     1      12.526  11.128  17.251  1.00  0.00     0.002 C 
HETATM   29  C19 UNL     1      13.729  10.632  16.442  1.00  0.00     0.025 C 
ENDBRANCH  22  24
ENDBRANCH   1  20
TORSDOF 9
ENDMDL
MODEL 3
REMARK VINA RESULT: -7.243623225      2.964      6.177
REMARK  9 active torsions:
REMARK  status: ('A' for Active; 'I' for Inactive)
REMARK    1  A    between atoms: C2_2  and  C3_3 
REMARK    2  A    between atoms: C3_3  and  C5_5 
REMARK    3  A    between atoms: C5_5  and  N1_6 
REMARK    4  A    between atoms: C5_5  and  C13_20 
REMARK       I    between atoms: N1_6  and  C6_8 
REMARK    5  A    between atoms: C6_8  and  C7_10 
REMARK    6  A    between atoms: C7_10  and  C8_11 
REMARK    7  A    between atoms: C7_10  and  N2_15 
REMARK    8  A    between atoms: C8_11  and  C9_12 
REMARK       I    between atoms: C13_20  and  N5_22 
REMARK    9  A    between atoms: N5_22  and  C14_24 
ROOT
HETATM    1  C5  UNL     1      14.683  10.006  13.551  1.00  0.00     0.180 C 
ENDROOT
BRANCH   1   2
HETATM    2  C3  UNL     1      13.543  10.816  14.116  1.00  0.00     0.013 C 
HETATM    3  C4  UNL     1      13.352  10.554  15.600  1.00  0.00     0.012 C 
BRANCH   2   4
HETATM    4  C2  UNL     1      13.730  12.286  13.922  1.00  0.00     0.002 C 
HETATM    5  C1  UNL     1      13.161  13.026  15.106  1.00  0.00     0.005 C 
ENDBRANCH   2   4
ENDBRANCH   1   2
BRANCH   1   6
HETATM    6  N1  UNL     1      14.594   8.646  14.004  1.00  0.00    -0.346 N 
HETATM    7  C6  UNL     1      15.657   7.711  14.029  1.00  0.00     0.241 C 
HETATM    8  O1  UNL     1      16.780   8.098  13.619  1.00  0.00    -0.271 OA
ATOM      9  H1  UNL     1      13.685   8.326  14.338  1.00  0.00     0.163 HD
BRANCH   7  10
HETATM   10  C7  UNL     1      15.430   6.349  14.518  1.00  0.00     0.176 C 
BRANCH  10  11
HETATM   11  C8  UNL     1      14.904   5.407  13.482  1.00  0.00     0.038 C 
BRANCH  11  12
HETATM   12  C9  UNL     1      15.941   4.583  12.789  1.00  0.00    -0.020 C 
HETATM   13  C10 UNL     1      16.194   5.209  11.422  1.00  0.00     0.009 C 
HETATM   14  C11 UNL     1      15.490   3.155  12.519  1.00  0.00     0.009 C 
ENDBRANCH  11  12
ENDBRANCH  10  11
BRANCH  10  15
HETATM   15  N2  UNL     1      16.569   5.804  15.220  1.00  0.00    -0.354 N 
HETATM   16  C12 UNL     1      16.675   5.804  16.496  1.00  0.00     0.197 C 
HETATM   17  N3  UNL     1      17.789   5.272  17.192  1.00  0.00    -0.067 NA
HETATM   18  N4  UNL     1      15.616   6.372  17.253  1.00  0.00    -0.067 NA
ATOM     19  H2  UNL     1      17.327   5.398  14.670  1.00  0.00     0.162 HD
ENDBRANCH  10  15
ENDBRANCH   7  10
ENDBRANCH   1   6
BRANCH   1  20
HETATM   20  C13 UNL     1      14.813  10.143  12.105  1.00  0.00     0.241 C 
HETATM   21  O2  UNL     1      13.865  10.545  11.353  1.00  0.00    -0.271 OA
HETATM   22  N5  UNL     1      16.040   9.823  11.479  1.00  0.00    -0.355 N 
ATOM     23  H5  UNL     1      16.820   9.499  12.051  1.00  0.00     0.162 HD
BRANCH  22  24
HETATM   24  C14 UNL     1      16.214   9.942  10.064  1.00  0.00     0.084 C 
HETATM   25  C15 UNL     1      16.003   8.689   9.292  1.00  0.00     0.025 C 
HETATM   26  C16 UNL     1      17.139   8.366   8.351  1.00  0.00     0.002 C 
HETATM   27  C17 UNL     1      17.581   9.543   7.537  1.00  0.00     0.000 C 
HETATM   28  C18 UNL     1      17.618  10.835   8.299  1.00  0.00     0.002 C 
HETATM   29  C19 UNL     1      17.604  10.497   9.793  1.00  0.00     0.025 C 
ENDBRANCH  22  24
ENDBRANCH   1  20
TORSDOF 9
ENDMDL
MODEL 4
REMARK VINA RESULT: -7.176985318      1.371      2.435
REMARK  9 active torsions:
REMARK  status: ('A' for Active; 'I' for Inactive)
REMARK    1  A    between atoms: C2_2  and  C3_3 
REMARK    2  A    between atoms: C3_3  and  C5_5 
REMARK    3  A    between atoms: C5_5  and  N1_6 
REMARK    4  A    between atoms: C5_5  and  C13_20 
REMARK       I    between atoms: N1_6  and  C6_8 
REMARK    5  A    between atoms: C6_8  and  C7_10 
REMARK    6  A    between atoms: C7_10  and  C8_11 
REMARK    7  A    between atoms: C7_10  and  N2_15 
REMARK    8  A    between atoms: C8_11  and  C9_12 
REMARK       I    between atoms: C13_20  and  N5_22 
REMARK    9  A    between atoms: N5_22  and  C14_24 
ROOT
HETATM    1  C5  UNL     1      16.814   7.486  11.770  1.00  0.00     0.180 C 
ENDROOT
BRANCH   1   2
HETATM    2  C3  UNL     1      15.816   6.542  12.391  1.00  0.00     0.013 C 
HETATM    3  C4  UNL     1      15.952   5.136  11.831  1.00  0.00     0.012 C 
BRANCH   2   4
HETATM    4  C2  UNL     1      15.945   6.466  13.879  1.00  0.00     0.002 C 
HETATM    5  C1  UNL     1      14.672   6.959  14.518  1.00  0.00     0.005 C 
ENDBRANCH   2   4
ENDBRANCH   1   2
BRANCH   1   6
HETATM    6  N1  UNL     1      17.010   7.158  10.386  1.00  0.00    -0.346 N 
HETATM    7  C6  UNL     1      18.252   7.134   9.708  1.00  0.00     0.241 C 
HETATM    8  O1  UNL     1      19.280   7.425  10.371  1.00  0.00    -0.271 OA
ATOM      9  H1  UNL     1      16.179   6.921   9.843  1.00  0.00     0.163 HD
BRANCH   7  10
HETATM   10  C7  UNL     1      18.313   6.779   8.288  1.00  0.00     0.176 C 
BRANCH  10  11
HETATM   11  C8  UNL     1      19.199   7.667   7.473  1.00  0.00     0.038 C 
BRANCH  11  12
HETATM   12  C9  UNL     1      18.484   8.622   6.572  1.00  0.00    -0.020 C 
HETATM   13  C10 UNL     1      17.707   9.595   7.451  1.00  0.00     0.009 C 
HETATM   14  C11 UNL     1      17.452   7.945   5.682  1.00  0.00     0.009 C 
ENDBRANCH  11  12
ENDBRANCH  10  11
BRANCH  10  15
HETATM   15  N2  UNL     1      18.593   5.380   8.066  1.00  0.00    -0.354 N 
HETATM   16  C12 UNL     1      17.681   4.498   7.891  1.00  0.00     0.197 C 
HETATM   17  N3  UNL     1      17.947   3.124   7.673  1.00  0.00    -0.067 NA
HETATM   18  N4  UNL     1      16.327   4.927   7.918  1.00  0.00    -0.067 NA
ATOM     19  H2  UNL     1      19.568   5.079   8.049  1.00  0.00     0.162 HD
ENDBRANCH  10  15
ENDBRANCH   7  10
ENDBRANCH   1   6
BRANCH   1  20
HETATM   20  C13 UNL     1      16.491   8.889  12.008  1.00  0.00     0.241 C 
HETATM   21  O2  UNL     1      17.371   9.774  12.268  1.00  0.00    -0.271 OA
HETATM   22  N5  UNL     1      15.144   9.316  11.953  1.00  0.00    -0.355 N 
ATOM     23  H5  UNL     1      14.414   8.634  11.747  1.00  0.00     0.162 HD
BRANCH  22  24
HETATM   24  C14 UNL     1      14.780  10.680  12.181  1.00  0.00     0.084 C 
HETATM   25  C15 UNL     1      14.247  10.976  13.537  1.00  0.00     0.025 C 
HETATM   26  C16 UNL     1      12.935  11.721  13.517  1.00  0.00     0.002 C 
HETATM   27  C17 UNL     1      12.932  12.882  12.569  1.00  0.00     0.000 C 
HETATM   28  C18 UNL     1      13.631  12.612  11.270  1.00  0.00     0.002 C 
HETATM   29  C19 UNL     1      13.771  11.095  11.120  1.00  0.00     0.025 C 
ENDBRANCH  22  24
ENDBRANCH   1  20
TORSDOF 9
ENDMDL
MODEL 5
REMARK VINA RESULT: -7.126902250      3.615      8.595
REMARK  9 active torsions:
REMARK  status: ('A' for Active; 'I' for Inactive)
REMARK    1  A    between atoms: C2_2  and  C3_3 
REMARK    2  A    between atoms: C3_3  and  C5_5 
REMARK    3  A    between atoms: C5_5  and  N1_6 
REMARK    4  A    between atoms: C5_5  and  C13_20 
REMARK       I    between atoms: N1_6  and  C6_8 
REMARK    5  A    between atoms: C6_8  and  C7_10 
REMARK    6  A    between atoms: C7_10  and  C8_11 
REMARK    7  A    between atoms: C7_10  and  N2_15 
REMARK    8  A    between atoms: C8_11  and  C9_12 
REMARK       I    between atoms: C13_20  and  N5_22 
REMARK    9  A    between atoms: N5_22  and  C14_24 
ROOT
HETATM    1  C5  UNL     1      18.681   6.273   7.408  1.00  0.00     0.180 C 
ENDROOT
BRANCH   1   2
HETATM    2  C3  UNL     1      17.531   5.947   6.488  1.00  0.00     0.013 C 
HETATM    3  C4  UNL     1      16.464   5.128   7.196  1.00  0.00     0.012 C 
BRANCH   2   4
HETATM    4  C2  UNL     1      16.881   7.170   5.924  1.00  0.00     0.002 C 
HETATM    5  C1  UNL     1      17.904   8.271   5.802  1.00  0.00     0.005 C 
ENDBRANCH   2   4
ENDBRANCH   1   2
BRANCH   1   6
HETATM    6  N1  UNL     1      18.251   6.216   8.776  1.00  0.00    -0.346 N 
HETATM    7  C6  UNL     1      18.484   7.207   9.759  1.00  0.00     0.241 C 
HETATM    8  O1  UNL     1      19.124   8.231   9.410  1.00  0.00    -0.271 OA
ATOM      9  H1  UNL     1      17.732   5.387   9.065  1.00  0.00     0.163 HD
BRANCH   7  10
HETATM   10  C7  UNL     1      17.988   7.023  11.126  1.00  0.00     0.176 C 
BRANCH  10  11
HETATM   11  C8  UNL     1      16.565   6.570  11.203  1.00  0.00     0.038 C 
BRANCH  11  12
HETATM   12  C9  UNL     1      16.352   5.269  11.908  1.00  0.00    -0.020 C 
HETATM   13  C10 UNL     1      15.980   4.228  10.859  1.00  0.00     0.009 C 
HETATM   14  C11 UNL     1      15.193   5.305  12.893  1.00  0.00     0.009 C 
ENDBRANCH  11  12
ENDBRANCH  10  11
BRANCH  10  15
HETATM   15  N2  UNL     1      18.863   6.212  11.940  1.00  0.00    -0.354 N 
HETATM   16  C12 UNL     1      19.652   6.697  12.824  1.00  0.00     0.197 C 
HETATM   17  N3  UNL     1      20.512   5.909  13.627  1.00  0.00    -0.067 NA
HETATM   18  N4  UNL     1      19.663   8.106  13.007  1.00  0.00    -0.067 NA
ATOM     19  H2  UNL     1      18.850   5.201  11.804  1.00  0.00     0.162 HD
ENDBRANCH  10  15
ENDBRANCH   7  10
ENDBRANCH   1   6
BRANCH   1  20
HETATM   20  C13 UNL     1      19.873   5.481   7.125  1.00  0.00     0.241 C 
HETATM   21  O2  UNL     1      20.146   4.391   7.726  1.00  0.00    -0.271 OA
HETATM   22  N5  UNL     1      20.788   5.920   6.140  1.00  0.00    -0.355 N 
ATOM     23  H5  UNL     1      20.600   6.789   5.639  1.00  0.00     0.162 HD
BRANCH  22  24
HETATM   24  C14 UNL     1      21.971   5.178   5.830  1.00  0.00     0.084 C 
HETATM   25  C15 UNL     1      23.201   5.992   5.648  1.00  0.00     0.025 C 
HETATM   26  C16 UNL     1      23.936   5.691   4.364  1.00  0.00     0.002 C 
HETATM   27  C17 UNL     1      24.106   4.224   4.114  1.00  0.00     0.000 C 
HETATM   28  C18 UNL     1      22.905   3.399   4.471  1.00  0.00     0.002 C 
HETATM   29  C19 UNL     1      21.706   4.344   4.585  1.00  0.00     0.025 C 
ENDBRANCH  22  24
ENDBRANCH   1  20
TORSDOF 9
ENDMDL
