MODEL 1
REMARK VINA RESULT: -7.836831657      0.000      0.000
REMARK  9 active torsions:
REMARK  status: ('A' for Active; 'I' for Inactive)
REMARK    1  A    between atoms: O1_2  and  C2_3 
REMARK    2  A    between atoms: C2_3  and  C3_4 
REMARK    3  A    between atoms: C3_4  and  C4_5 
REMARK    4  A    between atoms: C4_5  and  C5_6 
REMARK    5  A    between atoms: C11_12  and  C12_13 
REMARK    6  A    between atoms: C12_13  and  N1_14 
REMARK    7  A    between atoms: C16_21  and  C17_22 
REMARK    8  A    between atoms: C17_22  and  N4_23 
REMARK    9  A    between atoms: N4_23  and  C18_25 
ROOT
HETATM    1  C3  UNL     1      16.578   8.088  11.758  1.00  0.00    -0.013 C 
HETATM    2  C10 UNL     1      17.365   7.754  10.491  1.00  0.00     0.018 C 
HETATM    3  C11 UNL     1      16.474   7.956   9.332  1.00  0.00     0.004 C 
HETATM    4  C14 UNL     1      16.392   9.437   9.024  1.00  0.00     0.007 C 
HETATM    5  C15 UNL     1      16.515  10.164  10.318  1.00  0.00     0.007 C 
HETATM    6  C16 UNL     1      15.813   9.324  11.387  1.00  0.00     0.014 C 
ENDROOT
BRANCH   1   7
HETATM    7  C2  UNL     1      17.663   8.384  12.794  1.00  0.00     0.176 C 
BRANCH   7   8
HETATM    8  O1  UNL     1      18.931   8.130  12.334  1.00  0.00    -0.395 OA
HETATM    9  C1  UNL     1      19.756   7.547  13.281  1.00  0.00     0.201 C 
ENDBRANCH   7   8
ENDBRANCH   1   7
BRANCH   1  10
HETATM   10  C4  UNL     1      15.703   7.037  12.274  1.00  0.00     0.017 C 
BRANCH  10  11
HETATM   11  C5  UNL     1      16.210   5.615  12.362  1.00  0.00    -0.014 C 
HETATM   12  C6  UNL     1      15.215   4.971  13.376  1.00  0.00     0.005 C 
HETATM   13  C7  UNL     1      15.216   3.519  13.075  1.00  0.00     0.000 C 
HETATM   14  C8  UNL     1      15.658   3.329  11.673  1.00  0.00     0.000 C 
HETATM   15  C9  UNL     1      15.998   4.749  11.184  1.00  0.00     0.005 C 
ENDBRANCH  10  11
ENDBRANCH   1  10
BRANCH   6  16
HETATM   16  C17 UNL     1      15.353  10.251  12.424  1.00  0.00     0.127 C 
BRANCH  16  17
HETATM   17  N4  UNL     1      15.046  11.596  12.081  1.00  0.00    -0.369 N 
ATOM     18  H4  UNL     1      15.778  12.305  12.036  1.00  0.00     0.161 HD
BRANCH  17  19
HETATM   19  C18 UNL     1      13.685  11.930  11.801  1.00  0.00     0.180 C 
HETATM   20  N5  UNL     1      13.263  12.077  10.456  1.00  0.00    -0.070 NA
HETATM   21  S1  UNL     1      12.648  12.131  13.026  1.00  0.00    -0.044 SA
ENDBRANCH  17  19
ENDBRANCH  16  17
ENDBRANCH   6  16
BRANCH   3  22
HETATM   22  C12 UNL     1      16.929   7.255   8.071  1.00  0.00     0.126 C 
BRANCH  22  23
HETATM   23  N1  UNL     1      18.345   7.144   7.979  1.00  0.00    -0.367 N 
HETATM   24  C13 UNL     1      19.038   7.633   7.025  1.00  0.00     0.196 C 
HETATM   25  N2  UNL     1      18.376   8.332   5.988  1.00  0.00    -0.067 NA
HETATM   26  N3  UNL     1      20.442   7.456   7.039  1.00  0.00    -0.067 NA
ATOM     27  H1  UNL     1      18.836   6.644   8.720  1.00  0.00     0.161 HD
ENDBRANCH  22  23
ENDBRANCH   3  22
TORSDOF 9
ENDMDL
MODEL 2
REMARK VINA RESULT: -7.809312071      1.156      1.402
REMARK  9 active torsions:
REMARK  status: ('A' for Active; 'I' for Inactive)
REMARK    1  A    between atoms: O1_2  and  C2_3 
REMARK    2  A    between atoms: C2_3  and  C3_4 
REMARK    3  A    between atoms: C3_4  and  C4_5 
REMARK    4  A    between atoms: C4_5  and  C5_6 
REMARK    5  A    between atoms: C11_12  and  C12_13 
REMARK    6  A    between atoms: C12_13  and  N1_14 
REMARK    7  A    between atoms: C16_21  and  C17_22 
REMARK    8  A    between atoms: C17_22  and  N4_23 
REMARK    9  A    between atoms: N4_23  and  C18_25 
ROOT
HETATM    1  C3  UNL     1      16.999   8.522  11.248  1.00  0.00    -0.013 C 
HETATM    2  C10 UNL     1      18.037   8.251  10.158  1.00  0.00     0.018 C 
HETATM    3  C11 UNL     1      17.444   8.623   8.860  1.00  0.00     0.004 C 
HETATM    4  C14 UNL     1      17.507  10.129   8.701  1.00  0.00     0.007 C 
HETATM    5  C15 UNL     1      17.368  10.722  10.060  1.00  0.00     0.007 C 
HETATM    6  C16 UNL     1      16.400   9.839  10.851  1.00  0.00     0.014 C 
ENDROOT
BRANCH   1   7
HETATM    7  C2  UNL     1      17.833   8.642  12.524  1.00  0.00     0.176 C 
BRANCH   7   8
HETATM    8  O1  UNL     1      19.147   8.291  12.344  1.00  0.00    -0.395 OA
HETATM    9  C1  UNL     1      19.671   7.551  13.390  1.00  0.00     0.201 C 
ENDBRANCH   7   8
ENDBRANCH   1   7
BRANCH   1  10
HETATM   10  C4  UNL     1      15.978   7.493  11.442  1.00  0.00     0.017 C 
BRANCH  10  11
HETATM   11  C5  UNL     1      16.391   6.094  11.839  1.00  0.00    -0.014 C 
HETATM   12  C6  UNL     1      15.294   5.708  12.879  1.00  0.00     0.005 C 
HETATM   13  C7  UNL     1      15.226   4.227  12.863  1.00  0.00     0.000 C 
HETATM   14  C8  UNL     1      15.747   3.746  11.561  1.00  0.00     0.000 C 
HETATM   15  C9  UNL     1      16.204   5.025  10.836  1.00  0.00     0.005 C 
ENDBRANCH  10  11
ENDBRANCH   1  10
BRANCH   6  16
HETATM   16  C17 UNL     1      15.762  10.697  11.853  1.00  0.00     0.127 C 
BRANCH  16  17
HETATM   17  N4  UNL     1      14.365  10.582  12.092  1.00  0.00    -0.369 N 
ATOM     18  H4  UNL     1      13.970   9.730  12.489  1.00  0.00     0.161 HD
BRANCH  17  19
HETATM   19  C18 UNL     1      13.529  11.693  11.762  1.00  0.00     0.180 C 
HETATM   20  N5  UNL     1      13.373  12.073  10.406  1.00  0.00    -0.070 NA
HETATM   21  S1  UNL     1      12.772  12.497  12.945  1.00  0.00    -0.044 SA
ENDBRANCH  17  19
ENDBRANCH  16  17
ENDBRANCH   6  16
BRANCH   3  22
HETATM   22  C12 UNL     1      18.140   8.012   7.663  1.00  0.00     0.126 C 
BRANCH  22  23
HETATM   23  N1  UNL     1      17.818   6.638   7.477  1.00  0.00    -0.367 N 
HETATM   24  C13 UNL     1      16.961   6.214   6.632  1.00  0.00     0.196 C 
HETATM   25  N2  UNL     1      16.279   7.153   5.822  1.00  0.00    -0.067 NA
HETATM   26  N3  UNL     1      16.723   4.823   6.539  1.00  0.00    -0.067 NA
ATOM     27  H1  UNL     1      18.303   5.951   8.053  1.00  0.00     0.161 HD
ENDBRANCH  22  23
ENDBRANCH   3  22
TORSDOF 9
ENDMDL
MODEL 3
REMARK VINA RESULT: -7.807231110      1.516      1.829
REMARK  9 active torsions:
REMARK  status: ('A' for Active; 'I' for Inactive)
REMARK    1  A    between atoms: O1_2  and  C2_3 
REMARK    2  A    between atoms: C2_3  and  C3_4 
REMARK    3  A    between atoms: C3_4  and  C4_5 
REMARK    4  A    between atoms: C4_5  and  C5_6 
REMARK    5  A    between atoms: C11_12  and  C12_13 
REMARK    6  A    between atoms: C12_13  and  N1_14 
REMARK    7  A    between atoms: C16_21  and  C17_22 
REMARK    8  A    between atoms: C17_22  and  N4_23 
REMARK    9  A    between atoms: N4_23  and  C18_25 
ROOT
HETATM    1  C3  UNL     1      17.470   8.616  10.542  1.00  0.00    -0.013 C 
HETATM    2  C10 UNL     1      18.318   8.483   9.277  1.00  0.00     0.018 C 
HETATM    3  C11 UNL     1      17.543   9.029   8.147  1.00  0.00     0.004 C 
HETATM    4  C14 UNL     1      17.626  10.542   8.176  1.00  0.00     0.007 C 
HETATM    5  C15 UNL     1      17.716  10.951   9.606  1.00  0.00     0.007 C 
HETATM    6  C16 UNL     1      16.856   9.980  10.417  1.00  0.00     0.014 C 
ENDROOT
BRANCH   1   7
HETATM    7  C2  UNL     1      18.494   8.558  11.676  1.00  0.00     0.176 C 
BRANCH   7   8
HETATM    8  O1  UNL     1      17.917   8.425  12.915  1.00  0.00    -0.395 OA
HETATM    9  C1  UNL     1      18.666   7.661  13.794  1.00  0.00     0.201 C 
ENDBRANCH   7   8
ENDBRANCH   1   7
BRANCH   1  10
HETATM   10  C4  UNL     1      16.461   7.580  10.759  1.00  0.00     0.017 C 
BRANCH  10  11
HETATM   11  C5  UNL     1      16.859   6.123  10.703  1.00  0.00    -0.014 C 
HETATM   12  C6  UNL     1      16.004   5.502  11.850  1.00  0.00     0.005 C 
HETATM   13  C7  UNL     1      15.836   4.071  11.499  1.00  0.00     0.000 C 
HETATM   14  C8  UNL     1      16.015   3.922  10.035  1.00  0.00     0.000 C 
HETATM   15  C9  UNL     1      16.379   5.336   9.548  1.00  0.00     0.005 C 
ENDBRANCH  10  11
ENDBRANCH   1  10
BRANCH   6  16
HETATM   16  C17 UNL     1      16.406  10.703  11.610  1.00  0.00     0.127 C 
BRANCH  16  17
HETATM   17  N4  UNL     1      15.461  11.757  11.480  1.00  0.00    -0.369 N 
ATOM     18  H4  UNL     1      15.764  12.710  11.282  1.00  0.00     0.161 HD
BRANCH  17  19
HETATM   19  C18 UNL     1      14.075  11.446  11.633  1.00  0.00     0.180 C 
HETATM   20  N5  UNL     1      13.441  10.592  10.697  1.00  0.00    -0.070 NA
HETATM   21  S1  UNL     1      13.253  12.074  12.877  1.00  0.00    -0.044 SA
ENDBRANCH  17  19
ENDBRANCH  16  17
ENDBRANCH   6  16
BRANCH   3  22
HETATM   22  C12 UNL     1      18.028   8.576   6.787  1.00  0.00     0.126 C 
BRANCH  22  23
HETATM   23  N1  UNL     1      18.050   7.159   6.650  1.00  0.00    -0.367 N 
HETATM   24  C13 UNL     1      17.144   6.486   6.055  1.00  0.00     0.196 C 
HETATM   25  N2  UNL     1      16.044   7.172   5.489  1.00  0.00    -0.067 NA
HETATM   26  N3  UNL     1      17.273   5.079   5.985  1.00  0.00    -0.067 NA
ATOM     27  H1  UNL     1      18.838   6.652   7.052  1.00  0.00     0.161 HD
ENDBRANCH  22  23
ENDBRANCH   3  22
TORSDOF 9
ENDMDL
MODEL 4
REMARK VINA RESULT: -7.787662820      2.861      5.797
REMARK  9 active torsions:
REMARK  status: ('A' for Active; 'I' for Inactive)
REMARK    1  A    between atoms: O1_2  and  C2_3 
REMARK    2  A    between atoms: C2_3  and  C3_4 
REMARK    3  A    between atoms: C3_4  and  C4_5 
REMARK    4  A    between atoms: C4_5  and  C5_6 
REMARK    5  A    between atoms: C11_12  and  C12_13 
REMARK    6  A    between atoms: C12_13  and  N1_14 
REMARK    7  A    between atoms: C16_21  and  C17_22 
REMARK    8  A    between atoms: C17_22  and  N4_23 
REMARK    9  A    between atoms: N4_23  and  C18_25 
ROOT
HETATM    1  C3  UNL     1      16.801   7.910   9.770  1.00  0.00    -0.013 C 
HETATM    2  C10 UNL     1      15.991   9.163  10.103  1.00  0.00     0.018 C 
HETATM    3  C11 UNL     1      16.901  10.143  10.728  1.00  0.00     0.004 C 
HETATM    4  C14 UNL     1      17.715  10.821   9.645  1.00  0.00     0.007 C 
HETATM    5  C15 UNL     1      17.929   9.822   8.562  1.00  0.00     0.007 C 
HETATM    6  C16 UNL     1      18.090   8.452   9.224  1.00  0.00     0.014 C 
ENDROOT
BRANCH   1   7
HETATM    7  C2  UNL     1      15.974   7.218   8.685  1.00  0.00     0.176 C 
BRANCH   7   8
HETATM    8  O1  UNL     1      15.993   5.850   8.785  1.00  0.00    -0.395 OA
HETATM    9  C1  UNL     1      15.996   5.205   7.560  1.00  0.00     0.201 C 
ENDBRANCH   7   8
ENDBRANCH   1   7
BRANCH   1  10
HETATM   10  C4  UNL     1      17.024   6.971  10.869  1.00  0.00     0.017 C 
BRANCH  10  11
HETATM   11  C5  UNL     1      16.045   6.919  12.020  1.00  0.00    -0.014 C 
HETATM   12  C6  UNL     1      15.819   5.385  12.192  1.00  0.00     0.005 C 
HETATM   13  C7  UNL     1      15.407   5.194  13.604  1.00  0.00     0.000 C 
HETATM   14  C8  UNL     1      15.900   6.345  14.398  1.00  0.00     0.000 C 
HETATM   15  C9  UNL     1      16.560   7.271  13.359  1.00  0.00     0.005 C 
ENDBRANCH  10  11
ENDBRANCH   1  10
BRANCH   6  16
HETATM   16  C17 UNL     1      18.917   7.639   8.329  1.00  0.00     0.127 C 
BRANCH  16  17
HETATM   17  N4  UNL     1      19.117   8.055   6.984  1.00  0.00    -0.369 N 
ATOM     18  H4  UNL     1      19.756   8.818   6.762  1.00  0.00     0.161 HD
BRANCH  17  19
HETATM   19  C18 UNL     1      18.401   7.375   5.952  1.00  0.00     0.180 C 
HETATM   20  N5  UNL     1      17.235   7.965   5.404  1.00  0.00    -0.070 NA
HETATM   21  S1  UNL     1      18.937   5.943   5.424  1.00  0.00    -0.044 SA
ENDBRANCH  17  19
ENDBRANCH  16  17
ENDBRANCH   6  16
BRANCH   3  22
HETATM   22  C12 UNL     1      16.197  11.228  11.512  1.00  0.00     0.126 C 
BRANCH  22  23
HETATM   23  N1  UNL     1      14.959  11.620  10.929  1.00  0.00    -0.367 N 
HETATM   24  C13 UNL     1      13.845  11.620  11.552  1.00  0.00     0.196 C 
HETATM   25  N2  UNL     1      13.820  11.208  12.906  1.00  0.00    -0.067 NA
HETATM   26  N3  UNL     1      12.678  12.028  10.866  1.00  0.00    -0.067 NA
ATOM     27  H1  UNL     1      14.963  11.920   9.955  1.00  0.00     0.161 HD
ENDBRANCH  22  23
ENDBRANCH   3  22
TORSDOF 9
ENDMDL
MODEL 5
REMARK VINA RESULT: -7.731339315      3.051      6.137
REMARK  9 active torsions:
REMARK  status: ('A' for Active; 'I' for Inactive)
REMARK    1  A    between atoms: O1_2  and  C2_3 
REMARK    2  A    between atoms: C2_3  and  C3_4 
REMARK    3  A    between atoms: C3_4  and  C4_5 
REMARK    4  A    between atoms: C4_5  and  C5_6 
REMARK    5  A    between atoms: C11_12  and  C12_13 
REMARK    6  A    between atoms: C12_13  and  N1_14 
REMARK    7  A    between atoms: C16_21  and  C17_22 
REMARK    8  A    between atoms: C17_22  and  N4_23 
REMARK    9  A    between atoms: N4_23  and  C18_25 
ROOT
HETATM    1  C3  UNL     1      16.770   7.716   9.399  1.00  0.00    -0.013 C 
HETATM    2  C10 UNL     1      15.908   8.978   9.396  1.00  0.00     0.018 C 
HETATM    3  C11 UNL     1      16.751  10.109   9.828  1.00  0.00     0.004 C 
HETATM    4  C14 UNL     1      17.609  10.559   8.664  1.00  0.00     0.007 C 
HETATM    5  C15 UNL     1      17.914   9.351   7.848  1.00  0.00     0.007 C 
HETATM    6  C16 UNL     1      18.073   8.173   8.811  1.00  0.00     0.014 C 
ENDROOT
BRANCH   1   7
HETATM    7  C2  UNL     1      16.028   6.765   8.458  1.00  0.00     0.176 C 
BRANCH   7   8
HETATM    8  O1  UNL     1      16.181   5.444   8.798  1.00  0.00    -0.395 OA
HETATM    9  C1  UNL     1      16.472   4.626   7.719  1.00  0.00     0.201 C 
ENDBRANCH   7   8
ENDBRANCH   1   7
BRANCH   1  10
HETATM   10  C4  UNL     1      16.953   7.058  10.692  1.00  0.00     0.017 C 
BRANCH  10  11
HETATM   11  C5  UNL     1      15.913   7.232  11.775  1.00  0.00    -0.014 C 
HETATM   12  C6  UNL     1      15.750   5.777  12.312  1.00  0.00     0.005 C 
HETATM   13  C7  UNL     1      15.265   5.914  13.707  1.00  0.00     0.000 C 
HETATM   14  C8  UNL     1      15.657   7.252  14.212  1.00  0.00     0.000 C 
HETATM   15  C9  UNL     1      16.331   7.932  13.006  1.00  0.00     0.005 C 
ENDBRANCH  10  11
ENDBRANCH   1  10
BRANCH   6  16
HETATM   16  C17 UNL     1      18.974   7.213   8.167  1.00  0.00     0.127 C 
BRANCH  16  17
HETATM   17  N4  UNL     1      19.185   7.278   6.763  1.00  0.00    -0.369 N 
ATOM     18  H4  UNL     1      18.785   8.035   6.208  1.00  0.00     0.161 HD
BRANCH  17  19
HETATM   19  C18 UNL     1      19.973   6.257   6.149  1.00  0.00     0.180 C 
HETATM   20  N5  UNL     1      21.350   6.148   6.467  1.00  0.00    -0.070 NA
HETATM   21  S1  UNL     1      19.277   5.238   5.102  1.00  0.00    -0.044 SA
ENDBRANCH  17  19
ENDBRANCH  16  17
ENDBRANCH   6  16
BRANCH   3  22
HETATM   22  C12 UNL     1      15.972  11.314  10.309  1.00  0.00     0.126 C 
BRANCH  22  23
HETATM   23  N1  UNL     1      15.513  11.179  11.649  1.00  0.00    -0.367 N 
HETATM   24  C13 UNL     1      14.286  11.039  11.972  1.00  0.00     0.196 C 
HETATM   25  N2  UNL     1      13.309  11.012  10.948  1.00  0.00    -0.067 NA
HETATM   26  N3  UNL     1      13.949  10.917  13.340  1.00  0.00    -0.067 NA
ATOM     27  H1  UNL     1      16.206  11.195  12.397  1.00  0.00     0.161 HD
ENDBRANCH  22  23
ENDBRANCH   3  22
TORSDOF 9
ENDMDL
