MODEL 1
REMARK VINA RESULT: -11.592835439      0.000      0.000
REMARK  0 active torsions:
REMARK  status: ('A' for Active; 'I' for Inactive)
ROOT
HETATM    1  N1  UNL     1      29.454  44.128  15.417  1.00  0.00    -0.062 NA
HETATM    2  C1  UNL     1      30.190  44.581  14.296  1.00  0.00     0.202 C 
HETATM    3  N2  UNL     1      29.628  44.296  13.161  1.00  0.00    -0.252 N 
ATOM      4  H2  UNL     1      28.743  43.793  13.227  1.00  0.00     0.181 HD
HETATM    5  S1  UNL     1      30.168  44.648  11.537  1.00  0.00     0.281 S 
HETATM    6  O1  UNL     1      29.972  46.091  11.229  1.00  0.00    -0.199 OA
HETATM    7  O2  UNL     1      29.364  43.787  10.624  1.00  0.00    -0.199 OA
HETATM    8  C2  UNL     1      31.884  44.236  11.524  1.00  0.00     0.163 A 
HETATM    9  N3  UNL     1      32.564  43.538  10.641  1.00  0.00    -0.344 N 
ATOM     10  H3  UNL     1      32.181  43.196   9.760  1.00  0.00     0.167 HD
HETATM   11  C3  UNL     1      33.847  43.329  11.055  1.00  0.00     0.044 A 
HETATM   12  C4  UNL     1      34.918  42.650  10.514  1.00  0.00     0.030 A 
HETATM   13  C5  UNL     1      36.094  42.598  11.227  1.00  0.00     0.002 A 
HETATM   14  C6  UNL     1      36.202  43.218  12.471  1.00  0.00     0.001 A 
HETATM   15  C7  UNL     1      35.144  43.898  13.019  1.00  0.00     0.014 A 
HETATM   16  C8  UNL     1      33.976  43.955  12.308  1.00  0.00     0.006 A 
HETATM   17  C9  UNL     1      32.771  44.511  12.577  1.00  0.00     0.044 A 
HETATM   18  C10 UNL     1      32.510  45.307  13.742  1.00  0.00     0.059 C 
HETATM   19  C11 UNL     1      33.474  46.212  14.228  1.00  0.00    -0.008 A 
HETATM   20  C12 UNL     1      33.485  46.585  15.550  1.00  0.00     0.014 A 
HETATM   21  C13 UNL     1      34.281  47.585  16.049  1.00  0.00     0.001 A 
HETATM   22  C14 UNL     1      35.128  48.268  15.195  1.00  0.00     0.000 A 
HETATM   23  C15 UNL     1      35.158  47.933  13.858  1.00  0.00     0.001 A 
HETATM   24  C16 UNL     1      34.324  46.904  13.397  1.00  0.00     0.014 A 
HETATM   25  N4  UNL     1      31.391  45.295  14.440  1.00  0.00    -0.328 N 
ATOM     26  H4  UNL     1      31.399  45.927  15.240  1.00  0.00     0.168 HD
ENDROOT
TORSDOF 0
ENDMDL
MODEL 2
REMARK VINA RESULT: -11.589238635      1.292      1.350
REMARK  0 active torsions:
REMARK  status: ('A' for Active; 'I' for Inactive)
ROOT
HETATM    1  N1  UNL     1      29.351  43.201  14.535  1.00  0.00    -0.062 NA
HETATM    2  C1  UNL     1      30.245  43.813  13.625  1.00  0.00     0.202 C 
HETATM    3  N2  UNL     1      29.739  43.988  12.441  1.00  0.00    -0.252 N 
ATOM      4  H2  UNL     1      28.778  43.667  12.328  1.00  0.00     0.181 HD
HETATM    5  S1  UNL     1      30.466  44.691  11.017  1.00  0.00     0.281 S 
HETATM    6  O1  UNL     1      30.552  46.170  11.158  1.00  0.00    -0.199 OA
HETATM    7  O2  UNL     1      29.603  44.307   9.864  1.00  0.00    -0.199 OA
HETATM    8  C2  UNL     1      32.079  43.980  10.925  1.00  0.00     0.163 A 
HETATM    9  N3  UNL     1      32.698  43.455   9.891  1.00  0.00    -0.344 N 
ATOM     10  H3  UNL     1      32.336  43.468   8.937  1.00  0.00     0.167 HD
HETATM   11  C3  UNL     1      33.886  42.892  10.256  1.00  0.00     0.044 A 
HETATM   12  C4  UNL     1      34.863  42.209   9.563  1.00  0.00     0.030 A 
HETATM   13  C5  UNL     1      35.948  41.726  10.258  1.00  0.00     0.002 A 
HETATM   14  C6  UNL     1      36.058  41.920  11.633  1.00  0.00     0.001 A 
HETATM   15  C7  UNL     1      35.094  42.599  12.334  1.00  0.00     0.014 A 
HETATM   16  C8  UNL     1      34.017  43.085  11.643  1.00  0.00     0.006 A 
HETATM   17  C9  UNL     1      32.909  43.758  12.036  1.00  0.00     0.044 A 
HETATM   18  C10 UNL     1      32.695  44.211  13.380  1.00  0.00     0.059 C 
HETATM   19  C11 UNL     1      33.759  44.730  14.144  1.00  0.00    -0.008 A 
HETATM   20  C12 UNL     1      33.724  44.690  15.517  1.00  0.00     0.014 A 
HETATM   21  C13 UNL     1      34.638  45.327  16.318  1.00  0.00     0.001 A 
HETATM   22  C14 UNL     1      35.659  46.054  15.735  1.00  0.00     0.000 A 
HETATM   23  C15 UNL     1      35.742  46.128  14.361  1.00  0.00     0.001 A 
HETATM   24  C16 UNL     1      34.783  45.460  13.587  1.00  0.00     0.014 A 
HETATM   25  N4  UNL     1      31.537  44.209  14.011  1.00  0.00    -0.328 N 
ATOM     26  H4  UNL     1      31.588  44.565  14.966  1.00  0.00     0.168 HD
ENDROOT
TORSDOF 0
ENDMDL
MODEL 3
REMARK VINA RESULT: -11.409798415      3.350      4.914
REMARK  0 active torsions:
REMARK  status: ('A' for Active; 'I' for Inactive)
ROOT
HETATM    1  N1  UNL     1      33.939  49.139  14.765  1.00  0.00    -0.062 NA
HETATM    2  C1  UNL     1      34.025  47.728  14.820  1.00  0.00     0.202 C 
HETATM    3  N2  UNL     1      35.206  47.293  15.139  1.00  0.00    -0.252 N 
ATOM      4  H2  UNL     1      35.905  48.017  15.308  1.00  0.00     0.181 HD
HETATM    5  S1  UNL     1      35.772  45.651  15.321  1.00  0.00     0.281 S 
HETATM    6  O1  UNL     1      35.255  45.063  16.587  1.00  0.00    -0.199 OA
HETATM    7  O2  UNL     1      37.261  45.710  15.322  1.00  0.00    -0.199 OA
HETATM    8  C2  UNL     1      35.127  44.785  13.924  1.00  0.00     0.163 A 
HETATM    9  N3  UNL     1      35.739  43.959  13.105  1.00  0.00    -0.344 N 
ATOM     10  H3  UNL     1      36.696  43.630  13.228  1.00  0.00     0.167 HD
HETATM   11  C3  UNL     1      34.928  43.597  12.069  1.00  0.00     0.044 A 
HETATM   12  C4  UNL     1      35.107  42.795  10.962  1.00  0.00     0.030 A 
HETATM   13  C5  UNL     1      34.070  42.668  10.065  1.00  0.00     0.002 A 
HETATM   14  C6  UNL     1      32.865  43.336  10.270  1.00  0.00     0.001 A 
HETATM   15  C7  UNL     1      32.673  44.136  11.368  1.00  0.00     0.014 A 
HETATM   16  C8  UNL     1      33.702  44.257  12.263  1.00  0.00     0.006 A 
HETATM   17  C9  UNL     1      33.836  44.974  13.404  1.00  0.00     0.044 A 
HETATM   18  C10 UNL     1      32.772  45.738  13.989  1.00  0.00     0.059 C 
HETATM   19  C11 UNL     1      31.450  45.252  13.987  1.00  0.00    -0.008 A 
HETATM   20  C12 UNL     1      30.383  46.115  14.054  1.00  0.00     0.014 A 
HETATM   21  C13 UNL     1      29.085  45.704  14.229  1.00  0.00     0.001 A 
HETATM   22  C14 UNL     1      28.811  44.354  14.345  1.00  0.00     0.000 A 
HETATM   23  C15 UNL     1      29.845  43.444  14.284  1.00  0.00     0.001 A 
HETATM   24  C16 UNL     1      31.154  43.914  14.105  1.00  0.00     0.014 A 
HETATM   25  N4  UNL     1      32.908  46.910  14.578  1.00  0.00    -0.328 N 
ATOM     26  H4  UNL     1      32.032  47.300  14.925  1.00  0.00     0.168 HD
ENDROOT
TORSDOF 0
ENDMDL
MODEL 4
REMARK VINA RESULT: -10.698865478      1.647      4.652
REMARK  0 active torsions:
REMARK  status: ('A' for Active; 'I' for Inactive)
ROOT
HETATM    1  N1  UNL     1      29.432  44.430   9.940  1.00  0.00    -0.062 NA
HETATM    2  C1  UNL     1      30.071  44.303  11.195  1.00  0.00     0.202 C 
HETATM    3  N2  UNL     1      29.280  44.521  12.202  1.00  0.00    -0.252 N 
ATOM      4  H2  UNL     1      28.316  44.748  11.957  1.00  0.00     0.181 HD
HETATM    5  S1  UNL     1      29.626  44.480  13.914  1.00  0.00     0.281 S 
HETATM    6  O1  UNL     1      29.770  43.073  14.379  1.00  0.00    -0.199 OA
HETATM    7  O2  UNL     1      28.489  45.161  14.595  1.00  0.00    -0.199 OA
HETATM    8  C2  UNL     1      31.149  45.354  14.095  1.00  0.00     0.163 A 
HETATM    9  N3  UNL     1      31.471  46.290  14.960  1.00  0.00    -0.344 N 
ATOM     10  H3  UNL     1      30.876  46.589  15.733  1.00  0.00     0.167 HD
HETATM   11  C3  UNL     1      32.704  46.810  14.692  1.00  0.00     0.044 A 
HETATM   12  C4  UNL     1      33.458  47.807  15.274  1.00  0.00     0.030 A 
HETATM   13  C5  UNL     1      34.678  48.120  14.719  1.00  0.00     0.002 A 
HETATM   14  C6  UNL     1      35.142  47.447  13.591  1.00  0.00     0.001 A 
HETATM   15  C7  UNL     1      34.402  46.452  13.003  1.00  0.00     0.014 A 
HETATM   16  C8  UNL     1      33.192  46.136  13.559  1.00  0.00     0.006 A 
HETATM   17  C9  UNL     1      32.234  45.244  13.210  1.00  0.00     0.044 A 
HETATM   18  C10 UNL     1      32.381  44.305  12.135  1.00  0.00     0.059 C 
HETATM   19  C11 UNL     1      33.614  43.666  11.900  1.00  0.00    -0.008 A 
HETATM   20  C12 UNL     1      33.933  43.193  10.650  1.00  0.00     0.014 A 
HETATM   21  C13 UNL     1      35.033  42.414  10.393  1.00  0.00     0.001 A 
HETATM   22  C14 UNL     1      35.882  42.075  11.430  1.00  0.00     0.000 A 
HETATM   23  C15 UNL     1      35.608  42.523  12.705  1.00  0.00     0.001 A 
HETATM   24  C16 UNL     1      34.471  43.315  12.917  1.00  0.00     0.014 A 
HETATM   25  N4  UNL     1      31.424  43.942  11.303  1.00  0.00    -0.328 N 
ATOM     26  H4  UNL     1      31.726  43.268  10.599  1.00  0.00     0.168 HD
ENDROOT
TORSDOF 0
ENDMDL
MODEL 5
REMARK VINA RESULT: -9.492469701      3.083      5.642
REMARK  0 active torsions:
REMARK  status: ('A' for Active; 'I' for Inactive)
ROOT
HETATM    1  N1  UNL     1      36.760  45.522  16.244  1.00  0.00    -0.062 NA
HETATM    2  C1  UNL     1      35.844  45.906  15.237  1.00  0.00     0.202 C 
HETATM    3  N2  UNL     1      35.425  47.129  15.359  1.00  0.00    -0.252 N 
ATOM      4  H2  UNL     1      35.809  47.644  16.152  1.00  0.00     0.181 HD
HETATM    5  S1  UNL     1      34.301  48.021  14.364  1.00  0.00     0.281 S 
HETATM    6  O1  UNL     1      34.945  48.409  13.078  1.00  0.00    -0.199 OA
HETATM    7  O2  UNL     1      33.895  49.221  15.148  1.00  0.00    -0.199 OA
HETATM    8  C2  UNL     1      32.959  46.910  14.077  1.00  0.00     0.163 A 
HETATM    9  N3  UNL     1      31.666  47.128  14.171  1.00  0.00    -0.344 N 
ATOM     10  H3  UNL     1      31.249  48.041  14.352  1.00  0.00     0.167 HD
HETATM   11  C3  UNL     1      30.955  45.977  13.996  1.00  0.00     0.044 A 
HETATM   12  C4  UNL     1      29.609  45.681  14.029  1.00  0.00     0.030 A 
HETATM   13  C5  UNL     1      29.216  44.375  13.845  1.00  0.00     0.002 A 
HETATM   14  C6  UNL     1      30.158  43.371  13.632  1.00  0.00     0.001 A 
HETATM   15  C7  UNL     1      31.501  43.652  13.595  1.00  0.00     0.014 A 
HETATM   16  C8  UNL     1      31.891  44.952  13.772  1.00  0.00     0.006 A 
HETATM   17  C9  UNL     1      33.111  45.539  13.817  1.00  0.00     0.044 A 
HETATM   18  C10 UNL     1      34.336  44.837  13.563  1.00  0.00     0.059 C 
HETATM   19  C11 UNL     1      34.411  43.858  12.553  1.00  0.00    -0.008 A 
HETATM   20  C12 UNL     1      35.345  42.853  12.615  1.00  0.00     0.014 A 
HETATM   21  C13 UNL     1      35.584  41.975  11.587  1.00  0.00     0.001 A 
HETATM   22  C14 UNL     1      34.859  42.089  10.416  1.00  0.00     0.000 A 
HETATM   23  C15 UNL     1      33.908  43.080  10.300  1.00  0.00     0.001 A 
HETATM   24  C16 UNL     1      33.701  43.953  11.378  1.00  0.00     0.014 A 
HETATM   25  N4  UNL     1      35.474  45.031  14.202  1.00  0.00    -0.328 N 
ATOM     26  H4  UNL     1      36.232  44.429  13.883  1.00  0.00     0.168 HD
ENDROOT
TORSDOF 0
ENDMDL
