MODEL 1
REMARK VINA RESULT: -10.392720330      0.000      0.000
REMARK  1 active torsions:
REMARK  status: ('A' for Active; 'I' for Inactive)
REMARK    1  A    between atoms: C5_8  and  N2_9 
ROOT
HETATM    1  O1  UNL     1      33.265  41.647   8.628  1.00  0.00    -0.266 OA
HETATM    2  C1  UNL     1      33.776  42.243   9.608  1.00  0.00     0.273 A 
HETATM    3  N1  UNL     1      33.048  43.145  10.275  1.00  0.00    -0.321 N 
ATOM      4  H1  UNL     1      32.091  43.330   9.975  1.00  0.00     0.169 HD
HETATM    5  C2  UNL     1      33.551  43.822  11.345  1.00  0.00     0.046 A 
HETATM    6  C3  UNL     1      32.738  44.743  11.989  1.00  0.00     0.033 A 
HETATM    7  C4  UNL     1      33.207  45.444  13.068  1.00  0.00     0.034 A 
HETATM    8  C5  UNL     1      34.487  45.230  13.512  1.00  0.00     0.061 A 
HETATM    9  C13 UNL     1      35.339  44.315  12.897  1.00  0.00     0.046 A 
HETATM   10  C14 UNL     1      34.841  43.625  11.815  1.00  0.00     0.006 A 
HETATM   11  C15 UNL     1      35.614  42.692  11.135  1.00  0.00     0.009 A 
HETATM   12  C16 UNL     1      36.891  42.441  11.532  1.00  0.00     0.016 A 
HETATM   13  C17 UNL     1      37.622  41.497  10.818  1.00  0.00     0.018 A 
HETATM   14  C18 UNL     1      37.055  40.841   9.738  1.00  0.00     0.088 A 
HETATM   15  N4  UNL     1      35.798  41.109   9.371  1.00  0.00    -0.361 N 
ATOM     16  H4  UNL     1      35.392  40.619   8.573  1.00  0.00     0.165 HD
HETATM   17  C19 UNL     1      35.054  42.021  10.041  1.00  0.00     0.112 A 
ENDROOT
BRANCH   8  18
HETATM   18  N2  UNL     1      34.997  45.949  14.635  1.00  0.00    -0.220 N 
HETATM   19  N3  UNL     1      35.869  46.938  14.637  1.00  0.00    -0.290 N 
HETATM   20  C6  UNL     1      36.122  47.378  15.872  1.00  0.00     0.064 A 
ATOM     21  H3  UNL     1      36.299  47.322  13.795  1.00  0.00     0.187 HD
HETATM   22  C7  UNL     1      36.928  48.359  16.426  1.00  0.00     0.032 A 
HETATM   23  C11 UNL     1      35.358  46.619  16.735  1.00  0.00     0.062 A 
HETATM   24  C8  UNL     1      36.974  48.581  17.785  1.00  0.00     0.002 A 
HETATM   25  C9  UNL     1      36.211  47.823  18.653  1.00  0.00     0.001 A 
HETATM   26  C10 UNL     1      35.410  46.846  18.099  1.00  0.00     0.019 A 
HETATM   27  C12 UNL     1      34.670  45.737  15.923  1.00  0.00     0.279 A 
HETATM   28  O2  UNL     1      33.866  44.884  16.394  1.00  0.00    -0.265 OA
ENDBRANCH   8  18
TORSDOF 1
ENDMDL
MODEL 2
REMARK VINA RESULT: -10.158419979      0.994      1.430
REMARK  1 active torsions:
REMARK  status: ('A' for Active; 'I' for Inactive)
REMARK    1  A    between atoms: C5_8  and  N2_9 
ROOT
HETATM    1  O1  UNL     1      33.079  41.732   8.516  1.00  0.00    -0.266 OA
HETATM    2  C1  UNL     1      33.590  42.298   9.515  1.00  0.00     0.273 A 
HETATM    3  N1  UNL     1      32.859  43.169  10.217  1.00  0.00    -0.321 N 
ATOM      4  H1  UNL     1      31.899  43.357   9.928  1.00  0.00     0.169 HD
HETATM    5  C2  UNL     1      33.362  43.812  11.307  1.00  0.00     0.046 A 
HETATM    6  C3  UNL     1      32.544  44.704  11.987  1.00  0.00     0.033 A 
HETATM    7  C4  UNL     1      33.014  45.370  13.089  1.00  0.00     0.034 A 
HETATM    8  C5  UNL     1      34.297  45.151  13.519  1.00  0.00     0.061 A 
HETATM    9  C13 UNL     1      35.154  44.265  12.867  1.00  0.00     0.046 A 
HETATM   10  C14 UNL     1      34.656  43.610  11.764  1.00  0.00     0.006 A 
HETATM   11  C15 UNL     1      35.433  42.708  11.047  1.00  0.00     0.009 A 
HETATM   12  C16 UNL     1      36.714  42.454  11.430  1.00  0.00     0.016 A 
HETATM   13  C17 UNL     1      37.449  41.542  10.679  1.00  0.00     0.018 A 
HETATM   14  C18 UNL     1      36.882  40.920   9.579  1.00  0.00     0.088 A 
HETATM   15  N4  UNL     1      35.620  41.190   9.227  1.00  0.00    -0.361 N 
ATOM     16  H4  UNL     1      35.214  40.725   8.415  1.00  0.00     0.165 HD
HETATM   17  C19 UNL     1      34.873  42.071   9.933  1.00  0.00     0.112 A 
ENDROOT
BRANCH   8  18
HETATM   18  N2  UNL     1      34.808  45.834  14.664  1.00  0.00    -0.220 N 
HETATM   19  N3  UNL     1      34.750  45.456  15.926  1.00  0.00    -0.290 N 
HETATM   20  C6  UNL     1      35.332  46.341  16.738  1.00  0.00     0.064 A 
ATOM     21  H3  UNL     1      34.314  44.591  16.243  1.00  0.00     0.187 HD
HETATM   22  C7  UNL     1      35.546  46.438  18.104  1.00  0.00     0.032 A 
HETATM   23  C11 UNL     1      35.802  47.369  15.946  1.00  0.00     0.062 A 
HETATM   24  C8  UNL     1      36.202  47.513  18.663  1.00  0.00     0.002 A 
HETATM   25  C9  UNL     1      36.675  48.543  17.873  1.00  0.00     0.001 A 
HETATM   26  C10 UNL     1      36.460  48.446  16.513  1.00  0.00     0.019 A 
HETATM   27  C12 UNL     1      35.454  47.014  14.656  1.00  0.00     0.279 A 
HETATM   28  O2  UNL     1      35.737  47.743  13.663  1.00  0.00    -0.265 OA
ENDBRANCH   8  18
TORSDOF 1
ENDMDL
MODEL 3
REMARK VINA RESULT: -9.571484763      1.464      3.276
REMARK  1 active torsions:
REMARK  status: ('A' for Active; 'I' for Inactive)
REMARK    1  A    between atoms: C5_8  and  N2_9 
ROOT
HETATM    1  O1  UNL     1      32.871  42.172   9.134  1.00  0.00    -0.266 OA
HETATM    2  C1  UNL     1      33.115  42.911  10.120  1.00  0.00     0.273 A 
HETATM    3  N1  UNL     1      34.337  42.894  10.661  1.00  0.00    -0.321 N 
ATOM      4  H1  UNL     1      35.048  42.282  10.262  1.00  0.00     0.169 HD
HETATM    5  C2  UNL     1      34.658  43.674  11.731  1.00  0.00     0.046 A 
HETATM    6  C3  UNL     1      35.947  43.604  12.240  1.00  0.00     0.033 A 
HETATM    7  C4  UNL     1      36.308  44.372  13.315  1.00  0.00     0.034 A 
HETATM    8  C5  UNL     1      35.389  45.214  13.887  1.00  0.00     0.061 A 
HETATM    9  C13 UNL     1      34.083  45.317  13.410  1.00  0.00     0.046 A 
HETATM   10  C14 UNL     1      33.748  44.534  12.329  1.00  0.00     0.006 A 
HETATM   11  C15 UNL     1      32.472  44.566  11.780  1.00  0.00     0.009 A 
HETATM   12  C16 UNL     1      31.521  45.383  12.310  1.00  0.00     0.016 A 
HETATM   13  C17 UNL     1      30.259  45.378  11.724  1.00  0.00     0.018 A 
HETATM   14  C18 UNL     1      29.993  44.561  10.637  1.00  0.00     0.088 A 
HETATM   15  N4  UNL     1      30.948  43.769  10.139  1.00  0.00    -0.361 N 
ATOM     16  H4  UNL     1      30.740  43.173   9.338  1.00  0.00     0.165 HD
HETATM   17  C19 UNL     1      32.189  43.747  10.681  1.00  0.00     0.112 A 
ENDROOT
BRANCH   8  18
HETATM   18  N2  UNL     1      35.743  46.024  15.008  1.00  0.00    -0.220 N 
HETATM   19  N3  UNL     1      36.763  46.851  15.121  1.00  0.00    -0.290 N 
HETATM   20  C6  UNL     1      36.791  47.449  16.315  1.00  0.00     0.064 A 
ATOM     21  H3  UNL     1      37.449  47.015  14.385  1.00  0.00     0.187 HD
HETATM   22  C7  UNL     1      37.614  48.373  16.939  1.00  0.00     0.032 A 
HETATM   23  C11 UNL     1      35.708  46.976  17.029  1.00  0.00     0.062 A 
HETATM   24  C8  UNL     1      37.372  48.812  18.223  1.00  0.00     0.002 A 
HETATM   25  C9  UNL     1      36.289  48.340  18.941  1.00  0.00     0.001 A 
HETATM   26  C10 UNL     1      35.472  47.420  18.318  1.00  0.00     0.019 A 
HETATM   27  C12 UNL     1      35.079  46.087  16.177  1.00  0.00     0.279 A 
HETATM   28  O2  UNL     1      34.035  45.462  16.517  1.00  0.00    -0.265 OA
ENDBRANCH   8  18
TORSDOF 1
ENDMDL
MODEL 4
REMARK VINA RESULT: -9.282387404      2.095      3.060
REMARK  1 active torsions:
REMARK  status: ('A' for Active; 'I' for Inactive)
REMARK    1  A    between atoms: C5_8  and  N2_9 
ROOT
HETATM    1  O1  UNL     1      29.670  43.752  10.444  1.00  0.00    -0.266 OA
HETATM    2  C1  UNL     1      30.596  44.161  11.187  1.00  0.00     0.273 A 
HETATM    3  N1  UNL     1      30.316  45.036  12.158  1.00  0.00    -0.321 N 
ATOM      4  H1  UNL     1      29.355  45.354  12.278  1.00  0.00     0.169 HD
HETATM    5  C2  UNL     1      31.282  45.512  12.993  1.00  0.00     0.046 A 
HETATM    6  C3  UNL     1      30.917  46.419  13.979  1.00  0.00     0.033 A 
HETATM    7  C4  UNL     1      31.859  46.921  14.838  1.00  0.00     0.034 A 
HETATM    8  C5  UNL     1      33.166  46.523  14.721  1.00  0.00     0.061 A 
HETATM    9  C13 UNL     1      33.578  45.616  13.746  1.00  0.00     0.046 A 
HETATM   10  C14 UNL     1      32.611  45.127  12.897  1.00  0.00     0.006 A 
HETATM   11  C15 UNL     1      32.922  44.218  11.893  1.00  0.00     0.009 A 
HETATM   12  C16 UNL     1      34.204  43.790  11.731  1.00  0.00     0.016 A 
HETATM   13  C17 UNL     1      34.463  42.880  10.712  1.00  0.00     0.018 A 
HETATM   14  C18 UNL     1      33.438  42.432   9.895  1.00  0.00     0.088 A 
HETATM   15  N4  UNL     1      32.189  42.870  10.078  1.00  0.00    -0.361 N 
ATOM     16  H4  UNL     1      31.443  42.533   9.469  1.00  0.00     0.165 HD
HETATM   17  C19 UNL     1      31.897  43.756  11.059  1.00  0.00     0.112 A 
ENDROOT
BRANCH   8  18
HETATM   18  N2  UNL     1      34.165  47.033  15.605  1.00  0.00    -0.220 N 
HETATM   19  N3  UNL     1      34.114  47.126  16.919  1.00  0.00    -0.290 N 
HETATM   20  C6  UNL     1      35.230  47.655  17.425  1.00  0.00     0.064 A 
ATOM     21  H3  UNL     1      33.317  46.828  17.481  1.00  0.00     0.187 HD
HETATM   22  C7  UNL     1      35.689  47.965  18.695  1.00  0.00     0.032 A 
HETATM   23  C11 UNL     1      36.067  47.925  16.362  1.00  0.00     0.062 A 
HETATM   24  C8  UNL     1      36.932  48.522  18.903  1.00  0.00     0.002 A 
HETATM   25  C9  UNL     1      37.773  48.795  17.841  1.00  0.00     0.001 A 
HETATM   26  C10 UNL     1      37.314  48.485  16.577  1.00  0.00     0.019 A 
HETATM   27  C12 UNL     1      35.364  47.522  15.241  1.00  0.00     0.279 A 
HETATM   28  O2  UNL     1      35.845  47.629  14.078  1.00  0.00    -0.265 OA
ENDBRANCH   8  18
TORSDOF 1
ENDMDL
MODEL 5
REMARK VINA RESULT: -8.048907494      1.887      2.674
REMARK  1 active torsions:
REMARK  status: ('A' for Active; 'I' for Inactive)
REMARK    1  A    between atoms: C5_8  and  N2_9 
ROOT
HETATM    1  O1  UNL     1      29.662  43.860  10.249  1.00  0.00    -0.266 OA
HETATM    2  C1  UNL     1      30.610  44.214  10.993  1.00  0.00     0.273 A 
HETATM    3  N1  UNL     1      30.372  45.075  11.988  1.00  0.00    -0.321 N 
ATOM      4  H1  UNL     1      29.425  45.428  12.123  1.00  0.00     0.169 HD
HETATM    5  C2  UNL     1      31.363  45.494  12.825  1.00  0.00     0.046 A 
HETATM    6  C3  UNL     1      31.042  46.389  13.835  1.00  0.00     0.033 A 
HETATM    7  C4  UNL     1      32.010  46.834  14.697  1.00  0.00     0.034 A 
HETATM    8  C5  UNL     1      33.299  46.388  14.558  1.00  0.00     0.061 A 
HETATM    9  C13 UNL     1      33.667  45.490  13.558  1.00  0.00     0.046 A 
HETATM   10  C14 UNL     1      32.675  45.060  12.707  1.00  0.00     0.006 A 
HETATM   11  C15 UNL     1      32.942  44.164  11.679  1.00  0.00     0.009 A 
HETATM   12  C16 UNL     1      34.205  43.691  11.495  1.00  0.00     0.016 A 
HETATM   13  C17 UNL     1      34.420  42.796  10.452  1.00  0.00     0.018 A 
HETATM   14  C18 UNL     1      33.371  42.408   9.634  1.00  0.00     0.088 A 
HETATM   15  N4  UNL     1      32.141  42.890   9.839  1.00  0.00    -0.361 N 
ATOM     16  H4  UNL     1      31.378  42.596   9.229  1.00  0.00     0.165 HD
HETATM   17  C19 UNL     1      31.893  43.763  10.844  1.00  0.00     0.112 A 
ENDROOT
BRANCH   8  18
HETATM   18  N2  UNL     1      34.324  46.838  15.445  1.00  0.00    -0.220 N 
HETATM   19  N3  UNL     1      34.997  47.971  15.399  1.00  0.00    -0.290 N 
HETATM   20  C6  UNL     1      35.886  48.064  16.391  1.00  0.00     0.064 A 
ATOM     21  H3  UNL     1      34.854  48.691  14.691  1.00  0.00     0.187 HD
HETATM   22  C7  UNL     1      36.819  49.004  16.798  1.00  0.00     0.032 A 
HETATM   23  C11 UNL     1      35.783  46.906  17.135  1.00  0.00     0.062 A 
HETATM   24  C8  UNL     1      37.618  48.805  17.902  1.00  0.00     0.002 A 
HETATM   25  C9  UNL     1      37.518  47.647  18.650  1.00  0.00     0.001 A 
HETATM   26  C10 UNL     1      36.589  46.711  18.242  1.00  0.00     0.019 A 
HETATM   27  C12 UNL     1      34.795  46.166  16.511  1.00  0.00     0.279 A 
HETATM   28  O2  UNL     1      34.441  45.031  16.939  1.00  0.00    -0.265 OA
ENDBRANCH   8  18
TORSDOF 1
ENDMDL
