MODEL 1
REMARK VINA RESULT: -10.724921385      0.000      0.000
REMARK  2 active torsions:
REMARK  status: ('A' for Active; 'I' for Inactive)
REMARK    1  A    between atoms: C7_10  and  C8_11 
REMARK       I    between atoms: C8_11  and  N3_13 
REMARK    2  A    between atoms: N3_13  and  C9_15 
ROOT
HETATM    1  N1  UNL     1      39.127  40.031  11.286  1.00  0.00    -0.188 NA
HETATM    2  C1  UNL     1      38.131  40.554  11.012  1.00  0.00     0.137 C 
HETATM    3  C2  UNL     1      36.878  41.191  10.655  1.00  0.00     0.188 A 
HETATM    4  N2  UNL     1      36.349  40.892   9.448  1.00  0.00    -0.343 N 
ATOM      5  H2  UNL     1      36.832  40.241   8.829  1.00  0.00     0.167 HD
HETATM    6  C3  UNL     1      35.189  41.450   9.061  1.00  0.00     0.104 A 
HETATM    7  C4  UNL     1      34.540  42.336   9.912  1.00  0.00     0.006 A 
HETATM    8  C5  UNL     1      33.351  42.928   9.551  1.00  0.00     0.016 A 
HETATM    9  C6  UNL     1      32.715  43.805  10.401  1.00  0.00     0.018 A 
HETATM   10  C7  UNL     1      33.302  44.078  11.632  1.00  0.00     0.034 A 
HETATM   11  C18 UNL     1      34.493  43.483  11.989  1.00  0.00     0.047 A 
HETATM   12  C19 UNL     1      35.111  42.615  11.133  1.00  0.00     0.046 A 
HETATM   13  N5  UNL     1      36.267  42.041  11.487  1.00  0.00    -0.333 N 
ATOM     14  H5  UNL     1      36.683  42.252  12.394  1.00  0.00     0.168 HD
ENDROOT
BRANCH  10  15
HETATM   15  C8  UNL     1      32.631  45.005  12.531  1.00  0.00     0.257 C 
HETATM   16  O1  UNL     1      31.568  44.667  13.113  1.00  0.00    -0.267 OA
HETATM   17  N3  UNL     1      33.135  46.307  12.785  1.00  0.00    -0.309 N 
ATOM     18  H3  UNL     1      33.174  46.962  12.004  1.00  0.00     0.170 HD
BRANCH  17  19
HETATM   19  C9  UNL     1      33.543  46.716  13.924  1.00  0.00     0.108 A 
HETATM   20  C10 UNL     1      32.678  47.239  14.887  1.00  0.00     0.049 A 
HETATM   21  C11 UNL     1      33.139  47.672  16.104  1.00  0.00     0.017 A 
HETATM   22  C12 UNL     1      34.506  47.579  16.365  1.00  0.00    -0.009 A 
HETATM   23  C13 UNL     1      35.011  48.011  17.595  1.00  0.00     0.013 A 
HETATM   24  C17 UNL     1      35.316  47.057  15.383  1.00  0.00     0.043 A 
HETATM   25  C14 UNL     1      36.358  47.927  17.870  1.00  0.00     0.001 A 
HETATM   26  C15 UNL     1      37.173  47.403  16.887  1.00  0.00     0.002 A 
HETATM   27  C16 UNL     1      36.683  46.975  15.674  1.00  0.00     0.030 A 
HETATM   28  N4  UNL     1      34.849  46.637  14.199  1.00  0.00    -0.342 N 
ATOM     29  H4  UNL     1      35.492  46.256  13.505  1.00  0.00     0.167 HD
ENDBRANCH  17  19
ENDBRANCH  10  15
TORSDOF 2
ENDMDL
MODEL 2
REMARK VINA RESULT: -10.340455598      0.929      1.029
REMARK  2 active torsions:
REMARK  status: ('A' for Active; 'I' for Inactive)
REMARK    1  A    between atoms: C7_10  and  C8_11 
REMARK       I    between atoms: C8_11  and  N3_13 
REMARK    2  A    between atoms: N3_13  and  C9_15 
ROOT
HETATM    1  N1  UNL     1      39.082  39.684  10.965  1.00  0.00    -0.188 NA
HETATM    2  C1  UNL     1      38.108  40.288  10.800  1.00  0.00     0.137 C 
HETATM    3  C2  UNL     1      36.881  41.029  10.580  1.00  0.00     0.188 A 
HETATM    4  N2  UNL     1      36.228  40.820   9.416  1.00  0.00    -0.343 N 
ATOM      5  H2  UNL     1      36.603  40.162   8.734  1.00  0.00     0.167 HD
HETATM    6  C3  UNL     1      35.085  41.477   9.154  1.00  0.00     0.104 A 
HETATM    7  C4  UNL     1      34.582  42.373  10.091  1.00  0.00     0.006 A 
HETATM    8  C5  UNL     1      33.415  43.064   9.859  1.00  0.00     0.016 A 
HETATM    9  C6  UNL     1      32.924  43.950  10.793  1.00  0.00     0.018 A 
HETATM   10  C7  UNL     1      33.636  44.127  11.975  1.00  0.00     0.034 A 
HETATM   11  C18 UNL     1      34.804  43.432  12.202  1.00  0.00     0.047 A 
HETATM   12  C19 UNL     1      35.277  42.558  11.264  1.00  0.00     0.046 A 
HETATM   13  N5  UNL     1      36.412  41.887  11.493  1.00  0.00    -0.333 N 
ATOM     14  H5  UNL     1      36.921  42.030  12.365  1.00  0.00     0.168 HD
ENDROOT
BRANCH  10  15
HETATM   15  C8  UNL     1      33.118  45.063  12.962  1.00  0.00     0.257 C 
HETATM   16  O1  UNL     1      32.252  44.692  13.795  1.00  0.00    -0.267 OA
HETATM   17  N3  UNL     1      33.558  46.411  13.026  1.00  0.00    -0.309 N 
ATOM     18  H3  UNL     1      33.359  47.014  12.228  1.00  0.00     0.170 HD
BRANCH  17  19
HETATM   19  C9  UNL     1      34.185  46.922  14.015  1.00  0.00     0.108 A 
HETATM   20  C10 UNL     1      34.415  48.294  14.128  1.00  0.00     0.049 A 
HETATM   21  C11 UNL     1      35.091  48.820  15.200  1.00  0.00     0.017 A 
HETATM   22  C12 UNL     1      35.551  47.948  16.186  1.00  0.00    -0.009 A 
HETATM   23  C13 UNL     1      36.244  48.449  17.291  1.00  0.00     0.013 A 
HETATM   24  C17 UNL     1      35.299  46.604  16.027  1.00  0.00     0.043 A 
HETATM   25  C14 UNL     1      36.705  47.602  18.275  1.00  0.00     0.001 A 
HETATM   26  C15 UNL     1      36.454  46.255  18.118  1.00  0.00     0.002 A 
HETATM   27  C16 UNL     1      35.772  45.754  17.033  1.00  0.00     0.030 A 
HETATM   28  N4  UNL     1      34.636  46.106  14.974  1.00  0.00    -0.342 N 
ATOM     29  H4  UNL     1      34.474  45.102  14.904  1.00  0.00     0.167 HD
ENDBRANCH  17  19
ENDBRANCH  10  15
TORSDOF 2
ENDMDL
MODEL 3
REMARK VINA RESULT: -9.774836681      2.573      7.882
REMARK  2 active torsions:
REMARK  status: ('A' for Active; 'I' for Inactive)
REMARK    1  A    between atoms: C7_10  and  C8_11 
REMARK       I    between atoms: C8_11  and  N3_13 
REMARK    2  A    between atoms: N3_13  and  C9_15 
ROOT
HETATM    1  N1  UNL     1      39.984  49.380  19.028  1.00  0.00    -0.188 NA
HETATM    2  C1  UNL     1      38.951  49.030  18.639  1.00  0.00     0.137 C 
HETATM    3  C2  UNL     1      37.647  48.604  18.169  1.00  0.00     0.188 A 
HETATM    4  N2  UNL     1      36.650  48.535  19.078  1.00  0.00    -0.343 N 
ATOM      5  H2  UNL     1      36.832  48.777  20.052  1.00  0.00     0.167 HD
HETATM    6  C3  UNL     1      35.419  48.147  18.704  1.00  0.00     0.104 A 
HETATM    7  C4  UNL     1      35.181  47.818  17.373  1.00  0.00     0.006 A 
HETATM    8  C5  UNL     1      33.934  47.417  16.952  1.00  0.00     0.016 A 
HETATM    9  C6  UNL     1      33.708  47.093  15.632  1.00  0.00     0.018 A 
HETATM   10  C7  UNL     1      34.770  47.182  14.737  1.00  0.00     0.034 A 
HETATM   11  C18 UNL     1      36.016  47.585  15.165  1.00  0.00     0.047 A 
HETATM   12  C19 UNL     1      36.223  47.902  16.479  1.00  0.00     0.046 A 
HETATM   13  N5  UNL     1      37.437  48.292  16.886  1.00  0.00    -0.333 N 
ATOM     14  H5  UNL     1      38.203  48.352  16.215  1.00  0.00     0.168 HD
ENDROOT
BRANCH  10  15
HETATM   15  C8  UNL     1      34.532  46.840  13.343  1.00  0.00     0.257 C 
HETATM   16  O1  UNL     1      35.012  47.552  12.424  1.00  0.00    -0.267 OA
HETATM   17  N3  UNL     1      33.761  45.710  12.965  1.00  0.00    -0.309 N 
ATOM     18  H3  UNL     1      32.774  45.700  13.223  1.00  0.00     0.170 HD
BRANCH  17  19
HETATM   19  C9  UNL     1      34.217  44.703  12.325  1.00  0.00     0.108 A 
HETATM   20  C10 UNL     1      33.393  43.838  11.604  1.00  0.00     0.049 A 
HETATM   21  C11 UNL     1      33.905  42.763  10.922  1.00  0.00     0.017 A 
HETATM   22  C12 UNL     1      35.282  42.547  10.965  1.00  0.00    -0.009 A 
HETATM   23  C13 UNL     1      35.839  41.462  10.283  1.00  0.00     0.013 A 
HETATM   24  C17 UNL     1      36.051  43.429  11.690  1.00  0.00     0.043 A 
HETATM   25  C14 UNL     1      37.197  41.234  10.313  1.00  0.00     0.001 A 
HETATM   26  C15 UNL     1      37.970  42.117  11.039  1.00  0.00     0.002 A 
HETATM   27  C16 UNL     1      37.429  43.188  11.713  1.00  0.00     0.030 A 
HETATM   28  N4  UNL     1      35.534  44.476  12.349  1.00  0.00    -0.342 N 
ATOM     29  H4  UNL     1      36.148  45.101  12.870  1.00  0.00     0.167 HD
ENDBRANCH  17  19
ENDBRANCH  10  15
TORSDOF 2
ENDMDL
MODEL 4
REMARK VINA RESULT: -9.358252632      1.119      1.413
REMARK  2 active torsions:
REMARK  status: ('A' for Active; 'I' for Inactive)
REMARK    1  A    between atoms: C7_10  and  C8_11 
REMARK       I    between atoms: C8_11  and  N3_13 
REMARK    2  A    between atoms: N3_13  and  C9_15 
ROOT
HETATM    1  N1  UNL     1      40.195  39.019  12.081  1.00  0.00    -0.188 NA
HETATM    2  C1  UNL     1      39.278  39.560  11.626  1.00  0.00     0.137 C 
HETATM    3  C2  UNL     1      38.129  40.223  11.039  1.00  0.00     0.188 A 
HETATM    4  N2  UNL     1      37.961  40.109   9.703  1.00  0.00    -0.343 N 
ATOM      5  H2  UNL     1      38.630  39.573   9.150  1.00  0.00     0.167 HD
HETATM    6  C3  UNL     1      36.915  40.700   9.101  1.00  0.00     0.104 A 
HETATM    7  C4  UNL     1      36.009  41.429   9.864  1.00  0.00     0.006 A 
HETATM    8  C5  UNL     1      34.926  42.048   9.283  1.00  0.00     0.016 A 
HETATM    9  C6  UNL     1      34.035  42.769  10.047  1.00  0.00     0.018 A 
HETATM   10  C7  UNL     1      34.255  42.853  11.418  1.00  0.00     0.034 A 
HETATM   11  C18 UNL     1      35.341  42.231  11.994  1.00  0.00     0.047 A 
HETATM   12  C19 UNL     1      36.216  41.521  11.221  1.00  0.00     0.046 A 
HETATM   13  N5  UNL     1      37.268  40.919  11.789  1.00  0.00    -0.333 N 
ATOM     14  H5  UNL     1      37.414  40.991  12.796  1.00  0.00     0.168 HD
ENDROOT
BRANCH  10  15
HETATM   15  C8  UNL     1      33.313  43.614  12.226  1.00  0.00     0.257 C 
HETATM   16  O1  UNL     1      32.403  43.024  12.863  1.00  0.00    -0.267 OA
HETATM   17  N3  UNL     1      33.379  45.028  12.329  1.00  0.00    -0.309 N 
ATOM     18  H3  UNL     1      33.221  45.574  11.481  1.00  0.00     0.170 HD
BRANCH  17  19
HETATM   19  C9  UNL     1      33.621  45.665  13.409  1.00  0.00     0.108 A 
HETATM   20  C10 UNL     1      32.617  46.283  14.156  1.00  0.00     0.049 A 
HETATM   21  C11 UNL     1      32.902  46.962  15.314  1.00  0.00     0.017 A 
HETATM   22  C12 UNL     1      34.230  47.025  15.736  1.00  0.00    -0.009 A 
HETATM   23  C13 UNL     1      34.556  47.708  16.910  1.00  0.00     0.013 A 
HETATM   24  C17 UNL     1      35.182  46.400  14.963  1.00  0.00     0.043 A 
HETATM   25  C14 UNL     1      35.862  47.780  17.342  1.00  0.00     0.001 A 
HETATM   26  C15 UNL     1      36.819  47.154  16.570  1.00  0.00     0.002 A 
HETATM   27  C16 UNL     1      36.505  46.479  15.412  1.00  0.00     0.030 A 
HETATM   28  N4  UNL     1      34.886  45.739  13.835  1.00  0.00    -0.342 N 
ATOM     29  H4  UNL     1      35.630  45.291  13.299  1.00  0.00     0.167 HD
ENDBRANCH  17  19
ENDBRANCH  10  15
TORSDOF 2
ENDMDL
MODEL 5
REMARK VINA RESULT: -8.839396927      3.165      8.079
REMARK  2 active torsions:
REMARK  status: ('A' for Active; 'I' for Inactive)
REMARK    1  A    between atoms: C7_10  and  C8_11 
REMARK       I    between atoms: C8_11  and  N3_13 
REMARK    2  A    between atoms: N3_13  and  C9_15 
ROOT
HETATM    1  N1  UNL     1      40.140  50.446  18.621  1.00  0.00    -0.188 NA
HETATM    2  C1  UNL     1      39.209  49.795  18.400  1.00  0.00     0.137 C 
HETATM    3  C2  UNL     1      38.030  48.992  18.136  1.00  0.00     0.188 A 
HETATM    4  N2  UNL     1      37.060  48.983  19.076  1.00  0.00    -0.343 N 
ATOM      5  H2  UNL     1      37.175  49.527  19.931  1.00  0.00     0.167 HD
HETATM    6  C3  UNL     1      35.943  48.259  18.889  1.00  0.00     0.104 A 
HETATM    7  C4  UNL     1      35.796  47.520  17.720  1.00  0.00     0.006 A 
HETATM    8  C5  UNL     1      34.668  46.766  17.492  1.00  0.00     0.016 A 
HETATM    9  C6  UNL     1      34.531  46.037  16.332  1.00  0.00     0.018 A 
HETATM   10  C7  UNL     1      35.560  46.081  15.397  1.00  0.00     0.034 A 
HETATM   11  C18 UNL     1      36.688  46.838  15.630  1.00  0.00     0.047 A 
HETATM   12  C19 UNL     1      36.807  47.555  16.788  1.00  0.00     0.046 A 
HETATM   13  N5  UNL     1      37.906  48.288  17.006  1.00  0.00    -0.333 N 
ATOM     14  H5  UNL     1      38.650  48.309  16.309  1.00  0.00     0.168 HD
ENDROOT
BRANCH  10  15
HETATM   15  C8  UNL     1      35.416  45.311  14.170  1.00  0.00     0.257 C 
HETATM   16  O1  UNL     1      35.832  44.126  14.113  1.00  0.00    -0.267 OA
HETATM   17  N3  UNL     1      34.813  45.854  13.006  1.00  0.00    -0.309 N 
ATOM     18  H3  UNL     1      35.276  46.643  12.555  1.00  0.00     0.170 HD
BRANCH  17  19
HETATM   19  C9  UNL     1      33.730  45.423  12.483  1.00  0.00     0.108 A 
HETATM   20  C10 UNL     1      33.718  44.475  11.459  1.00  0.00     0.049 A 
HETATM   21  C11 UNL     1      32.542  44.025  10.913  1.00  0.00     0.017 A 
HETATM   22  C12 UNL     1      31.344  44.540  11.406  1.00  0.00    -0.009 A 
HETATM   23  C13 UNL     1      30.127  44.106  10.874  1.00  0.00     0.013 A 
HETATM   24  C17 UNL     1      31.410  45.473  12.416  1.00  0.00     0.043 A 
HETATM   25  C14 UNL     1      28.934  44.603  11.349  1.00  0.00     0.001 A 
HETATM   26  C15 UNL     1      28.997  45.538  12.362  1.00  0.00     0.002 A 
HETATM   27  C16 UNL     1      30.192  45.970  12.892  1.00  0.00     0.030 A 
HETATM   28  N4  UNL     1      32.568  45.900  12.940  1.00  0.00    -0.342 N 
ATOM     29  H4  UNL     1      32.562  46.592  13.689  1.00  0.00     0.167 HD
ENDBRANCH  17  19
ENDBRANCH  10  15
TORSDOF 2
ENDMDL
