MODEL 1
REMARK VINA RESULT: -6.091423139      0.000      0.000
REMARK  3 active torsions:
REMARK  status: ('A' for Active; 'I' for Inactive)
REMARK    1  A    between atoms: C5_8  and  C6_9 
REMARK    2  A    between atoms: C7_10  and  C8_11 
REMARK    3  A    between atoms: C10_13  and  C11_14 
ROOT
HETATM    1  C6  UNL     1      35.576  43.398  12.094  1.00  0.00    -0.042 C 
HETATM    2  C7  UNL     1      35.061  44.270  12.750  1.00  0.00    -0.042 C 
ENDROOT
BRANCH   2   3
HETATM    3  C8  UNL     1      34.470  45.309  13.545  1.00  0.00     0.090 A 
HETATM    4  C9  UNL     1      35.208  45.859  14.594  1.00  0.00     0.069 A 
HETATM    5  C10 UNL     1      34.698  46.853  15.386  1.00  0.00     0.046 A 
HETATM    6  N2  UNL     1      33.453  47.277  15.110  1.00  0.00    -0.352 N 
HETATM    7  C17 UNL     1      32.709  46.781  14.117  1.00  0.00     0.181 A 
ATOM      8  H2  UNL     1      33.055  48.017  15.688  1.00  0.00     0.166 HD
HETATM    9  N3  UNL     1      33.238  45.803  13.353  1.00  0.00    -0.345 N 
ATOM     10  H3  UNL     1      32.674  45.422  12.594  1.00  0.00     0.167 HD
BRANCH   5  11
HETATM   11  C11 UNL     1      35.446  47.443  16.488  1.00  0.00    -0.009 A 
HETATM   12  C12 UNL     1      34.917  47.624  17.745  1.00  0.00     0.013 A 
HETATM   13  C13 UNL     1      35.667  48.189  18.757  1.00  0.00     0.001 A 
HETATM   14  C14 UNL     1      36.948  48.578  18.528  1.00  0.00     0.000 A 
HETATM   15  C15 UNL     1      37.511  48.411  17.282  1.00  0.00     0.001 A 
HETATM   16  C16 UNL     1      36.772  47.850  16.268  1.00  0.00     0.013 A 
ENDBRANCH   5  11
ENDBRANCH   2   3
BRANCH   1  17
HETATM   17  C5  UNL     1      36.216  42.347  11.320  1.00  0.00     0.087 A 
HETATM   18  N1  UNL     1      37.265  41.663  11.797  1.00  0.00    -0.347 N 
HETATM   19  C4  UNL     1      37.881  40.677  11.094  1.00  0.00     0.060 A 
ATOM     20  H1  UNL     1      37.615  41.891  12.727  1.00  0.00     0.167 HD
HETATM   21  C3  UNL     1      38.951  40.014  11.643  1.00  0.00     0.037 A 
HETATM   22  C20 UNL     1      37.452  40.328   9.841  1.00  0.00     0.062 A 
HETATM   23  C2  UNL     1      39.567  39.017  10.919  1.00  0.00     0.077 A 
HETATM   24  C1  UNL     1      39.132  38.669   9.659  1.00  0.00     0.245 A 
HETATM   25  O1  UNL     1      39.703  37.746   8.993  1.00  0.00    -0.268 OA
HETATM   26  N4  UNL     1      38.082  39.350   9.175  1.00  0.00    -0.322 N 
ATOM     27  H4  UNL     1      37.743  39.110   8.244  1.00  0.00     0.169 HD
HETATM   28  C19 UNL     1      36.370  41.012   9.311  1.00  0.00     0.035 A 
HETATM   29  C18 UNL     1      35.770  42.008  10.056  1.00  0.00     0.041 A 
ENDBRANCH   1  17
TORSDOF 3
ENDMDL
MODEL 2
REMARK VINA RESULT: -5.565644712      4.441      9.452
REMARK  3 active torsions:
REMARK  status: ('A' for Active; 'I' for Inactive)
REMARK    1  A    between atoms: C5_8  and  C6_9 
REMARK    2  A    between atoms: C7_10  and  C8_11 
REMARK    3  A    between atoms: C10_13  and  C11_14 
ROOT
HETATM    1  C6  UNL     1      34.929  46.664  16.084  1.00  0.00    -0.042 C 
HETATM    2  C7  UNL     1      34.211  46.014  15.365  1.00  0.00    -0.042 C 
ENDROOT
BRANCH   2   3
HETATM    3  C8  UNL     1      33.377  45.232  14.496  1.00  0.00     0.090 A 
HETATM    4  C9  UNL     1      33.955  44.605  13.391  1.00  0.00     0.069 A 
HETATM    5  C10 UNL     1      33.211  43.847  12.527  1.00  0.00     0.046 A 
HETATM    6  N2  UNL     1      31.897  43.730  12.789  1.00  0.00    -0.352 N 
HETATM    7  C17 UNL     1      31.301  44.312  13.835  1.00  0.00     0.181 A 
ATOM      8  H2  UNL     1      31.326  43.169  12.158  1.00  0.00     0.166 HD
HETATM    9  N3  UNL     1      32.059  45.053  14.668  1.00  0.00    -0.345 N 
ATOM     10  H3  UNL     1      31.609  45.498  15.468  1.00  0.00     0.167 HD
BRANCH   5  11
HETATM   11  C11 UNL     1      33.787  43.183  11.366  1.00  0.00    -0.009 A 
HETATM   12  C12 UNL     1      33.135  43.074  10.159  1.00  0.00     0.013 A 
HETATM   13  C13 UNL     1      33.724  42.435   9.087  1.00  0.00     0.001 A 
HETATM   14  C14 UNL     1      34.966  41.899   9.205  1.00  0.00     0.000 A 
HETATM   15  C15 UNL     1      35.650  41.990  10.397  1.00  0.00     0.001 A 
HETATM   16  C16 UNL     1      35.072  42.624  11.470  1.00  0.00     0.013 A 
ENDBRANCH   5  11
ENDBRANCH   2   3
BRANCH   1  17
HETATM   17  C5  UNL     1      35.813  47.444  16.935  1.00  0.00     0.087 A 
HETATM   18  N1  UNL     1      36.988  47.909  16.487  1.00  0.00    -0.347 N 
HETATM   19  C4  UNL     1      37.833  48.639  17.261  1.00  0.00     0.060 A 
ATOM     20  H1  UNL     1      37.259  47.708  15.524  1.00  0.00     0.167 HD
HETATM   21  C3  UNL     1      39.021  49.087  16.739  1.00  0.00     0.037 A 
HETATM   22  C20 UNL     1      37.519  48.941  18.559  1.00  0.00     0.062 A 
HETATM   23  C2  UNL     1      39.869  49.826  17.534  1.00  0.00     0.077 A 
HETATM   24  C1  UNL     1      39.550  50.127  18.841  1.00  0.00     0.245 A 
HETATM   25  O1  UNL     1      40.336  50.811  19.573  1.00  0.00    -0.268 OA
HETATM   26  N4  UNL     1      38.376  49.664  19.295  1.00  0.00    -0.322 N 
ATOM     27  H4  UNL     1      38.119  49.875  20.259  1.00  0.00     0.169 HD
HETATM   28  C19 UNL     1      36.314  48.478  19.061  1.00  0.00     0.035 A 
HETATM   29  C18 UNL     1      35.482  47.738  18.244  1.00  0.00     0.041 A 
ENDBRANCH   1  17
TORSDOF 3
ENDMDL
MODEL 3
REMARK VINA RESULT: -5.189867707      1.058      1.364
REMARK  3 active torsions:
REMARK  status: ('A' for Active; 'I' for Inactive)
REMARK    1  A    between atoms: C5_8  and  C6_9 
REMARK    2  A    between atoms: C7_10  and  C8_11 
REMARK    3  A    between atoms: C10_13  and  C11_14 
ROOT
HETATM    1  C6  UNL     1      35.207  44.229  12.783  1.00  0.00    -0.042 C 
HETATM    2  C7  UNL     1      34.873  45.065  13.586  1.00  0.00    -0.042 C 
ENDROOT
BRANCH   2   3
HETATM    3  C8  UNL     1      34.496  46.052  14.558  1.00  0.00     0.090 A 
HETATM    4  C9  UNL     1      35.481  46.601  15.380  1.00  0.00     0.069 A 
HETATM    5  C10 UNL     1      35.182  47.546  16.325  1.00  0.00     0.046 A 
HETATM    6  N2  UNL     1      33.896  47.924  16.427  1.00  0.00    -0.352 N 
HETATM    7  C17 UNL     1      32.919  47.427  15.662  1.00  0.00     0.181 A 
ATOM      8  H2  UNL     1      33.653  48.628  17.124  1.00  0.00     0.166 HD
HETATM    9  N3  UNL     1      33.244  46.498  14.740  1.00  0.00    -0.345 N 
ATOM     10  H3  UNL     1      32.502  46.116  14.153  1.00  0.00     0.167 HD
BRANCH   5  11
HETATM   11  C11 UNL     1      36.190  48.134  17.197  1.00  0.00    -0.009 A 
HETATM   12  C12 UNL     1      35.965  48.414  18.525  1.00  0.00     0.013 A 
HETATM   13  C13 UNL     1      36.954  48.972  19.311  1.00  0.00     0.001 A 
HETATM   14  C14 UNL     1      38.173  49.255  18.783  1.00  0.00     0.000 A 
HETATM   15  C15 UNL     1      38.434  48.986  17.458  1.00  0.00     0.001 A 
HETATM   16  C16 UNL     1      37.457  48.432  16.668  1.00  0.00     0.013 A 
ENDBRANCH   5  11
ENDBRANCH   2   3
BRANCH   1  17
HETATM   17  C5  UNL     1      35.625  43.212  11.832  1.00  0.00     0.087 A 
HETATM   18  N1  UNL     1      36.798  42.576  11.954  1.00  0.00    -0.347 N 
HETATM   19  C4  UNL     1      37.213  41.623  11.079  1.00  0.00     0.060 A 
ATOM     20  H1  UNL     1      37.405  42.817  12.737  1.00  0.00     0.167 HD
HETATM   21  C3  UNL     1      38.427  41.009  11.264  1.00  0.00     0.037 A 
HETATM   22  C20 UNL     1      36.437  41.259  10.011  1.00  0.00     0.062 A 
HETATM   23  C2  UNL     1      38.836  40.045  10.369  1.00  0.00     0.077 A 
HETATM   24  C1  UNL     1      38.052  39.681   9.295  1.00  0.00     0.245 A 
HETATM   25  O1  UNL     1      38.433  38.788   8.470  1.00  0.00    -0.268 OA
HETATM   26  N4  UNL     1      36.876  40.314   9.167  1.00  0.00    -0.322 N 
ATOM     27  H4  UNL     1      36.280  40.062   8.379  1.00  0.00     0.169 HD
HETATM   28  C19 UNL     1      35.216  41.893   9.848  1.00  0.00     0.035 A 
HETATM   29  C18 UNL     1      34.830  42.857  10.758  1.00  0.00     0.041 A 
ENDBRANCH   1  17
TORSDOF 3
ENDMDL
MODEL 4
REMARK VINA RESULT: -5.096222042      5.750      8.305
REMARK  3 active torsions:
REMARK  status: ('A' for Active; 'I' for Inactive)
REMARK    1  A    between atoms: C5_8  and  C6_9 
REMARK    2  A    between atoms: C7_10  and  C8_11 
REMARK    3  A    between atoms: C10_13  and  C11_14 
ROOT
HETATM    1  C6  UNL     1      36.898  48.150  16.934  1.00  0.00    -0.042 C 
HETATM    2  C7  UNL     1      37.817  48.717  17.473  1.00  0.00    -0.042 C 
ENDROOT
BRANCH   2   3
HETATM    3  C8  UNL     1      38.898  49.414  18.112  1.00  0.00     0.090 A 
HETATM    4  C9  UNL     1      39.406  48.915  19.312  1.00  0.00     0.069 A 
HETATM    5  C10 UNL     1      40.435  49.537  19.968  1.00  0.00     0.046 A 
HETATM    6  N2  UNL     1      40.937  50.650  19.405  1.00  0.00    -0.352 N 
HETATM    7  C17 UNL     1      40.482  51.164  18.258  1.00  0.00     0.181 A 
ATOM      8  H2  UNL     1      41.704  51.127  19.878  1.00  0.00     0.166 HD
HETATM    9  N3  UNL     1      39.468  50.530  17.635  1.00  0.00    -0.345 N 
ATOM     10  H3  UNL     1      39.118  50.918  16.759  1.00  0.00     0.167 HD
BRANCH   5  11
HETATM   11  C11 UNL     1      40.984  49.038  21.222  1.00  0.00    -0.009 A 
HETATM   12  C12 UNL     1      41.498  47.770  21.367  1.00  0.00     0.013 A 
HETATM   13  C13 UNL     1      42.008  47.344  22.577  1.00  0.00     0.001 A 
HETATM   14  C14 UNL     1      42.010  48.175  23.652  1.00  0.00     0.000 A 
HETATM   15  C15 UNL     1      41.504  49.451  23.543  1.00  0.00     0.001 A 
HETATM   16  C16 UNL     1      40.995  49.884  22.343  1.00  0.00     0.013 A 
ENDBRANCH   5  11
ENDBRANCH   2   3
BRANCH   1  17
HETATM   17  C5  UNL     1      35.781  47.489  16.279  1.00  0.00     0.087 A 
HETATM   18  N1  UNL     1      35.434  46.230  16.584  1.00  0.00    -0.347 N 
HETATM   19  C4  UNL     1      34.396  45.589  15.987  1.00  0.00     0.060 A 
ATOM     20  H1  UNL     1      35.971  45.734  17.295  1.00  0.00     0.167 HD
HETATM   21  C3  UNL     1      34.093  44.299  16.347  1.00  0.00     0.037 A 
HETATM   22  C20 UNL     1      33.640  46.209  15.028  1.00  0.00     0.062 A 
HETATM   23  C2  UNL     1      33.037  43.661  15.734  1.00  0.00     0.077 A 
HETATM   24  C1  UNL     1      32.279  44.288  14.769  1.00  0.00     0.245 A 
HETATM   25  O1  UNL     1      31.304  43.695  14.205  1.00  0.00    -0.268 OA
HETATM   26  N4  UNL     1      32.621  45.547  14.459  1.00  0.00    -0.322 N 
ATOM     27  H4  UNL     1      32.074  46.031  13.748  1.00  0.00     0.169 HD
HETATM   28  C19 UNL     1      33.967  47.511  14.684  1.00  0.00     0.035 A 
HETATM   29  C18 UNL     1      35.029  48.129  15.313  1.00  0.00     0.041 A 
ENDBRANCH   1  17
TORSDOF 3
ENDMDL
MODEL 5
REMARK VINA RESULT: -5.060307336      4.066      9.585
REMARK  3 active torsions:
REMARK  status: ('A' for Active; 'I' for Inactive)
REMARK    1  A    between atoms: C5_8  and  C6_9 
REMARK    2  A    between atoms: C7_10  and  C8_11 
REMARK    3  A    between atoms: C10_13  and  C11_14 
ROOT
HETATM    1  C6  UNL     1      35.947  46.388  15.270  1.00  0.00    -0.042 C 
HETATM    2  C7  UNL     1      35.532  45.671  14.393  1.00  0.00    -0.042 C 
ENDROOT
BRANCH   2   3
HETATM    3  C8  UNL     1      35.062  44.811  13.344  1.00  0.00     0.090 A 
HETATM    4  C9  UNL     1      35.934  43.861  12.809  1.00  0.00     0.069 A 
HETATM    5  C10 UNL     1      35.544  43.013  11.807  1.00  0.00     0.046 A 
HETATM    6  N2  UNL     1      34.282  43.134  11.359  1.00  0.00    -0.352 N 
HETATM    7  C17 UNL     1      33.412  44.028  11.841  1.00  0.00     0.181 A 
ATOM      8  H2  UNL     1      33.971  42.511  10.614  1.00  0.00     0.166 HD
HETATM    9  N3  UNL     1      33.825  44.850  12.827  1.00  0.00    -0.345 N 
ATOM     10  H3  UNL     1      33.165  45.533  13.198  1.00  0.00     0.167 HD
BRANCH   5  11
HETATM   11  C11 UNL     1      36.433  42.014  11.230  1.00  0.00    -0.009 A 
HETATM   12  C12 UNL     1      35.981  40.862  10.628  1.00  0.00     0.013 A 
HETATM   13  C13 UNL     1      36.865  39.945  10.096  1.00  0.00     0.001 A 
HETATM   14  C14 UNL     1      38.203  40.165  10.157  1.00  0.00     0.000 A 
HETATM   15  C15 UNL     1      38.692  41.308  10.751  1.00  0.00     0.001 A 
HETATM   16  C16 UNL     1      37.821  42.226  11.284  1.00  0.00     0.013 A 
ENDBRANCH   5  11
ENDBRANCH   2   3
BRANCH   1  17
HETATM   17  C5  UNL     1      36.470  47.249  16.318  1.00  0.00     0.087 A 
HETATM   18  N1  UNL     1      37.661  47.853  16.201  1.00  0.00    -0.347 N 
HETATM   19  C4  UNL     1      38.174  48.662  17.165  1.00  0.00     0.060 A 
ATOM     20  H1  UNL     1      38.206  47.699  15.352  1.00  0.00     0.167 HD
HETATM   21  C3  UNL     1      39.401  49.250  16.981  1.00  0.00     0.037 A 
HETATM   22  C20 UNL     1      37.485  48.905  18.323  1.00  0.00     0.062 A 
HETATM   23  C2  UNL     1      39.909  50.068  17.966  1.00  0.00     0.077 A 
HETATM   24  C1  UNL     1      39.212  50.310  19.130  1.00  0.00     0.245 A 
HETATM   25  O1  UNL     1      39.685  51.067  20.039  1.00  0.00    -0.268 OA
HETATM   26  N4  UNL     1      38.019  49.709  19.254  1.00  0.00    -0.322 N 
ATOM     27  H4  UNL     1      37.486  49.873  20.107  1.00  0.00     0.169 HD
HETATM   28  C19 UNL     1      36.249  48.299  18.483  1.00  0.00     0.035 A 
HETATM   29  C18 UNL     1      35.762  47.483  17.482  1.00  0.00     0.041 A 
ENDBRANCH   1  17
TORSDOF 3
ENDMDL
