MODEL 1
REMARK VINA RESULT: -10.936104391      0.000      0.000
REMARK  4 active torsions:
REMARK  status: ('A' for Active; 'I' for Inactive)
REMARK    1  A    between atoms: N1_1  and  S1_4 
REMARK    2  A    between atoms: S1_4  and  C1_7 
REMARK    3  A    between atoms: C4_10  and  N2_11 
REMARK    4  A    between atoms: N2_11  and  C5_13 
ROOT
HETATM    1  C5  UNL     1      32.073  43.951  11.840  1.00  0.00     0.119 A 
HETATM    2  N3  UNL     1      30.970  43.187  11.977  1.00  0.00    -0.338 N 
ATOM      3  H3  UNL     1      30.747  42.521  11.237  1.00  0.00     0.168 HD
HETATM    4  C6  UNL     1      30.149  43.261  13.040  1.00  0.00     0.182 A 
HETATM    5  N4  UNL     1      30.474  44.157  14.002  1.00  0.00    -0.352 N 
ATOM      6  H4  UNL     1      29.869  44.237  14.820  1.00  0.00     0.166 HD
HETATM    7  C7  UNL     1      31.560  44.947  13.925  1.00  0.00     0.048 A 
HETATM    8  C8  UNL     1      31.895  45.862  14.904  1.00  0.00     0.042 A 
HETATM    9  C9  UNL     1      33.014  46.673  14.818  1.00  0.00    -0.024 A 
HETATM   10  C10 UNL     1      33.344  47.587  15.801  1.00  0.00     0.012 A 
HETATM   11  C11 UNL     1      34.467  48.388  15.698  1.00  0.00     0.001 A 
HETATM   12  C12 UNL     1      35.303  48.304  14.603  1.00  0.00     0.001 A 
HETATM   13  C13 UNL     1      34.967  47.387  13.622  1.00  0.00     0.012 A 
HETATM   14  C14 UNL     1      33.842  46.582  13.724  1.00  0.00    -0.025 A 
HETATM   15  C15 UNL     1      33.514  45.666  12.733  1.00  0.00     0.029 A 
HETATM   16  C16 UNL     1      32.394  44.860  12.827  1.00  0.00     0.036 A 
ENDROOT
BRANCH   1  17
HETATM   17  N2  UNL     1      32.837  43.863  10.824  1.00  0.00    -0.342 N 
ATOM     18  H2  UNL     1      32.574  44.408  10.003  1.00  0.00     0.167 HD
BRANCH  17  19
HETATM   19  C4  UNL     1      34.003  43.091  10.724  1.00  0.00     0.033 A 
HETATM   20  C3  UNL     1      34.254  42.360   9.587  1.00  0.00     0.031 A 
HETATM   21  C2  UNL     1      35.428  41.618   9.555  1.00  0.00     0.027 A 
HETATM   22  C1  UNL     1      36.323  41.596  10.604  1.00  0.00     0.079 A 
HETATM   23  C18 UNL     1      36.061  42.336  11.747  1.00  0.00     0.027 A 
HETATM   24  C17 UNL     1      34.901  43.072  11.783  1.00  0.00     0.031 A 
BRANCH  22  25
HETATM   25  S1  UNL     1      37.805  40.655  10.558  1.00  0.00     0.256 S 
HETATM   26  O1  UNL     1      38.946  41.644  10.497  1.00  0.00    -0.201 OA
HETATM   27  O2  UNL     1      37.937  39.806  11.787  1.00  0.00    -0.201 OA
BRANCH  25  28
HETATM   28  N1  UNL     1      37.817  39.665   9.121  1.00  0.00    -0.324 N 
ATOM     29  H12 UNL     1      37.820  40.030   8.169  1.00  0.00     0.169 HD
ATOM     30  H11 UNL     1      37.821  38.680   9.386  1.00  0.00     0.169 HD
ENDBRANCH  25  28
ENDBRANCH  22  25
ENDBRANCH  17  19
ENDBRANCH   1  17
TORSDOF 4
ENDMDL
MODEL 2
REMARK VINA RESULT: -10.850997957      3.922      6.354
REMARK  4 active torsions:
REMARK  status: ('A' for Active; 'I' for Inactive)
REMARK    1  A    between atoms: N1_1  and  S1_4 
REMARK    2  A    between atoms: S1_4  and  C1_7 
REMARK    3  A    between atoms: C4_10  and  N2_11 
REMARK    4  A    between atoms: N2_11  and  C5_13 
ROOT
HETATM    1  C5  UNL     1      31.319  44.142  13.274  1.00  0.00     0.119 A 
HETATM    2  N3  UNL     1      30.137  44.658  12.879  1.00  0.00    -0.338 N 
ATOM      3  H3  UNL     1      29.486  44.980  13.595  1.00  0.00     0.168 HD
HETATM    4  C6  UNL     1      29.774  44.767  11.588  1.00  0.00     0.182 A 
HETATM    5  N4  UNL     1      30.661  44.328  10.664  1.00  0.00    -0.352 N 
ATOM      6  H4  UNL     1      30.413  44.397   9.677  1.00  0.00     0.166 HD
HETATM    7  C7  UNL     1      31.856  43.805  10.992  1.00  0.00     0.048 A 
HETATM    8  C8  UNL     1      32.763  43.356  10.053  1.00  0.00     0.042 A 
HETATM    9  C9  UNL     1      33.991  42.817  10.399  1.00  0.00    -0.024 A 
HETATM   10  C10 UNL     1      34.895  42.370   9.453  1.00  0.00     0.012 A 
HETATM   11  C11 UNL     1      36.119  41.835   9.817  1.00  0.00     0.001 A 
HETATM   12  C12 UNL     1      36.482  41.727  11.144  1.00  0.00     0.001 A 
HETATM   13  C13 UNL     1      35.572  42.177  12.085  1.00  0.00     0.012 A 
HETATM   14  C14 UNL     1      34.345  42.714  11.723  1.00  0.00    -0.025 A 
HETATM   15  C15 UNL     1      33.440  43.162  12.676  1.00  0.00     0.029 A 
HETATM   16  C16 UNL     1      32.214  43.699  12.323  1.00  0.00     0.036 A 
ENDROOT
BRANCH   1  17
HETATM   17  N2  UNL     1      31.642  44.049  14.502  1.00  0.00    -0.342 N 
ATOM     18  H2  UNL     1      31.100  43.400  15.072  1.00  0.00     0.167 HD
BRANCH  17  19
HETATM   19  C4  UNL     1      32.670  44.751  15.148  1.00  0.00     0.033 A 
HETATM   20  C3  UNL     1      32.840  46.096  14.919  1.00  0.00     0.031 A 
HETATM   21  C2  UNL     1      33.878  46.728  15.593  1.00  0.00     0.027 A 
HETATM   22  C1  UNL     1      34.717  46.061  16.459  1.00  0.00     0.079 A 
HETATM   23  C18 UNL     1      34.539  44.705  16.684  1.00  0.00     0.027 A 
HETATM   24  C17 UNL     1      33.513  44.075  16.020  1.00  0.00     0.031 A 
BRANCH  22  25
HETATM   25  S1  UNL     1      36.029  46.866  17.307  1.00  0.00     0.256 S 
HETATM   26  O1  UNL     1      35.423  48.057  18.014  1.00  0.00    -0.201 OA
HETATM   27  O2  UNL     1      36.658  45.949  18.312  1.00  0.00    -0.201 OA
BRANCH  25  28
HETATM   28  N1  UNL     1      37.212  47.419  16.149  1.00  0.00    -0.324 N 
ATOM     29  H12 UNL     1      37.840  46.807  15.630  1.00  0.00     0.169 HD
ATOM     30  H11 UNL     1      37.171  48.436  16.081  1.00  0.00     0.169 HD
ENDBRANCH  25  28
ENDBRANCH  22  25
ENDBRANCH  17  19
ENDBRANCH   1  17
TORSDOF 4
ENDMDL
MODEL 3
REMARK VINA RESULT: -10.091606113      3.979      6.295
REMARK  4 active torsions:
REMARK  status: ('A' for Active; 'I' for Inactive)
REMARK    1  A    between atoms: N1_1  and  S1_4 
REMARK    2  A    between atoms: S1_4  and  C1_7 
REMARK    3  A    between atoms: C4_10  and  N2_11 
REMARK    4  A    between atoms: N2_11  and  C5_13 
ROOT
HETATM    1  C5  UNL     1      32.072  45.645  12.122  1.00  0.00     0.119 A 
HETATM    2  N3  UNL     1      30.760  45.463  11.866  1.00  0.00    -0.338 N 
ATOM      3  H3  UNL     1      30.108  46.200  12.135  1.00  0.00     0.168 HD
HETATM    4  C6  UNL     1      30.270  44.358  11.276  1.00  0.00     0.182 A 
HETATM    5  N4  UNL     1      31.164  43.400  10.934  1.00  0.00    -0.352 N 
ATOM      6  H4  UNL     1      30.821  42.550  10.485  1.00  0.00     0.166 HD
HETATM    7  C7  UNL     1      32.484  43.521  11.161  1.00  0.00     0.048 A 
HETATM    8  C8  UNL     1      33.399  42.546  10.814  1.00  0.00     0.042 A 
HETATM    9  C9  UNL     1      34.756  42.677  11.051  1.00  0.00    -0.024 A 
HETATM   10  C10 UNL     1      35.666  41.697  10.701  1.00  0.00     0.012 A 
HETATM   11  C11 UNL     1      37.021  41.845  10.946  1.00  0.00     0.001 A 
HETATM   12  C12 UNL     1      37.514  42.983  11.553  1.00  0.00     0.001 A 
HETATM   13  C13 UNL     1      36.596  43.960  11.900  1.00  0.00     0.012 A 
HETATM   14  C14 UNL     1      35.239  43.813  11.655  1.00  0.00    -0.025 A 
HETATM   15  C15 UNL     1      34.328  44.800  12.009  1.00  0.00     0.029 A 
HETATM   16  C16 UNL     1      32.972  44.662  11.769  1.00  0.00     0.036 A 
ENDROOT
BRANCH   1  17
HETATM   17  N2  UNL     1      32.514  46.700  12.681  1.00  0.00    -0.342 N 
ATOM     18  H2  UNL     1      32.251  47.590  12.257  1.00  0.00     0.167 HD
BRANCH  17  19
HETATM   19  C4  UNL     1      33.326  46.760  13.823  1.00  0.00     0.033 A 
HETATM   20  C3  UNL     1      32.980  46.062  14.955  1.00  0.00     0.031 A 
HETATM   21  C2  UNL     1      33.829  46.166  16.050  1.00  0.00     0.027 A 
HETATM   22  C1  UNL     1      34.976  46.931  16.031  1.00  0.00     0.079 A 
HETATM   23  C18 UNL     1      35.317  47.632  14.885  1.00  0.00     0.027 A 
HETATM   24  C17 UNL     1      34.480  47.531  13.799  1.00  0.00     0.031 A 
BRANCH  22  25
HETATM   25  S1  UNL     1      36.046  47.059  17.419  1.00  0.00     0.256 S 
HETATM   26  O1  UNL     1      35.296  47.838  18.474  1.00  0.00    -0.201 OA
HETATM   27  O2  UNL     1      36.399  45.702  17.948  1.00  0.00    -0.201 OA
BRANCH  25  28
HETATM   28  N1  UNL     1      37.483  47.937  16.962  1.00  0.00    -0.324 N 
ATOM     29  H12 UNL     1      37.536  48.592  16.182  1.00  0.00     0.169 HD
ATOM     30  H11 UNL     1      38.246  47.691  17.592  1.00  0.00     0.169 HD
ENDBRANCH  25  28
ENDBRANCH  22  25
ENDBRANCH  17  19
ENDBRANCH   1  17
TORSDOF 4
ENDMDL
MODEL 4
REMARK VINA RESULT: -10.086367237      1.791      2.264
REMARK  4 active torsions:
REMARK  status: ('A' for Active; 'I' for Inactive)
REMARK    1  A    between atoms: N1_1  and  S1_4 
REMARK    2  A    between atoms: S1_4  and  C1_7 
REMARK    3  A    between atoms: C4_10  and  N2_11 
REMARK    4  A    between atoms: N2_11  and  C5_13 
ROOT
HETATM    1  C5  UNL     1      31.873  45.032  13.192  1.00  0.00     0.119 A 
HETATM    2  N3  UNL     1      30.942  45.645  12.432  1.00  0.00    -0.338 N 
ATOM      3  H3  UNL     1      30.445  45.092  11.734  1.00  0.00     0.168 HD
HETATM    4  C6  UNL     1      30.636  46.950  12.551  1.00  0.00     0.182 A 
HETATM    5  N4  UNL     1      31.315  47.655  13.486  1.00  0.00    -0.352 N 
ATOM      6  H4  UNL     1      31.106  48.647  13.598  1.00  0.00     0.166 HD
HETATM    7  C7  UNL     1      32.255  47.102  14.275  1.00  0.00     0.048 A 
HETATM    8  C8  UNL     1      32.950  47.817  15.230  1.00  0.00     0.042 A 
HETATM    9  C9  UNL     1      33.916  47.243  16.038  1.00  0.00    -0.024 A 
HETATM   10  C10 UNL     1      34.608  47.964  16.993  1.00  0.00     0.012 A 
HETATM   11  C11 UNL     1      35.570  47.372  17.792  1.00  0.00     0.001 A 
HETATM   12  C12 UNL     1      35.877  46.032  17.663  1.00  0.00     0.001 A 
HETATM   13  C13 UNL     1      35.180  45.316  16.705  1.00  0.00     0.012 A 
HETATM   14  C14 UNL     1      34.214  45.908  15.903  1.00  0.00    -0.025 A 
HETATM   15  C15 UNL     1      33.522  45.179  14.945  1.00  0.00     0.029 A 
HETATM   16  C16 UNL     1      32.558  45.761  14.142  1.00  0.00     0.036 A 
ENDROOT
BRANCH   1  17
HETATM   17  N2  UNL     1      32.145  43.795  13.063  1.00  0.00    -0.342 N 
ATOM     18  H2  UNL     1      31.459  43.133  13.426  1.00  0.00     0.167 HD
BRANCH  17  19
HETATM   19  C4  UNL     1      33.294  43.252  12.470  1.00  0.00     0.033 A 
HETATM   20  C3  UNL     1      33.406  43.196  11.101  1.00  0.00     0.031 A 
HETATM   21  C2  UNL     1      34.572  42.646  10.582  1.00  0.00     0.027 A 
HETATM   22  C1  UNL     1      35.589  42.168  11.381  1.00  0.00     0.079 A 
HETATM   23  C18 UNL     1      35.467  42.227  12.760  1.00  0.00     0.027 A 
HETATM   24  C17 UNL     1      34.316  42.772  13.279  1.00  0.00     0.031 A 
BRANCH  22  25
HETATM   25  S1  UNL     1      37.059  41.472  10.717  1.00  0.00     0.256 S 
HETATM   26  O1  UNL     1      38.060  42.599  10.604  1.00  0.00    -0.201 OA
HETATM   27  O2  UNL     1      37.601  40.406  11.622  1.00  0.00    -0.201 OA
BRANCH  25  28
HETATM   28  N1  UNL     1      36.729  40.827   9.130  1.00  0.00    -0.324 N 
ATOM     29  H12 UNL     1      37.343  40.935   8.324  1.00  0.00     0.169 HD
ATOM     30  H11 UNL     1      35.836  40.333   9.144  1.00  0.00     0.169 HD
ENDBRANCH  25  28
ENDBRANCH  22  25
ENDBRANCH  17  19
ENDBRANCH   1  17
TORSDOF 4
ENDMDL
MODEL 5
REMARK VINA RESULT: -9.739259075      4.203      5.878
REMARK  4 active torsions:
REMARK  status: ('A' for Active; 'I' for Inactive)
REMARK    1  A    between atoms: N1_1  and  S1_4 
REMARK    2  A    between atoms: S1_4  and  C1_7 
REMARK    3  A    between atoms: C4_10  and  N2_11 
REMARK    4  A    between atoms: N2_11  and  C5_13 
ROOT
HETATM    1  C5  UNL     1      34.180  42.926  11.834  1.00  0.00     0.119 A 
HETATM    2  N3  UNL     1      34.686  42.409  10.696  1.00  0.00    -0.338 N 
ATOM      3  H3  UNL     1      35.555  41.879  10.749  1.00  0.00     0.168 HD
HETATM    4  C6  UNL     1      34.099  42.557   9.494  1.00  0.00     0.182 A 
HETATM    5  N4  UNL     1      32.947  43.268   9.460  1.00  0.00    -0.352 N 
ATOM      6  H4  UNL     1      32.480  43.398   8.562  1.00  0.00     0.166 HD
HETATM    7  C7  UNL     1      32.391  43.809  10.559  1.00  0.00     0.048 A 
HETATM    8  C8  UNL     1      31.216  44.533  10.528  1.00  0.00     0.042 A 
HETATM    9  C9  UNL     1      30.651  45.088  11.663  1.00  0.00    -0.024 A 
HETATM   10  C10 UNL     1      29.474  45.813  11.625  1.00  0.00     0.012 A 
HETATM   11  C11 UNL     1      28.922  46.360  12.771  1.00  0.00     0.001 A 
HETATM   12  C12 UNL     1      29.531  46.201  13.999  1.00  0.00     0.001 A 
HETATM   13  C13 UNL     1      30.709  45.475  14.029  1.00  0.00     0.012 A 
HETATM   14  C14 UNL     1      31.263  44.925  12.882  1.00  0.00    -0.025 A 
HETATM   15  C15 UNL     1      32.445  44.199  12.925  1.00  0.00     0.029 A 
HETATM   16  C16 UNL     1      33.005  43.647  11.786  1.00  0.00     0.036 A 
ENDROOT
BRANCH   1  17
HETATM   17  N2  UNL     1      34.752  42.772  12.962  1.00  0.00    -0.342 N 
ATOM     18  H2  UNL     1      35.069  41.830  13.192  1.00  0.00     0.167 HD
BRANCH  17  19
HETATM   19  C4  UNL     1      34.989  43.769  13.919  1.00  0.00     0.033 A 
HETATM   20  C3  UNL     1      35.887  44.776  13.660  1.00  0.00     0.031 A 
HETATM   21  C2  UNL     1      36.073  45.731  14.653  1.00  0.00     0.027 A 
HETATM   22  C1  UNL     1      35.401  45.694  15.855  1.00  0.00     0.079 A 
HETATM   23  C18 UNL     1      34.497  44.674  16.108  1.00  0.00     0.027 A 
HETATM   24  C17 UNL     1      34.309  43.728  15.129  1.00  0.00     0.031 A 
BRANCH  22  25
HETATM   25  S1  UNL     1      35.642  46.904  17.107  1.00  0.00     0.256 S 
HETATM   26  O1  UNL     1      34.473  47.857  17.020  1.00  0.00    -0.201 OA
HETATM   27  O2  UNL     1      35.676  46.268  18.464  1.00  0.00    -0.201 OA
BRANCH  25  28
HETATM   28  N1  UNL     1      37.123  47.772  16.793  1.00  0.00    -0.324 N 
ATOM     29  H12 UNL     1      37.521  47.919  15.866  1.00  0.00     0.169 HD
ATOM     30  H11 UNL     1      37.516  48.102  17.675  1.00  0.00     0.169 HD
ENDBRANCH  25  28
ENDBRANCH  22  25
ENDBRANCH  17  19
ENDBRANCH   1  17
TORSDOF 4
ENDMDL
