MODEL 1
REMARK VINA RESULT: -10.256816303      0.000      0.000
REMARK  1 active torsions:
REMARK  status: ('A' for Active; 'I' for Inactive)
REMARK    1  A    between atoms: C7_8  and  C8_9 
ROOT
HETATM    1  N1  UNL     1      36.519  48.385  19.013  1.00  0.00    -0.191 NA
HETATM    2  C1  UNL     1      36.110  48.102  17.954  1.00  0.00     0.102 C 
HETATM    3  C2  UNL     1      35.611  47.767  16.647  1.00  0.00     0.072 A 
HETATM    4  C3  UNL     1      35.635  48.690  15.631  1.00  0.00     0.025 A 
HETATM    5  C4  UNL     1      35.156  48.374  14.377  1.00  0.00     0.003 A 
HETATM    6  C5  UNL     1      34.659  47.102  14.195  1.00  0.00     0.015 A 
HETATM    7  C6  UNL     1      34.628  46.166  15.202  1.00  0.00     0.006 A 
HETATM    8  C7  UNL     1      34.187  44.865  15.317  1.00  0.00     0.017 A 
HETATM    9  C16 UNL     1      34.404  44.426  16.648  1.00  0.00     0.102 A 
HETATM   10  N4  UNL     1      34.963  45.444  17.295  1.00  0.00    -0.363 N 
ATOM     11  H4  UNL     1      35.238  45.428  18.277  1.00  0.00     0.165 HD
HETATM   12  C17 UNL     1      35.116  46.498  16.474  1.00  0.00     0.064 A 
ENDROOT
BRANCH   8  13
HETATM   13  C8  UNL     1      33.677  43.981  14.295  1.00  0.00     0.050 C 
HETATM   14  N2  UNL     1      32.673  44.467  13.571  1.00  0.00    -0.282 N 
HETATM   15  S1  UNL     1      31.843  43.669  12.270  1.00  0.00     0.265 S 
ATOM     16  H2  UNL     1      32.357  45.409  13.803  1.00  0.00     0.178 HD
HETATM   17  O1  UNL     1      31.083  44.685  11.474  1.00  0.00    -0.200 OA
HETATM   18  O2  UNL     1      30.976  42.548  12.747  1.00  0.00    -0.200 OA
HETATM   19  C9  UNL     1      33.114  43.034  11.202  1.00  0.00     0.106 A 
HETATM   20  C10 UNL     1      32.742  43.029   9.875  1.00  0.00     0.027 A 
HETATM   21  C14 UNL     1      34.372  42.576  11.545  1.00  0.00     0.051 A 
HETATM   22  C11 UNL     1      33.636  42.569   8.928  1.00  0.00     0.002 A 
HETATM   23  C12 UNL     1      34.896  42.108   9.247  1.00  0.00     0.002 A 
HETATM   24  C13 UNL     1      35.266  42.113  10.574  1.00  0.00     0.031 A 
HETATM   25  N3  UNL     1      34.924  42.506  12.883  1.00  0.00    -0.383 N 
HETATM   26  C15 UNL     1      34.152  42.620  14.113  1.00  0.00     0.178 C 
ATOM     27  H3  UNL     1      35.930  42.366  12.970  1.00  0.00     0.160 HD
ENDBRANCH   8  13
TORSDOF 1
ENDMDL
MODEL 2
REMARK VINA RESULT: -9.241116143      2.993      6.195
REMARK  1 active torsions:
REMARK  status: ('A' for Active; 'I' for Inactive)
REMARK    1  A    between atoms: C7_8  and  C8_9 
ROOT
HETATM    1  N1  UNL     1      39.040  41.301  10.672  1.00  0.00    -0.191 NA
HETATM    2  C1  UNL     1      37.931  41.674  10.680  1.00  0.00     0.102 C 
HETATM    3  C2  UNL     1      36.565  42.124  10.678  1.00  0.00     0.072 A 
HETATM    4  C3  UNL     1      35.677  41.661   9.739  1.00  0.00     0.025 A 
HETATM    5  C4  UNL     1      34.367  42.090   9.732  1.00  0.00     0.003 A 
HETATM    6  C5  UNL     1      33.996  42.995  10.702  1.00  0.00     0.015 A 
HETATM    7  C6  UNL     1      34.872  43.467  11.651  1.00  0.00     0.006 A 
HETATM    8  C7  UNL     1      34.795  44.361  12.698  1.00  0.00     0.017 A 
HETATM    9  C16 UNL     1      36.070  44.457  13.310  1.00  0.00     0.102 A 
HETATM   10  N4  UNL     1      36.873  43.635  12.642  1.00  0.00    -0.363 N 
ATOM     11  H4  UNL     1      37.861  43.487  12.853  1.00  0.00     0.165 HD
HETATM   12  C17 UNL     1      36.203  43.026  11.648  1.00  0.00     0.064 A 
ENDROOT
BRANCH   8  13
HETATM   13  C8  UNL     1      33.640  45.050  13.225  1.00  0.00     0.050 C 
HETATM   14  N2  UNL     1      32.862  45.634  12.319  1.00  0.00    -0.282 N 
HETATM   15  S1  UNL     1      31.405  46.531  12.618  1.00  0.00     0.265 S 
ATOM     16  H2  UNL     1      33.150  45.544  11.344  1.00  0.00     0.178 HD
HETATM   17  O1  UNL     1      30.635  46.660  11.340  1.00  0.00    -0.200 OA
HETATM   18  O2  UNL     1      31.670  47.854  13.263  1.00  0.00    -0.200 OA
HETATM   19  C9  UNL     1      30.426  45.519  13.702  1.00  0.00     0.106 A 
HETATM   20  C10 UNL     1      29.072  45.664  13.488  1.00  0.00     0.027 A 
HETATM   21  C14 UNL     1      30.858  44.642  14.679  1.00  0.00     0.051 A 
HETATM   22  C11 UNL     1      28.189  44.929  14.255  1.00  0.00     0.002 A 
HETATM   23  C12 UNL     1      28.598  44.049  15.235  1.00  0.00     0.002 A 
HETATM   24  C13 UNL     1      29.951  43.905  15.448  1.00  0.00     0.031 A 
HETATM   25  N3  UNL     1      32.235  44.371  15.039  1.00  0.00    -0.383 N 
HETATM   26  C15 UNL     1      33.378  45.185  14.648  1.00  0.00     0.178 C 
ATOM     27  H3  UNL     1      32.419  43.546  15.610  1.00  0.00     0.160 HD
ENDBRANCH   8  13
TORSDOF 1
ENDMDL
MODEL 3
REMARK VINA RESULT: -9.235799602      3.565      6.689
REMARK  1 active torsions:
REMARK  status: ('A' for Active; 'I' for Inactive)
REMARK    1  A    between atoms: C7_8  and  C8_9 
ROOT
HETATM    1  N1  UNL     1      38.231  39.255   8.959  1.00  0.00    -0.191 NA
HETATM    2  C1  UNL     1      37.915  40.188   9.589  1.00  0.00     0.102 C 
HETATM    3  C2  UNL     1      37.542  41.338  10.369  1.00  0.00     0.072 A 
HETATM    4  C3  UNL     1      38.480  42.022  11.102  1.00  0.00     0.025 A 
HETATM    5  C4  UNL     1      38.126  43.124  11.852  1.00  0.00     0.003 A 
HETATM    6  C5  UNL     1      36.802  43.502  11.830  1.00  0.00     0.015 A 
HETATM    7  C6  UNL     1      35.850  42.828  11.100  1.00  0.00     0.006 A 
HETATM    8  C7  UNL     1      34.491  42.958  10.908  1.00  0.00     0.017 A 
HETATM    9  C16 UNL     1      34.053  41.919  10.047  1.00  0.00     0.102 A 
HETATM   10  N4  UNL     1      35.130  41.203   9.739  1.00  0.00    -0.363 N 
ATOM     11  H4  UNL     1      35.129  40.384   9.131  1.00  0.00     0.165 HD
HETATM   12  C17 UNL     1      36.220  41.708  10.343  1.00  0.00     0.064 A 
ENDROOT
BRANCH   8  13
HETATM   13  C8  UNL     1      33.599  43.995  11.370  1.00  0.00     0.050 C 
HETATM   14  N2  UNL     1      32.524  44.200  10.614  1.00  0.00    -0.282 N 
HETATM   15  S1  UNL     1      31.261  45.359  10.890  1.00  0.00     0.265 S 
ATOM     16  H2  UNL     1      32.432  43.613   9.784  1.00  0.00     0.178 HD
HETATM   17  O1  UNL     1      30.067  44.994  10.062  1.00  0.00    -0.200 OA
HETATM   18  O2  UNL     1      31.713  46.765  10.654  1.00  0.00    -0.200 OA
HETATM   19  C9  UNL     1      30.782  45.159  12.589  1.00  0.00     0.106 A 
HETATM   20  C10 UNL     1      29.443  45.408  12.798  1.00  0.00     0.027 A 
HETATM   21  C14 UNL     1      31.569  44.791  13.664  1.00  0.00     0.051 A 
HETATM   22  C11 UNL     1      28.927  45.282  14.074  1.00  0.00     0.002 A 
HETATM   23  C12 UNL     1      29.693  44.916  15.160  1.00  0.00     0.002 A 
HETATM   24  C13 UNL     1      31.031  44.668  14.950  1.00  0.00     0.031 A 
HETATM   25  N3  UNL     1      32.987  44.498  13.627  1.00  0.00    -0.383 N 
HETATM   26  C15 UNL     1      33.882  44.828  12.526  1.00  0.00     0.178 C 
ATOM     27  H3  UNL     1      33.391  44.024  14.435  1.00  0.00     0.160 HD
ENDBRANCH   8  13
TORSDOF 1
ENDMDL
MODEL 4
REMARK VINA RESULT: -8.983317160      3.039      4.280
REMARK  1 active torsions:
REMARK  status: ('A' for Active; 'I' for Inactive)
REMARK    1  A    between atoms: C7_8  and  C8_9 
ROOT
HETATM    1  N1  UNL     1      38.366  49.518  18.043  1.00  0.00    -0.191 NA
HETATM    2  C1  UNL     1      37.621  48.664  17.751  1.00  0.00     0.102 C 
HETATM    3  C2  UNL     1      36.711  47.605  17.404  1.00  0.00     0.072 A 
HETATM    4  C3  UNL     1      36.610  46.483  18.188  1.00  0.00     0.025 A 
HETATM    5  C4  UNL     1      35.740  45.466  17.859  1.00  0.00     0.003 A 
HETATM    6  C5  UNL     1      34.984  45.628  16.719  1.00  0.00     0.015 A 
HETATM    7  C6  UNL     1      35.072  46.747  15.923  1.00  0.00     0.006 A 
HETATM    8  C7  UNL     1      34.476  47.165  14.752  1.00  0.00     0.017 A 
HETATM    9  C16 UNL     1      35.011  48.430  14.396  1.00  0.00     0.102 A 
HETATM   10  N4  UNL     1      35.894  48.746  15.339  1.00  0.00    -0.363 N 
ATOM     11  H4  UNL     1      36.443  49.606  15.356  1.00  0.00     0.165 HD
HETATM   12  C17 UNL     1      35.961  47.775  16.266  1.00  0.00     0.064 A 
ENDROOT
BRANCH   8  13
HETATM   13  C8  UNL     1      33.409  46.548  14.000  1.00  0.00     0.050 C 
HETATM   14  N2  UNL     1      33.624  45.287  13.637  1.00  0.00    -0.282 N 
HETATM   15  S1  UNL     1      32.548  44.264  12.736  1.00  0.00     0.265 S 
ATOM     16  H2  UNL     1      34.515  44.877  13.918  1.00  0.00     0.178 HD
HETATM   17  O1  UNL     1      32.977  42.838  12.894  1.00  0.00    -0.200 OA
HETATM   18  O2  UNL     1      32.434  44.673  11.302  1.00  0.00    -0.200 OA
HETATM   19  C9  UNL     1      30.964  44.408  13.529  1.00  0.00     0.106 A 
HETATM   20  C10 UNL     1      30.229  43.245  13.467  1.00  0.00     0.027 A 
HETATM   21  C14 UNL     1      30.425  45.505  14.174  1.00  0.00     0.051 A 
HETATM   22  C11 UNL     1      28.977  43.209  14.052  1.00  0.00     0.002 A 
HETATM   23  C12 UNL     1      28.421  44.290  14.700  1.00  0.00     0.002 A 
HETATM   24  C13 UNL     1      29.156  45.453  14.761  1.00  0.00     0.031 A 
HETATM   25  N3  UNL     1      31.053  46.802  14.329  1.00  0.00    -0.383 N 
HETATM   26  C15 UNL     1      32.215  47.264  13.583  1.00  0.00     0.178 C 
ATOM     27  H3  UNL     1      30.649  47.441  15.014  1.00  0.00     0.160 HD
ENDBRANCH   8  13
TORSDOF 1
ENDMDL
MODEL 5
REMARK VINA RESULT: -8.910621288      1.829      2.260
REMARK  1 active torsions:
REMARK  status: ('A' for Active; 'I' for Inactive)
REMARK    1  A    between atoms: C7_8  and  C8_9 
ROOT
HETATM    1  N1  UNL     1      37.817  48.123  18.754  1.00  0.00    -0.191 NA
HETATM    2  C1  UNL     1      37.042  47.984  17.889  1.00  0.00     0.102 C 
HETATM    3  C2  UNL     1      36.093  47.826  16.820  1.00  0.00     0.072 A 
HETATM    4  C3  UNL     1      35.958  48.793  15.855  1.00  0.00     0.025 A 
HETATM    5  C4  UNL     1      35.049  48.646  14.828  1.00  0.00     0.003 A 
HETATM    6  C5  UNL     1      34.292  47.495  14.818  1.00  0.00     0.015 A 
HETATM    7  C6  UNL     1      34.415  46.516  15.776  1.00  0.00     0.006 A 
HETATM    8  C7  UNL     1      33.800  45.308  16.028  1.00  0.00     0.017 A 
HETATM    9  C16 UNL     1      34.351  44.755  17.212  1.00  0.00     0.102 A 
HETATM   10  N4  UNL     1      35.270  45.616  17.640  1.00  0.00    -0.363 N 
ATOM     11  H4  UNL     1      35.840  45.489  18.476  1.00  0.00     0.165 HD
HETATM   12  C17 UNL     1      35.341  46.676  16.817  1.00  0.00     0.064 A 
ENDROOT
BRANCH   8  13
HETATM   13  C8  UNL     1      32.831  44.594  15.230  1.00  0.00     0.050 C 
HETATM   14  N2  UNL     1      31.606  45.110  15.226  1.00  0.00    -0.282 N 
HETATM   15  S1  UNL     1      30.222  44.503  14.371  1.00  0.00     0.265 S 
ATOM     16  H2  UNL     1      31.464  45.953  15.784  1.00  0.00     0.178 HD
HETATM   17  O1  UNL     1      29.177  45.573  14.301  1.00  0.00    -0.200 OA
HETATM   18  O2  UNL     1      29.700  43.230  14.957  1.00  0.00    -0.200 OA
HETATM   19  C9  UNL     1      30.768  44.216  12.704  1.00  0.00     0.106 A 
HETATM   20  C10 UNL     1      29.776  44.434  11.773  1.00  0.00     0.027 A 
HETATM   21  C14 UNL     1      32.020  43.828  12.268  1.00  0.00     0.051 A 
HETATM   22  C11 UNL     1      30.061  44.257  10.433  1.00  0.00     0.002 A 
HETATM   23  C12 UNL     1      31.303  43.870   9.975  1.00  0.00     0.002 A 
HETATM   24  C13 UNL     1      32.294  43.653  10.907  1.00  0.00     0.031 A 
HETATM   25  N3  UNL     1      33.172  43.553  13.103  1.00  0.00    -0.383 N 
HETATM   26  C15 UNL     1      33.131  43.349  14.544  1.00  0.00     0.178 C 
ATOM     27  H3  UNL     1      34.083  43.499  12.646  1.00  0.00     0.160 HD
ENDBRANCH   8  13
TORSDOF 1
ENDMDL
