MODEL 1
REMARK VINA RESULT: -6.963743100      0.000      0.000
REMARK  2 active torsions:
REMARK  status: ('A' for Active; 'I' for Inactive)
REMARK    1  A    between atoms: C4_11  and  N4_12 
REMARK    2  A    between atoms: N4_12  and  C5_14 
ROOT
HETATM    1  C1  UNL     1      39.413  37.094  29.694  1.00  0.00     0.178 C 
HETATM    2  N1  UNL     1      38.403  36.197  30.262  1.00  0.00    -0.162 N 
HETATM    3  C2  UNL     1      37.875  36.450  31.472  1.00  0.00     0.194 A 
HETATM    4  S1  UNL     1      38.363  37.765  32.310  1.00  0.00    -0.040 SA
HETATM    5  N2  UNL     1      36.943  35.630  32.009  1.00  0.00    -0.309 N 
ATOM      6  H2  UNL     1      36.549  35.831  32.928  1.00  0.00     0.170 HD
HETATM    7  C3  UNL     1      36.540  34.548  31.321  1.00  0.00     0.192 A 
HETATM    8  S2  UNL     1      35.401  33.542  31.972  1.00  0.00    -0.040 SA
HETATM    9  N3  UNL     1      37.072  34.300  30.114  1.00  0.00    -0.166 N 
ATOM     10  H3  UNL     1      36.768  33.479  29.592  1.00  0.00     0.186 HD
HETATM   11  C4  UNL     1      37.989  35.107  29.585  1.00  0.00     0.684 A 
ENDROOT
BRANCH  11  12
HETATM   12  N4  UNL     1      38.535  34.924  28.434  1.00  0.00    -0.221 N 
ATOM     13  H4  UNL     1      39.464  35.321  28.292  1.00  0.00     0.178 HD
BRANCH  12  14
HETATM   14  C5  UNL     1      37.955  34.213  27.338  1.00  0.00     0.099 C 
HETATM   15  C6  UNL     1      38.442  34.707  25.983  1.00  0.00     0.026 C 
HETATM   16  C7  UNL     1      37.577  33.968  24.972  1.00  0.00     0.002 C 
HETATM   17  C8  UNL     1      38.007  32.537  25.008  1.00  0.00     0.000 C 
HETATM   18  C9  UNL     1      38.017  31.897  26.331  1.00  0.00     0.002 C 
HETATM   19  C10 UNL     1      38.178  32.745  27.520  1.00  0.00     0.026 C 
ENDBRANCH  12  14
ENDBRANCH  11  12
TORSDOF 2
ENDMDL
MODEL 2
REMARK VINA RESULT: -6.569567914      1.355      2.884
REMARK  2 active torsions:
REMARK  status: ('A' for Active; 'I' for Inactive)
REMARK    1  A    between atoms: C4_11  and  N4_12 
REMARK    2  A    between atoms: N4_12  and  C5_14 
ROOT
HETATM    1  C1  UNL     1      36.274  33.711  30.837  1.00  0.00     0.178 C 
HETATM    2  N1  UNL     1      37.215  34.764  30.444  1.00  0.00    -0.162 N 
HETATM    3  C2  UNL     1      37.497  35.770  31.288  1.00  0.00     0.194 A 
HETATM    4  S1  UNL     1      36.788  35.818  32.758  1.00  0.00    -0.040 SA
HETATM    5  N2  UNL     1      38.363  36.750  30.938  1.00  0.00    -0.309 N 
ATOM      6  H2  UNL     1      38.570  37.509  31.586  1.00  0.00     0.170 HD
HETATM    7  C3  UNL     1      38.948  36.712  29.728  1.00  0.00     0.192 A 
HETATM    8  S2  UNL     1      40.007  37.906  29.294  1.00  0.00    -0.040 SA
HETATM    9  N3  UNL     1      38.661  35.704  28.889  1.00  0.00    -0.166 N 
ATOM     10  H3  UNL     1      39.104  35.676  27.971  1.00  0.00     0.186 HD
HETATM   11  C4  UNL     1      37.809  34.741  29.234  1.00  0.00     0.684 A 
ENDROOT
BRANCH  11  12
HETATM   12  N4  UNL     1      37.495  33.750  28.475  1.00  0.00    -0.221 N 
ATOM     13  H4  UNL     1      36.816  33.082  28.841  1.00  0.00     0.178 HD
BRANCH  12  14
HETATM   14  C5  UNL     1      38.012  33.504  27.165  1.00  0.00     0.099 C 
HETATM   15  C6  UNL     1      38.211  32.024  26.872  1.00  0.00     0.026 C 
HETATM   16  C7  UNL     1      38.934  31.991  25.533  1.00  0.00     0.002 C 
HETATM   17  C8  UNL     1      37.944  32.431  24.503  1.00  0.00     0.000 C 
HETATM   18  C9  UNL     1      37.268  33.711  24.760  1.00  0.00     0.002 C 
HETATM   19  C10 UNL     1      37.140  34.171  26.149  1.00  0.00     0.026 C 
ENDBRANCH  12  14
ENDBRANCH  11  12
TORSDOF 2
ENDMDL
MODEL 3
REMARK VINA RESULT: -6.318701694      3.477      5.874
REMARK  2 active torsions:
REMARK  status: ('A' for Active; 'I' for Inactive)
REMARK    1  A    between atoms: C4_11  and  N4_12 
REMARK    2  A    between atoms: N4_12  and  C5_14 
ROOT
HETATM    1  C1  UNL     1      41.422  38.101  30.183  1.00  0.00     0.178 C 
HETATM    2  N1  UNL     1      40.821  37.261  29.143  1.00  0.00    -0.162 N 
HETATM    3  C2  UNL     1      41.589  36.713  28.187  1.00  0.00     0.194 A 
HETATM    4  S1  UNL     1      43.200  36.985  28.185  1.00  0.00    -0.040 SA
HETATM    5  N2  UNL     1      41.047  35.936  27.220  1.00  0.00    -0.309 N 
ATOM      6  H2  UNL     1      41.639  35.525  26.498  1.00  0.00     0.170 HD
HETATM    7  C3  UNL     1      39.722  35.710  27.219  1.00  0.00     0.192 A 
HETATM    8  S2  UNL     1      39.054  34.762  26.041  1.00  0.00    -0.040 SA
HETATM    9  N3  UNL     1      38.961  36.262  28.177  1.00  0.00    -0.166 N 
ATOM     10  H3  UNL     1      37.955  36.092  28.177  1.00  0.00     0.186 HD
HETATM   11  C4  UNL     1      39.493  37.026  29.128  1.00  0.00     0.684 A 
ENDROOT
BRANCH  11  12
HETATM   12  N4  UNL     1      38.817  37.581  30.072  1.00  0.00    -0.221 N 
ATOM     13  H4  UNL     1      38.452  38.516  29.893  1.00  0.00     0.178 HD
BRANCH  12  14
HETATM   14  C5  UNL     1      38.532  37.003  31.348  1.00  0.00     0.099 C 
HETATM   15  C6  UNL     1      38.101  38.029  32.385  1.00  0.00     0.026 C 
HETATM   16  C7  UNL     1      38.037  37.252  33.692  1.00  0.00     0.002 C 
HETATM   17  C8  UNL     1      36.860  36.335  33.585  1.00  0.00     0.000 C 
HETATM   18  C9  UNL     1      36.821  35.469  32.397  1.00  0.00     0.002 C 
HETATM   19  C10 UNL     1      37.529  35.904  31.186  1.00  0.00     0.026 C 
ENDBRANCH  12  14
ENDBRANCH  11  12
TORSDOF 2
ENDMDL
MODEL 4
REMARK VINA RESULT: -6.260623793      2.393      3.583
REMARK  2 active torsions:
REMARK  status: ('A' for Active; 'I' for Inactive)
REMARK    1  A    between atoms: C4_11  and  N4_12 
REMARK    2  A    between atoms: N4_12  and  C5_14 
ROOT
HETATM    1  C1  UNL     1      40.443  37.957  25.893  1.00  0.00     0.178 C 
HETATM    2  N1  UNL     1      40.005  37.835  27.286  1.00  0.00    -0.162 N 
HETATM    3  C2  UNL     1      40.454  38.696  28.214  1.00  0.00     0.194 A 
HETATM    4  S1  UNL     1      41.492  39.883  27.786  1.00  0.00    -0.040 SA
HETATM    5  N2  UNL     1      40.060  38.595  29.505  1.00  0.00    -0.309 N 
ATOM      6  H2  UNL     1      40.407  39.253  30.202  1.00  0.00     0.170 HD
HETATM    7  C3  UNL     1      39.206  37.619  29.860  1.00  0.00     0.192 A 
HETATM    8  S2  UNL     1      38.720  37.491  31.435  1.00  0.00    -0.040 SA
HETATM    9  N3  UNL     1      38.762  36.762  28.928  1.00  0.00    -0.166 N 
ATOM     10  H3  UNL     1      38.116  36.021  29.197  1.00  0.00     0.186 HD
HETATM   11  C4  UNL     1      39.151  36.861  27.658  1.00  0.00     0.684 A 
ENDROOT
BRANCH  11  12
HETATM   12  N4  UNL     1      38.760  36.071  26.720  1.00  0.00    -0.221 N 
ATOM     13  H4  UNL     1      38.355  36.502  25.889  1.00  0.00     0.178 HD
BRANCH  12  14
HETATM   14  C5  UNL     1      38.844  34.644  26.740  1.00  0.00     0.099 C 
HETATM   15  C6  UNL     1      37.637  33.986  27.392  1.00  0.00     0.026 C 
HETATM   16  C7  UNL     1      38.007  32.512  27.484  1.00  0.00     0.002 C 
HETATM   17  C8  UNL     1      37.995  31.981  26.087  1.00  0.00     0.000 C 
HETATM   18  C9  UNL     1      38.807  32.718  25.108  1.00  0.00     0.002 C 
HETATM   19  C10 UNL     1      39.087  34.138  25.354  1.00  0.00     0.026 C 
ENDBRANCH  12  14
ENDBRANCH  11  12
TORSDOF 2
ENDMDL
MODEL 5
REMARK VINA RESULT: -6.244026059      2.016      2.997
REMARK  2 active torsions:
REMARK  status: ('A' for Active; 'I' for Inactive)
REMARK    1  A    between atoms: C4_11  and  N4_12 
REMARK    2  A    between atoms: N4_12  and  C5_14 
ROOT
HETATM    1  C1  UNL     1      41.061  37.274  27.122  1.00  0.00     0.178 C 
HETATM    2  N1  UNL     1      40.299  37.230  28.372  1.00  0.00    -0.162 N 
HETATM    3  C2  UNL     1      40.755  37.862  29.467  1.00  0.00     0.194 A 
HETATM    4  S1  UNL     1      42.166  38.682  29.400  1.00  0.00    -0.040 SA
HETATM    5  N2  UNL     1      40.062  37.829  30.629  1.00  0.00    -0.309 N 
ATOM      6  H2  UNL     1      40.418  38.311  31.454  1.00  0.00     0.170 HD
HETATM    7  C3  UNL     1      38.901  37.155  30.686  1.00  0.00     0.192 A 
HETATM    8  S2  UNL     1      38.049  37.110  32.103  1.00  0.00    -0.040 SA
HETATM    9  N3  UNL     1      38.451  36.525  29.589  1.00  0.00    -0.166 N 
ATOM     10  H3  UNL     1      37.571  36.012  29.632  1.00  0.00     0.186 HD
HETATM   11  C4  UNL     1      39.133  36.557  28.446  1.00  0.00     0.684 A 
ENDROOT
BRANCH  11  12
HETATM   12  N4  UNL     1      38.754  35.975  27.363  1.00  0.00    -0.221 N 
ATOM     13  H4  UNL     1      38.367  36.567  26.629  1.00  0.00     0.178 HD
BRANCH  12  14
HETATM   14  C5  UNL     1      38.828  34.572  27.099  1.00  0.00     0.099 C 
HETATM   15  C6  UNL     1      37.601  33.810  27.578  1.00  0.00     0.026 C 
HETATM   16  C7  UNL     1      37.958  32.344  27.381  1.00  0.00     0.002 C 
HETATM   17  C8  UNL     1      37.976  32.103  25.905  1.00  0.00     0.000 C 
HETATM   18  C9  UNL     1      38.817  33.012  25.112  1.00  0.00     0.002 C 
HETATM   19  C10 UNL     1      39.101  34.351  25.644  1.00  0.00     0.026 C 
ENDBRANCH  12  14
ENDBRANCH  11  12
TORSDOF 2
ENDMDL
