MODEL 1
REMARK VINA RESULT: -6.011825113      0.000      0.000
REMARK  1 active torsions:
REMARK  status: ('A' for Active; 'I' for Inactive)
REMARK    1  A    between atoms: C3_7  and  N3_8 
ROOT
HETATM    1  N3  UNL     1      40.080  39.306  31.032  1.00  0.00    -0.302 N 
HETATM    2  C4  UNL     1      41.477  39.055  30.915  1.00  0.00     0.142 C 
HETATM    3  N4  UNL     1      42.090  37.939  30.970  1.00  0.00    -0.380 N 
ATOM      4  H41 UNL     1      43.090  37.758  30.885  1.00  0.00     0.158 HD
ATOM      5  H42 UNL     1      41.668  37.021  31.109  1.00  0.00     0.158 HD
HETATM    6  S1  UNL     1      42.230  40.691  30.665  1.00  0.00    -0.092 SA
HETATM    7  C5  UNL     1      40.632  41.616  30.721  1.00  0.00     0.114 C 
HETATM    8  C6  UNL     1      39.748  40.451  30.242  1.00  0.00     0.050 C 
HETATM    9  C7  UNL     1      40.112  40.271  28.770  1.00  0.00     0.032 C 
HETATM   10  C8  UNL     1      39.257  41.305  28.111  1.00  0.00     0.002 C 
HETATM   11  C9  UNL     1      37.962  41.240  28.890  1.00  0.00     0.002 C 
HETATM   12  C10 UNL     1      38.335  40.873  30.308  1.00  0.00     0.032 C 
ENDROOT
BRANCH   1  13
HETATM   13  C3  UNL     1      39.186  38.502  31.832  1.00  0.00     0.133 A 
HETATM   14  N2  UNL     1      38.796  38.661  33.104  1.00  0.00    -0.285 N 
HETATM   15  N1  UNL     1      37.966  37.701  33.464  1.00  0.00    -0.303 N 
ATOM     16  H2  UNL     1      39.099  39.422  33.711  1.00  0.00     0.188 HD
HETATM   17  C2  UNL     1      37.801  36.885  32.410  1.00  0.00     0.031 A 
ATOM     18  H1  UNL     1      37.528  37.597  34.380  1.00  0.00     0.186 HD
HETATM   19  C1  UNL     1      36.938  35.675  32.409  1.00  0.00     0.070 C 
HETATM   20  C11 UNL     1      38.563  37.371  31.369  1.00  0.00     0.007 A 
HETATM   21  C12 UNL     1      38.700  36.806  30.006  1.00  0.00     0.054 C 
ENDBRANCH   1  13
TORSDOF 1
ENDMDL
MODEL 2
REMARK VINA RESULT: -5.735875164      3.558      4.961
REMARK  1 active torsions:
REMARK  status: ('A' for Active; 'I' for Inactive)
REMARK    1  A    between atoms: C3_7  and  N3_8 
ROOT
HETATM    1  N3  UNL     1      40.497  37.402  27.726  1.00  0.00    -0.302 N 
HETATM    2  C4  UNL     1      40.076  38.676  27.249  1.00  0.00     0.142 C 
HETATM    3  N4  UNL     1      38.907  39.183  27.263  1.00  0.00    -0.380 N 
ATOM      4  H41 UNL     1      38.605  40.095  26.922  1.00  0.00     0.158 HD
ATOM      5  H42 UNL     1      38.061  38.746  27.630  1.00  0.00     0.158 HD
HETATM    6  S1  UNL     1      41.584  39.455  26.597  1.00  0.00    -0.092 SA
HETATM    7  C5  UNL     1      42.693  38.036  27.009  1.00  0.00     0.114 C 
HETATM    8  C6  UNL     1      41.850  37.502  28.180  1.00  0.00     0.050 C 
HETATM    9  C7  UNL     1      42.020  38.542  29.285  1.00  0.00     0.032 C 
HETATM   10  C8  UNL     1      43.311  38.121  29.909  1.00  0.00     0.002 C 
HETATM   11  C9  UNL     1      43.238  36.611  29.889  1.00  0.00     0.002 C 
HETATM   12  C10 UNL     1      42.448  36.239  28.655  1.00  0.00     0.032 C 
ENDROOT
BRANCH   1  13
HETATM   13  C3  UNL     1      39.653  36.230  27.731  1.00  0.00     0.133 A 
HETATM   14  N2  UNL     1      39.470  35.302  26.783  1.00  0.00    -0.285 N 
HETATM   15  N1  UNL     1      38.608  34.386  27.182  1.00  0.00    -0.303 N 
ATOM     16  H2  UNL     1      39.935  35.303  25.875  1.00  0.00     0.188 HD
HETATM   17  C2  UNL     1      38.208  34.713  28.421  1.00  0.00     0.031 A 
ATOM     18  H1  UNL     1      38.300  33.575  26.644  1.00  0.00     0.186 HD
HETATM   19  C1  UNL     1      37.233  33.930  29.225  1.00  0.00     0.070 C 
HETATM   20  C11 UNL     1      38.855  35.874  28.788  1.00  0.00     0.007 A 
HETATM   21  C12 UNL     1      38.732  36.614  30.066  1.00  0.00     0.054 C 
ENDBRANCH   1  13
TORSDOF 1
ENDMDL
MODEL 3
REMARK VINA RESULT: -5.702169321      1.426      1.714
REMARK  1 active torsions:
REMARK  status: ('A' for Active; 'I' for Inactive)
REMARK    1  A    between atoms: C3_7  and  N3_8 
ROOT
HETATM    1  N3  UNL     1      40.022  38.760  30.575  1.00  0.00    -0.302 N 
HETATM    2  C4  UNL     1      41.434  38.657  30.725  1.00  0.00     0.142 C 
HETATM    3  N4  UNL     1      42.198  37.689  30.405  1.00  0.00    -0.380 N 
ATOM      4  H41 UNL     1      43.209  37.616  30.512  1.00  0.00     0.158 HD
ATOM      5  H42 UNL     1      41.915  36.809  29.976  1.00  0.00     0.158 HD
HETATM    6  S1  UNL     1      41.940  40.228  31.489  1.00  0.00    -0.092 SA
HETATM    7  C5  UNL     1      40.235  40.936  31.553  1.00  0.00     0.114 C 
HETATM    8  C6  UNL     1      39.677  40.132  30.366  1.00  0.00     0.050 C 
HETATM    9  C7  UNL     1      40.365  40.727  29.139  1.00  0.00     0.032 C 
HETATM   10  C8  UNL     1      39.507  41.917  28.850  1.00  0.00     0.002 C 
HETATM   11  C9  UNL     1      38.107  41.419  29.133  1.00  0.00     0.002 C 
HETATM   12  C10 UNL     1      38.232  40.407  30.248  1.00  0.00     0.032 C 
ENDROOT
BRANCH   1  13
HETATM   13  C3  UNL     1      39.126  37.628  30.630  1.00  0.00     0.133 A 
HETATM   14  N2  UNL     1      38.791  36.753  29.673  1.00  0.00    -0.285 N 
HETATM   15  N1  UNL     1      37.935  35.860  30.132  1.00  0.00    -0.303 N 
ATOM     16  H2  UNL     1      39.151  36.774  28.719  1.00  0.00     0.188 HD
HETATM   17  C2  UNL     1      37.695  36.148  31.421  1.00  0.00     0.031 A 
ATOM     18  H1  UNL     1      37.528  35.089  29.601  1.00  0.00     0.186 HD
HETATM   19  C1  UNL     1      36.778  35.374  32.300  1.00  0.00     0.070 C 
HETATM   20  C11 UNL     1      38.435  37.261  31.757  1.00  0.00     0.007 A 
HETATM   21  C12 UNL     1      38.495  37.947  33.069  1.00  0.00     0.054 C 
ENDBRANCH   1  13
TORSDOF 1
ENDMDL
MODEL 4
REMARK VINA RESULT: -5.685318682      3.217      4.469
REMARK  1 active torsions:
REMARK  status: ('A' for Active; 'I' for Inactive)
REMARK    1  A    between atoms: C3_7  and  N3_8 
ROOT
HETATM    1  N3  UNL     1      40.288  37.529  28.101  1.00  0.00    -0.302 N 
HETATM    2  C4  UNL     1      39.905  38.626  27.278  1.00  0.00     0.142 C 
HETATM    3  N4  UNL     1      38.878  39.373  27.379  1.00  0.00    -0.380 N 
ATOM      4  H41 UNL     1      38.604  40.158  26.789  1.00  0.00     0.158 HD
ATOM      5  H42 UNL     1      38.145  39.305  28.085  1.00  0.00     0.158 HD
HETATM    6  S1  UNL     1      41.212  38.747  26.020  1.00  0.00    -0.092 SA
HETATM    7  C5  UNL     1      42.201  37.331  26.674  1.00  0.00     0.114 C 
HETATM    8  C6  UNL     1      41.716  37.447  28.130  1.00  0.00     0.050 C 
HETATM    9  C7  UNL     1      42.364  38.728  28.651  1.00  0.00     0.032 C 
HETATM   10  C8  UNL     1      43.722  38.246  29.051  1.00  0.00     0.002 C 
HETATM   11  C9  UNL     1      43.451  36.885  29.651  1.00  0.00     0.002 C 
HETATM   12  C10 UNL     1      42.267  36.317  28.903  1.00  0.00     0.032 C 
ENDROOT
BRANCH   1  13
HETATM   13  C3  UNL     1      39.346  36.669  28.780  1.00  0.00     0.133 A 
HETATM   14  N2  UNL     1      38.769  35.534  28.364  1.00  0.00    -0.285 N 
HETATM   15  N1  UNL     1      37.961  35.051  29.290  1.00  0.00    -0.303 N 
ATOM     16  H2  UNL     1      38.932  35.101  27.456  1.00  0.00     0.188 HD
HETATM   17  C2  UNL     1      38.002  35.884  30.342  1.00  0.00     0.031 A 
ATOM     18  H1  UNL     1      37.406  34.199  29.218  1.00  0.00     0.186 HD
HETATM   19  C1  UNL     1      37.227  35.693  31.597  1.00  0.00     0.070 C 
HETATM   20  C11 UNL     1      38.869  36.913  30.042  1.00  0.00     0.007 A 
HETATM   21  C12 UNL     1      39.234  38.068  30.896  1.00  0.00     0.054 C 
ENDBRANCH   1  13
TORSDOF 1
ENDMDL
MODEL 5
REMARK VINA RESULT: -5.458757318      2.320      2.761
REMARK  1 active torsions:
REMARK  status: ('A' for Active; 'I' for Inactive)
REMARK    1  A    between atoms: C3_7  and  N3_8 
ROOT
HETATM    1  N3  UNL     1      40.484  37.867  28.677  1.00  0.00    -0.302 N 
HETATM    2  C4  UNL     1      41.794  37.361  28.440  1.00  0.00     0.142 C 
HETATM    3  N4  UNL     1      42.166  36.150  28.307  1.00  0.00    -0.380 N 
ATOM      4  H41 UNL     1      43.103  35.787  28.137  1.00  0.00     0.158 HD
ATOM      5  H42 UNL     1      41.568  35.324  28.349  1.00  0.00     0.158 HD
HETATM    6  S1  UNL     1      42.859  38.833  28.364  1.00  0.00    -0.092 SA
HETATM    7  C5  UNL     1      41.489  40.041  28.643  1.00  0.00     0.114 C 
HETATM    8  C6  UNL     1      40.369  39.157  28.069  1.00  0.00     0.050 C 
HETATM    9  C7  UNL     1      40.637  39.120  26.566  1.00  0.00     0.032 C 
HETATM   10  C8  UNL     1      39.992  40.387  26.105  1.00  0.00     0.002 C 
HETATM   11  C9  UNL     1      38.739  40.471  26.948  1.00  0.00     0.002 C 
HETATM   12  C10 UNL     1      39.076  39.837  28.278  1.00  0.00     0.032 C 
ENDROOT
BRANCH   1  13
HETATM   13  C3  UNL     1      39.471  37.151  29.417  1.00  0.00     0.133 A 
HETATM   14  N2  UNL     1      38.667  36.154  29.024  1.00  0.00    -0.285 N 
HETATM   15  N1  UNL     1      37.875  35.774  30.008  1.00  0.00    -0.303 N 
ATOM     16  H2  UNL     1      38.668  35.744  28.090  1.00  0.00     0.188 HD
HETATM   17  C2  UNL     1      38.158  36.534  31.078  1.00  0.00     0.031 A 
ATOM     18  H1  UNL     1      37.174  35.034  29.963  1.00  0.00     0.186 HD
HETATM   19  C1  UNL     1      37.479  36.418  32.396  1.00  0.00     0.070 C 
HETATM   20  C11 UNL     1      39.162  37.411  30.727  1.00  0.00     0.007 A 
HETATM   21  C12 UNL     1      39.802  38.442  31.578  1.00  0.00     0.054 C 
ENDBRANCH   1  13
TORSDOF 1
ENDMDL
