MODEL 1
REMARK VINA RESULT: -7.440505502      0.000      0.000
REMARK  2 active torsions:
REMARK  status: ('A' for Active; 'I' for Inactive)
REMARK    1  A    between atoms: C8_12  and  N3_13 
REMARK    2  A    between atoms: N3_13  and  C9_15 
ROOT
HETATM    1  N1  UNL     1      37.864  37.752  33.550  1.00  0.00    -0.101 NA
HETATM    2  C1  UNL     1      38.111  37.270  32.203  1.00  0.00     0.060 A 
HETATM    3  C2  UNL     1      38.861  38.037  31.356  1.00  0.00     0.077 A 
HETATM    4  S1  UNL     1      38.890  37.107  29.927  1.00  0.00    -0.096 SA
HETATM    5  C3  UNL     1      37.947  35.768  30.449  1.00  0.00     0.056 A 
HETATM    6  C4  UNL     1      37.640  36.105  31.742  1.00  0.00    -0.013 A 
HETATM    7  C5  UNL     1      36.802  35.183  32.616  1.00  0.00     0.043 C 
HETATM    8  C6  UNL     1      35.617  34.775  31.786  1.00  0.00     0.024 C 
HETATM    9  C7  UNL     1      35.875  33.462  31.055  1.00  0.00     0.121 C 
HETATM   10  N2  UNL     1      36.744  33.648  29.905  1.00  0.00    -0.375 N 
ATOM     11  H2  UNL     1      36.669  32.923  29.191  1.00  0.00     0.161 HD
HETATM   12  C8  UNL     1      37.595  34.581  29.639  1.00  0.00     0.115 C 
ENDROOT
BRANCH  12  13
HETATM   13  N3  UNL     1      38.335  34.531  28.419  1.00  0.00    -0.371 N 
ATOM     14  H3  UNL     1      39.250  34.981  28.397  1.00  0.00     0.161 HD
BRANCH  13  15
HETATM   15  C9  UNL     1      37.880  33.895  27.231  1.00  0.00     0.083 C 
HETATM   16  C10 UNL     1      38.236  32.400  27.211  1.00  0.00     0.025 C 
HETATM   17  C11 UNL     1      37.622  31.860  25.924  1.00  0.00     0.002 C 
HETATM   18  C12 UNL     1      38.431  32.366  24.740  1.00  0.00     0.000 C 
HETATM   19  C13 UNL     1      39.213  33.620  25.126  1.00  0.00     0.002 C 
HETATM   20  C14 UNL     1      38.333  34.550  25.957  1.00  0.00     0.025 C 
ENDBRANCH  13  15
ENDBRANCH  12  13
TORSDOF 2
ENDMDL
MODEL 2
REMARK VINA RESULT: -7.383166964      1.371      3.033
REMARK  2 active torsions:
REMARK  status: ('A' for Active; 'I' for Inactive)
REMARK    1  A    between atoms: C8_12  and  N3_13 
REMARK    2  A    between atoms: N3_13  and  C9_15 
ROOT
HETATM    1  N1  UNL     1      37.687  37.440  33.663  1.00  0.00    -0.101 NA
HETATM    2  C1  UNL     1      37.592  36.617  32.471  1.00  0.00     0.060 A 
HETATM    3  C2  UNL     1      36.815  35.493  32.506  1.00  0.00     0.077 A 
HETATM    4  S1  UNL     1      36.996  34.857  30.933  1.00  0.00    -0.096 SA
HETATM    5  C3  UNL     1      38.056  36.041  30.277  1.00  0.00     0.056 A 
HETATM    6  C4  UNL     1      38.231  36.902  31.329  1.00  0.00    -0.013 A 
HETATM    7  C5  UNL     1      39.112  38.136  31.196  1.00  0.00     0.043 C 
HETATM    8  C6  UNL     1      40.391  37.675  30.556  1.00  0.00     0.024 C 
HETATM    9  C7  UNL     1      40.343  37.834  29.040  1.00  0.00     0.121 C 
HETATM   10  N2  UNL     1      39.539  36.797  28.415  1.00  0.00    -0.375 N 
ATOM     11  H2  UNL     1      39.750  36.628  27.431  1.00  0.00     0.161 HD
HETATM   12  C8  UNL     1      38.603  36.055  28.902  1.00  0.00     0.115 C 
ENDROOT
BRANCH  12  13
HETATM   13  N3  UNL     1      37.959  35.094  28.063  1.00  0.00    -0.371 N 
ATOM     14  H3  UNL     1      36.940  35.055  28.079  1.00  0.00     0.161 HD
BRANCH  13  15
HETATM   15  C9  UNL     1      38.646  34.189  27.209  1.00  0.00     0.083 C 
HETATM   16  C10 UNL     1      38.460  34.549  25.726  1.00  0.00     0.025 C 
HETATM   17  C11 UNL     1      39.307  33.539  24.960  1.00  0.00     0.002 C 
HETATM   18  C12 UNL     1      38.627  32.180  25.015  1.00  0.00     0.000 C 
HETATM   19  C13 UNL     1      37.667  32.113  26.201  1.00  0.00     0.002 C 
HETATM   20  C14 UNL     1      38.313  32.741  27.433  1.00  0.00     0.025 C 
ENDBRANCH  13  15
ENDBRANCH  12  13
TORSDOF 2
ENDMDL
MODEL 3
REMARK VINA RESULT: -6.471217435      2.022      6.361
REMARK  2 active torsions:
REMARK  status: ('A' for Active; 'I' for Inactive)
REMARK    1  A    between atoms: C8_12  and  N3_13 
REMARK    2  A    between atoms: N3_13  and  C9_15 
ROOT
HETATM    1  N1  UNL     1      39.487  34.492  25.302  1.00  0.00    -0.101 NA
HETATM    2  C1  UNL     1      39.500  35.341  26.481  1.00  0.00     0.060 A 
HETATM    3  C2  UNL     1      40.343  36.417  26.508  1.00  0.00     0.077 A 
HETATM    4  S1  UNL     1      40.030  37.104  28.038  1.00  0.00    -0.096 SA
HETATM    5  C3  UNL     1      38.836  36.001  28.598  1.00  0.00     0.056 A 
HETATM    6  C4  UNL     1      38.724  35.124  27.551  1.00  0.00    -0.013 A 
HETATM    7  C5  UNL     1      37.752  33.955  27.605  1.00  0.00     0.043 C 
HETATM    8  C6  UNL     1      37.953  33.300  28.942  1.00  0.00     0.024 C 
HETATM    9  C7  UNL     1      36.985  33.850  29.984  1.00  0.00     0.121 C 
HETATM   10  N2  UNL     1      37.391  35.164  30.454  1.00  0.00    -0.375 N 
ATOM     11  H2  UNL     1      37.019  35.424  31.368  1.00  0.00     0.161 HD
HETATM   12  C8  UNL     1      38.144  36.055  29.904  1.00  0.00     0.115 C 
ENDROOT
BRANCH  12  13
HETATM   13  N3  UNL     1      38.391  37.285  30.588  1.00  0.00    -0.371 N 
ATOM     14  H3  UNL     1      38.138  38.153  30.115  1.00  0.00     0.161 HD
BRANCH  13  15
HETATM   15  C9  UNL     1      38.969  37.380  31.884  1.00  0.00     0.083 C 
HETATM   16  C10 UNL     1      37.912  37.682  32.959  1.00  0.00     0.025 C 
HETATM   17  C11 UNL     1      38.675  37.678  34.279  1.00  0.00     0.002 C 
HETATM   18  C12 UNL     1      39.533  38.931  34.358  1.00  0.00     0.000 C 
HETATM   19  C13 UNL     1      39.789  39.490  32.960  1.00  0.00     0.002 C 
HETATM   20  C14 UNL     1      40.108  38.354  31.992  1.00  0.00     0.025 C 
ENDBRANCH  13  15
ENDBRANCH  12  13
TORSDOF 2
ENDMDL
MODEL 4
REMARK VINA RESULT: -6.378996662      2.295      3.125
REMARK  2 active torsions:
REMARK  status: ('A' for Active; 'I' for Inactive)
REMARK    1  A    between atoms: C8_12  and  N3_13 
REMARK    2  A    between atoms: N3_13  and  C9_15 
ROOT
HETATM    1  N1  UNL     1      41.172  40.174  30.587  1.00  0.00    -0.101 NA
HETATM    2  C1  UNL     1      40.659  39.378  29.487  1.00  0.00     0.060 A 
HETATM    3  C2  UNL     1      40.875  39.806  28.207  1.00  0.00     0.077 A 
HETATM    4  S1  UNL     1      40.118  38.597  27.270  1.00  0.00    -0.096 SA
HETATM    5  C3  UNL     1      39.550  37.582  28.536  1.00  0.00     0.056 A 
HETATM    6  C4  UNL     1      39.979  38.237  29.661  1.00  0.00    -0.013 A 
HETATM    7  C5  UNL     1      39.698  37.681  31.049  1.00  0.00     0.043 C 
HETATM    8  C6  UNL     1      38.242  37.309  31.068  1.00  0.00     0.024 C 
HETATM    9  C7  UNL     1      38.036  35.845  30.696  1.00  0.00     0.121 C 
HETATM   10  N2  UNL     1      38.176  35.629  29.266  1.00  0.00    -0.375 N 
ATOM     11  H2  UNL     1      37.714  34.790  28.914  1.00  0.00     0.161 HD
HETATM   12  C8  UNL     1      38.788  36.324  28.368  1.00  0.00     0.115 C 
ENDROOT
BRANCH  12  13
HETATM   13  N3  UNL     1      38.774  35.888  27.009  1.00  0.00    -0.371 N 
ATOM     14  H3  UNL     1      38.830  36.598  26.279  1.00  0.00     0.161 HD
BRANCH  13  15
HETATM   15  C9  UNL     1      38.686  34.527  26.605  1.00  0.00     0.083 C 
HETATM   16  C10 UNL     1      39.365  34.289  25.246  1.00  0.00     0.025 C 
HETATM   17  C11 UNL     1      39.248  32.789  24.999  1.00  0.00     0.002 C 
HETATM   18  C12 UNL     1      37.803  32.456  24.661  1.00  0.00     0.000 C 
HETATM   19  C13 UNL     1      36.869  33.545  25.185  1.00  0.00     0.002 C 
HETATM   20  C14 UNL     1      37.292  33.967  26.590  1.00  0.00     0.025 C 
ENDBRANCH  13  15
ENDBRANCH  12  13
TORSDOF 2
ENDMDL
MODEL 5
REMARK VINA RESULT: -6.344555026      3.101      4.624
REMARK  2 active torsions:
REMARK  status: ('A' for Active; 'I' for Inactive)
REMARK    1  A    between atoms: C8_12  and  N3_13 
REMARK    2  A    between atoms: N3_13  and  C9_15 
ROOT
HETATM    1  N1  UNL     1      38.350  41.049  30.969  1.00  0.00    -0.101 NA
HETATM    2  C1  UNL     1      38.776  39.803  30.356  1.00  0.00     0.060 A 
HETATM    3  C2  UNL     1      38.905  38.692  31.142  1.00  0.00     0.077 A 
HETATM    4  S1  UNL     1      39.412  37.500  30.032  1.00  0.00    -0.096 SA
HETATM    5  C3  UNL     1      39.445  38.451  28.600  1.00  0.00     0.056 A 
HETATM    6  C4  UNL     1      39.052  39.684  29.051  1.00  0.00    -0.013 A 
HETATM    7  C5  UNL     1      38.930  40.866  28.100  1.00  0.00     0.043 C 
HETATM    8  C6  UNL     1      40.189  40.880  27.280  1.00  0.00     0.024 C 
HETATM    9  C7  UNL     1      40.012  40.112  25.974  1.00  0.00     0.121 C 
HETATM   10  N2  UNL     1      40.047  38.675  26.187  1.00  0.00    -0.375 N 
ATOM     11  H2  UNL     1      40.291  38.127  25.362  1.00  0.00     0.161 HD
HETATM   12  C8  UNL     1      39.819  37.979  27.249  1.00  0.00     0.115 C 
ENDROOT
BRANCH  12  13
HETATM   13  N3  UNL     1      39.923  36.555  27.192  1.00  0.00    -0.371 N 
ATOM     14  H3  UNL     1      40.822  36.133  27.424  1.00  0.00     0.161 HD
BRANCH  13  15
HETATM   15  C9  UNL     1      38.855  35.687  26.833  1.00  0.00     0.083 C 
HETATM   16  C10 UNL     1      38.775  34.465  27.762  1.00  0.00     0.025 C 
HETATM   17  C11 UNL     1      37.551  33.687  27.294  1.00  0.00     0.002 C 
HETATM   18  C12 UNL     1      37.869  33.019  25.965  1.00  0.00     0.000 C 
HETATM   19  C13 UNL     1      39.031  33.731  25.276  1.00  0.00     0.002 C 
HETATM   20  C14 UNL     1      38.864  35.244  25.398  1.00  0.00     0.025 C 
ENDBRANCH  13  15
ENDBRANCH  12  13
TORSDOF 2
ENDMDL
