MODEL 1
REMARK VINA RESULT: -6.540021794      0.000      0.000
REMARK  4 active torsions:
REMARK  status: ('A' for Active; 'I' for Inactive)
REMARK       I    between atoms: N1_2  and  C2_4 
REMARK       I    between atoms: C2_4  and  N3_8 
REMARK    1  A    between atoms: C3_9  and  C4_10 
REMARK    2  A    between atoms: N4_23  and  N5_25 
REMARK    3  A    between atoms: N5_25  and  C16_27 
REMARK    4  A    between atoms: C16_27  and  N6_29 
ROOT
HETATM    1  C1  UNL     1      40.033  41.306  33.463  1.00  0.00     0.165 C 
HETATM    2  N1  UNL     1      39.410  40.137  32.978  1.00  0.00    -0.230 N 
ATOM      3  H1  UNL     1      38.549  40.247  32.443  1.00  0.00     0.177 HD
HETATM    4  C2  UNL     1      39.902  38.796  33.182  1.00  0.00     0.680 C 
HETATM    5  N2  UNL     1      41.013  38.610  33.682  1.00  0.00    -0.234 N 
ATOM      6  H21 UNL     1      41.361  37.662  33.826  1.00  0.00     0.174 HD
ATOM      7  H22 UNL     1      41.666  39.358  33.916  1.00  0.00     0.174 HD
HETATM    8  N3  UNL     1      38.959  37.715  32.843  1.00  0.00    -0.128 N 
HETATM    9  C3  UNL     1      38.809  37.191  31.647  1.00  0.00     0.052 A 
HETATM   10  C14 UNL     1      37.753  36.269  31.537  1.00  0.00     0.080 A 
HETATM   11  S1  UNL     1      37.088  36.213  33.086  1.00  0.00    -0.061 SA
HETATM   12  C15 UNL     1      38.150  37.365  33.863  1.00  0.00     0.186 A 
HETATM   13  N4  UNL     1      38.065  37.658  35.088  1.00  0.00    -0.277 N 
ATOM     14  H4  UNL     1      37.289  37.159  35.522  1.00  0.00     0.189 HD
ENDROOT
BRANCH   9  15
HETATM   15  C4  UNL     1      39.595  37.410  30.366  1.00  0.00     0.005 C 
HETATM   16  C5  UNL     1      39.180  38.696  29.698  1.00  0.00     0.020 C 
HETATM   17  C6  UNL     1      39.843  38.775  28.360  1.00  0.00    -0.013 C 
HETATM   18  C7  UNL     1      39.433  37.679  27.403  1.00  0.00     0.009 C 
HETATM   19  C11 UNL     1      41.358  38.683  28.463  1.00  0.00     0.009 C 
HETATM   20  C8  UNL     1      39.813  36.363  28.054  1.00  0.00    -0.013 C 
HETATM   21  C9  UNL     1      41.281  36.213  28.246  1.00  0.00     0.009 C 
HETATM   22  C13 UNL     1      39.133  36.311  29.387  1.00  0.00     0.020 C 
HETATM   23  C10 UNL     1      41.724  37.364  29.089  1.00  0.00    -0.013 C 
HETATM   24  C12 UNL     1      41.058  37.320  30.478  1.00  0.00     0.020 C 
ENDBRANCH   9  15
BRANCH  13  25
HETATM   25  N5  UNL     1      38.687  38.424  35.985  1.00  0.00    -0.274 N 
ATOM     26  H5  UNL     1      38.966  39.373  35.736  1.00  0.00     0.189 HD
BRANCH  25  27
HETATM   27  C16 UNL     1      38.970  37.911  37.318  1.00  0.00     0.186 C 
HETATM   28  S2  UNL     1      40.241  38.479  38.157  1.00  0.00    -0.040 SA
BRANCH  27  29
HETATM   29  N6  UNL     1      38.152  36.918  37.881  1.00  0.00    -0.370 N 
HETATM   30  C17 UNL     1      36.958  37.221  38.651  1.00  0.00     0.148 C 
ATOM     31  H6  UNL     1      38.407  35.941  37.743  1.00  0.00     0.161 HD
ENDBRANCH  27  29
ENDBRANCH  25  27
ENDBRANCH  13  25
TORSDOF 4
ENDMDL
MODEL 2
REMARK VINA RESULT: -6.369897568      1.834      2.322
REMARK  4 active torsions:
REMARK  status: ('A' for Active; 'I' for Inactive)
REMARK       I    between atoms: N1_2  and  C2_4 
REMARK       I    between atoms: C2_4  and  N3_8 
REMARK    1  A    between atoms: C3_9  and  C4_10 
REMARK    2  A    between atoms: N4_23  and  N5_25 
REMARK    3  A    between atoms: N5_25  and  C16_27 
REMARK    4  A    between atoms: C16_27  and  N6_29 
ROOT
HETATM    1  C1  UNL     1      39.663  40.814  36.287  1.00  0.00     0.165 C 
HETATM    2  N1  UNL     1      39.043  39.864  35.449  1.00  0.00    -0.230 N 
ATOM      3  H1  UNL     1      38.196  40.150  34.956  1.00  0.00     0.177 HD
HETATM    4  C2  UNL     1      39.516  38.518  35.237  1.00  0.00     0.680 C 
HETATM    5  N2  UNL     1      40.611  38.167  35.678  1.00  0.00    -0.234 N 
ATOM      6  H21 UNL     1      40.947  37.215  35.529  1.00  0.00     0.174 HD
ATOM      7  H22 UNL     1      41.265  38.794  36.148  1.00  0.00     0.174 HD
HETATM    8  N3  UNL     1      38.572  37.612  34.558  1.00  0.00    -0.128 N 
HETATM    9  C3  UNL     1      38.449  37.487  33.255  1.00  0.00     0.052 A 
HETATM   10  C14 UNL     1      37.388  36.664  32.841  1.00  0.00     0.080 A 
HETATM   11  S1  UNL     1      36.682  36.141  34.281  1.00  0.00    -0.061 SA
HETATM   12  C15 UNL     1      37.733  36.976  35.400  1.00  0.00     0.186 A 
HETATM   13  N4  UNL     1      37.619  36.876  36.654  1.00  0.00    -0.277 N 
ATOM     14  H4  UNL     1      36.827  36.281  36.894  1.00  0.00     0.189 HD
ENDROOT
BRANCH   9  15
HETATM   15  C4  UNL     1      39.270  38.081  32.124  1.00  0.00     0.005 C 
HETATM   16  C5  UNL     1      38.728  39.427  31.718  1.00  0.00     0.020 C 
HETATM   17  C6  UNL     1      39.450  39.882  30.490  1.00  0.00    -0.013 C 
HETATM   18  C7  UNL     1      39.243  38.990  29.286  1.00  0.00     0.009 C 
HETATM   19  C11 UNL     1      40.955  39.946  30.699  1.00  0.00     0.009 C 
HETATM   20  C8  UNL     1      39.756  37.615  29.667  1.00  0.00    -0.013 C 
HETATM   21  C9  UNL     1      41.218  37.597  29.945  1.00  0.00     0.009 C 
HETATM   22  C13 UNL     1      39.014  37.184  30.894  1.00  0.00     0.020 C 
HETATM   23  C10 UNL     1      41.456  38.571  31.052  1.00  0.00    -0.013 C 
HETATM   24  C12 UNL     1      40.723  38.138  32.337  1.00  0.00     0.020 C 
ENDBRANCH   9  15
BRANCH  13  25
HETATM   25  N5  UNL     1      38.224  37.315  37.758  1.00  0.00    -0.274 N 
ATOM     26  H5  UNL     1      39.227  37.500  37.748  1.00  0.00     0.189 HD
BRANCH  25  27
HETATM   27  C16 UNL     1      37.458  37.533  38.978  1.00  0.00     0.186 C 
HETATM   28  S2  UNL     1      35.891  37.107  39.043  1.00  0.00    -0.040 SA
BRANCH  27  29
HETATM   29  N6  UNL     1      38.068  38.118  40.098  1.00  0.00    -0.370 N 
HETATM   30  C17 UNL     1      39.123  39.112  39.995  1.00  0.00     0.148 C 
ATOM     31  H6  UNL     1      37.757  37.833  41.027  1.00  0.00     0.161 HD
ENDBRANCH  27  29
ENDBRANCH  25  27
ENDBRANCH  13  25
TORSDOF 4
ENDMDL
MODEL 3
REMARK VINA RESULT: -6.360012275      5.402      8.749
REMARK  4 active torsions:
REMARK  status: ('A' for Active; 'I' for Inactive)
REMARK       I    between atoms: N1_2  and  C2_4 
REMARK       I    between atoms: C2_4  and  N3_8 
REMARK    1  A    between atoms: C3_9  and  C4_10 
REMARK    2  A    between atoms: N4_23  and  N5_25 
REMARK    3  A    between atoms: N5_25  and  C16_27 
REMARK    4  A    between atoms: C16_27  and  N6_29 
ROOT
HETATM    1  C1  UNL     1      39.246  36.010  26.209  1.00  0.00     0.165 C 
HETATM    2  N1  UNL     1      39.007  37.305  26.714  1.00  0.00    -0.230 N 
ATOM      3  H1  UNL     1      38.045  37.551  26.951  1.00  0.00     0.177 HD
HETATM    4  C2  UNL     1      40.021  38.310  26.921  1.00  0.00     0.680 C 
HETATM    5  N2  UNL     1      41.214  38.023  26.802  1.00  0.00    -0.234 N 
ATOM      6  H21 UNL     1      41.932  38.733  26.948  1.00  0.00     0.174 HD
ATOM      7  H22 UNL     1      41.559  37.080  26.622  1.00  0.00     0.174 HD
HETATM    8  N3  UNL     1      39.523  39.672  27.181  1.00  0.00    -0.128 N 
HETATM    9  C3  UNL     1      39.196  40.144  28.363  1.00  0.00     0.052 A 
HETATM   10  C14 UNL     1      38.617  41.425  28.346  1.00  0.00     0.080 A 
HETATM   11  S1  UNL     1      38.594  41.848  26.713  1.00  0.00    -0.061 SA
HETATM   12  C15 UNL     1      39.314  40.394  26.062  1.00  0.00     0.186 A 
HETATM   13  N4  UNL     1      39.541  40.233  24.830  1.00  0.00    -0.277 N 
ATOM     14  H4  UNL     1      39.219  41.042  24.299  1.00  0.00     0.189 HD
ENDROOT
BRANCH   9  15
HETATM   15  C4  UNL     1      39.349  39.536  29.747  1.00  0.00     0.005 C 
HETATM   16  C5  UNL     1      38.456  40.235  30.740  1.00  0.00     0.020 C 
HETATM   17  C6  UNL     1      38.776  39.728  32.110  1.00  0.00    -0.013 C 
HETATM   18  C7  UNL     1      40.187  40.026  32.564  1.00  0.00     0.009 C 
HETATM   19  C11 UNL     1      38.622  38.218  32.214  1.00  0.00     0.009 C 
HETATM   20  C8  UNL     1      41.118  39.357  31.571  1.00  0.00    -0.013 C 
HETATM   21  C9  UNL     1      40.992  37.874  31.566  1.00  0.00     0.009 C 
HETATM   22  C13 UNL     1      40.777  39.886  30.212  1.00  0.00     0.020 C 
HETATM   23  C10 UNL     1      39.568  37.564  31.241  1.00  0.00    -0.013 C 
HETATM   24  C12 UNL     1      39.198  38.076  29.835  1.00  0.00     0.020 C 
ENDBRANCH   9  15
BRANCH  13  25
HETATM   25  N5  UNL     1      40.076  39.324  24.016  1.00  0.00    -0.274 N 
ATOM     26  H5  UNL     1      40.049  38.336  24.269  1.00  0.00     0.189 HD
BRANCH  25  27
HETATM   27  C16 UNL     1      40.701  39.734  22.765  1.00  0.00     0.186 C 
HETATM   28  S2  UNL     1      42.237  40.263  22.757  1.00  0.00    -0.040 SA
BRANCH  27  29
HETATM   29  N6  UNL     1      39.975  39.683  21.565  1.00  0.00    -0.370 N 
HETATM   30  C17 UNL     1      39.180  38.532  21.170  1.00  0.00     0.148 C 
ATOM     31  H6  UNL     1      40.007  40.489  20.941  1.00  0.00     0.161 HD
ENDBRANCH  27  29
ENDBRANCH  25  27
ENDBRANCH  13  25
TORSDOF 4
ENDMDL
MODEL 4
REMARK VINA RESULT: -6.349839520      0.626      1.537
REMARK  4 active torsions:
REMARK  status: ('A' for Active; 'I' for Inactive)
REMARK       I    between atoms: N1_2  and  C2_4 
REMARK       I    between atoms: C2_4  and  N3_8 
REMARK    1  A    between atoms: C3_9  and  C4_10 
REMARK    2  A    between atoms: N4_23  and  N5_25 
REMARK    3  A    between atoms: N5_25  and  C16_27 
REMARK    4  A    between atoms: C16_27  and  N6_29 
ROOT
HETATM    1  C1  UNL     1      39.715  41.376  32.812  1.00  0.00     0.165 C 
HETATM    2  N1  UNL     1      39.148  40.139  32.438  1.00  0.00    -0.230 N 
ATOM      3  H1  UNL     1      38.244  40.157  31.965  1.00  0.00     0.177 HD
HETATM    4  C2  UNL     1      39.752  38.851  32.673  1.00  0.00     0.680 C 
HETATM    5  N2  UNL     1      40.907  38.773  33.096  1.00  0.00    -0.234 N 
ATOM      6  H21 UNL     1      41.335  37.862  33.263  1.00  0.00     0.174 HD
ATOM      7  H22 UNL     1      41.517  39.578  33.241  1.00  0.00     0.174 HD
HETATM    8  N3  UNL     1      38.871  37.688  32.464  1.00  0.00    -0.128 N 
HETATM    9  C3  UNL     1      38.675  37.086  31.312  1.00  0.00     0.052 A 
HETATM   10  C14 UNL     1      37.687  36.087  31.331  1.00  0.00     0.080 A 
HETATM   11  S1  UNL     1      37.141  36.073  32.927  1.00  0.00    -0.061 SA
HETATM   12  C15 UNL     1      38.166  37.340  33.560  1.00  0.00     0.186 A 
HETATM   13  N4  UNL     1      38.149  37.697  34.771  1.00  0.00    -0.277 N 
ATOM     14  H4  UNL     1      37.445  37.170  35.287  1.00  0.00     0.189 HD
ENDROOT
BRANCH   9  15
HETATM   15  C4  UNL     1      39.348  37.287  29.965  1.00  0.00     0.005 C 
HETATM   16  C5  UNL     1      38.901  36.236  28.982  1.00  0.00     0.020 C 
HETATM   17  C6  UNL     1      39.723  36.364  27.739  1.00  0.00    -0.013 C 
HETATM   18  C7  UNL     1      41.199  36.113  27.947  1.00  0.00     0.009 C 
HETATM   19  C11 UNL     1      39.626  37.753  27.127  1.00  0.00     0.009 C 
HETATM   20  C8  UNL     1      41.681  37.140  28.954  1.00  0.00    -0.013 C 
HETATM   21  C9  UNL     1      41.569  38.538  28.456  1.00  0.00     0.009 C 
HETATM   22  C13 UNL     1      40.845  36.985  30.186  1.00  0.00     0.020 C 
HETATM   23  C10 UNL     1      40.129  38.761  28.125  1.00  0.00    -0.013 C 
HETATM   24  C12 UNL     1      39.247  38.633  29.383  1.00  0.00     0.020 C 
ENDBRANCH   9  15
BRANCH  13  25
HETATM   25  N5  UNL     1      38.774  38.555  35.576  1.00  0.00    -0.274 N 
ATOM     26  H5  UNL     1      38.853  39.537  35.310  1.00  0.00     0.189 HD
BRANCH  25  27
HETATM   27  C16 UNL     1      39.346  38.098  36.836  1.00  0.00     0.186 C 
HETATM   28  S2  UNL     1      40.811  37.395  36.858  1.00  0.00    -0.040 SA
BRANCH  27  29
HETATM   29  N6  UNL     1      38.630  38.253  38.033  1.00  0.00    -0.370 N 
HETATM   30  C17 UNL     1      37.485  37.429  38.382  1.00  0.00     0.148 C 
ATOM     31  H6  UNL     1      38.926  38.977  38.687  1.00  0.00     0.161 HD
ENDBRANCH  27  29
ENDBRANCH  25  27
ENDBRANCH  13  25
TORSDOF 4
ENDMDL
MODEL 5
REMARK VINA RESULT: -6.326155573      4.240      6.963
REMARK  4 active torsions:
REMARK  status: ('A' for Active; 'I' for Inactive)
REMARK       I    between atoms: N1_2  and  C2_4 
REMARK       I    between atoms: C2_4  and  N3_8 
REMARK    1  A    between atoms: C3_9  and  C4_10 
REMARK    2  A    between atoms: N4_23  and  N5_25 
REMARK    3  A    between atoms: N5_25  and  C16_27 
REMARK    4  A    between atoms: C16_27  and  N6_29 
ROOT
HETATM    1  C1  UNL     1      42.058  37.564  26.501  1.00  0.00     0.165 C 
HETATM    2  N1  UNL     1      41.330  38.078  27.596  1.00  0.00    -0.230 N 
ATOM      3  H1  UNL     1      41.861  38.452  28.382  1.00  0.00     0.177 HD
HETATM    4  C2  UNL     1      39.891  38.113  27.684  1.00  0.00     0.680 C 
HETATM    5  N2  UNL     1      39.200  37.822  26.706  1.00  0.00    -0.234 N 
ATOM      6  H21 UNL     1      38.182  37.846  26.769  1.00  0.00     0.174 HD
ATOM      7  H22 UNL     1      39.578  37.608  25.783  1.00  0.00     0.174 HD
HETATM    8  N3  UNL     1      39.344  38.422  29.018  1.00  0.00    -0.128 N 
HETATM    9  C3  UNL     1      39.134  39.632  29.487  1.00  0.00     0.052 A 
HETATM   10  C14 UNL     1      38.736  39.680  30.834  1.00  0.00     0.080 A 
HETATM   11  S1  UNL     1      38.681  38.062  31.308  1.00  0.00    -0.061 SA
HETATM   12  C15 UNL     1      39.170  37.334  29.796  1.00  0.00     0.186 A 
HETATM   13  N4  UNL     1      39.258  36.086  29.631  1.00  0.00    -0.277 N 
ATOM     14  H4  UNL     1      39.038  35.596  30.498  1.00  0.00     0.189 HD
ENDROOT
BRANCH   9  15
HETATM   15  C4  UNL     1      39.244  40.987  28.809  1.00  0.00     0.005 C 
HETATM   16  C5  UNL     1      40.687  41.381  28.632  1.00  0.00     0.020 C 
HETATM   17  C6  UNL     1      40.740  42.790  28.134  1.00  0.00    -0.013 C 
HETATM   18  C7  UNL     1      40.165  43.806  29.095  1.00  0.00     0.009 C 
HETATM   19  C11 UNL     1      39.968  42.970  26.836  1.00  0.00     0.009 C 
HETATM   20  C8  UNL     1      38.714  43.426  29.318  1.00  0.00    -0.013 C 
HETATM   21  C9  UNL     1      37.892  43.520  28.080  1.00  0.00     0.009 C 
HETATM   22  C13 UNL     1      38.693  42.015  29.819  1.00  0.00     0.020 C 
HETATM   23  C10 UNL     1      38.524  42.613  27.075  1.00  0.00    -0.013 C 
HETATM   24  C12 UNL     1      38.493  41.149  27.556  1.00  0.00     0.020 C 
ENDBRANCH   9  15
BRANCH  13  25
HETATM   25  N5  UNL     1      39.551  35.216  28.665  1.00  0.00    -0.274 N 
ATOM     26  H5  UNL     1      40.518  35.097  28.365  1.00  0.00     0.189 HD
BRANCH  25  27
HETATM   27  C16 UNL     1      38.495  34.434  28.035  1.00  0.00     0.186 C 
HETATM   28  S2  UNL     1      37.675  33.327  28.898  1.00  0.00    -0.040 SA
BRANCH  27  29
HETATM   29  N6  UNL     1      38.187  34.628  26.679  1.00  0.00    -0.370 N 
HETATM   30  C17 UNL     1      38.977  34.058  25.600  1.00  0.00     0.148 C 
ATOM     31  H6  UNL     1      37.373  35.193  26.440  1.00  0.00     0.161 HD
ENDBRANCH  27  29
ENDBRANCH  25  27
ENDBRANCH  13  25
TORSDOF 4
ENDMDL
