MODEL 1
REMARK VINA RESULT: -6.453002999      0.000      0.000
REMARK  7 active torsions:
REMARK  status: ('A' for Active; 'I' for Inactive)
REMARK    1  A    between atoms: C2_2  and  O1_4 
REMARK    2  A    between atoms: O1_4  and  C4_5 
REMARK    3  A    between atoms: C8_9  and  O2_10 
REMARK    4  A    between atoms: C15_18  and  O3_19 
REMARK    5  A    between atoms: C16_21  and  O4_22 
REMARK    6  A    between atoms: C17_24  and  O5_25 
REMARK    7  A    between atoms: C17_24  and  C18_27 
ROOT
HETATM    1  C4  UNL     1      40.237  37.656  30.251  1.00  0.00     0.069 C 
HETATM    2  C5  UNL     1      41.141  38.095  31.412  1.00  0.00     0.047 C 
HETATM    3  C6  UNL     1      39.432  38.785  29.706  1.00  0.00     0.042 C 
HETATM    4  C7  UNL     1      39.414  39.008  28.237  1.00  0.00     0.045 C 
HETATM    5  C8  UNL     1      39.764  37.865  27.368  1.00  0.00     0.103 C 
HETATM    6  C9  UNL     1      39.980  36.573  28.108  1.00  0.00     0.026 C 
HETATM    7  C10 UNL     1      38.819  35.771  28.423  1.00  0.00     0.022 C 
HETATM    8  C11 UNL     1      40.963  36.834  29.258  1.00  0.00     0.045 C 
HETATM    9  C12 UNL     1      42.202  37.186  28.618  1.00  0.00    -0.004 C 
HETATM   10  C13 UNL     1      42.914  38.463  28.902  1.00  0.00     0.018 C 
HETATM   11  C14 UNL     1      43.311  36.141  28.898  1.00  0.00     0.018 C 
HETATM   12  C15 UNL     1      41.931  36.990  27.111  1.00  0.00     0.126 C 
HETATM   13  C16 UNL     1      40.962  35.808  27.207  1.00  0.00     0.168 C 
HETATM   14  C17 UNL     1      40.994  38.007  26.541  1.00  0.00     0.132 C 
ENDROOT
BRANCH   1  15
HETATM   15  O1  UNL     1      39.318  36.760  30.857  1.00  0.00    -0.346 OA
BRANCH  15  16
HETATM   16  C2  UNL     1      38.448  36.930  31.863  1.00  0.00     0.034 C 
HETATM   17  C1  UNL     1      38.391  37.844  32.782  1.00  0.00     0.045 C 
HETATM   18  C3  UNL     1      37.361  35.877  31.925  1.00  0.00     0.075 C 
ENDBRANCH  15  16
ENDBRANCH   1  15
BRANCH   5  19
HETATM   19  O2  UNL     1      38.699  37.576  26.480  1.00  0.00    -0.386 OA
ATOM     20  H2  UNL     1      38.972  37.714  25.581  1.00  0.00     0.210 HD
ENDBRANCH   5  19
BRANCH  13  21
HETATM   21  O4  UNL     1      40.429  35.370  26.054  1.00  0.00    -0.392 OA
ATOM     22  H4  UNL     1      40.359  36.034  25.379  1.00  0.00     0.210 HD
ENDBRANCH  13  21
BRANCH  12  23
HETATM   23  O3  UNL     1      43.047  36.731  26.395  1.00  0.00    -0.383 OA
ATOM     24  H3  UNL     1      42.900  36.733  25.457  1.00  0.00     0.210 HD
ENDBRANCH  12  23
BRANCH  14  25
HETATM   25  O5  UNL     1      40.755  37.533  25.210  1.00  0.00    -0.383 OA
ATOM     26  H5  UNL     1      40.880  38.235  24.583  1.00  0.00     0.210 HD
ENDBRANCH  14  25
BRANCH  14  27
HETATM   27  C18 UNL     1      41.485  39.358  26.266  1.00  0.00     0.129 C 
HETATM   28 BR1  UNL     1      40.618  39.970  24.619  1.00  0.00    -0.093 Br
ENDBRANCH  14  27
TORSDOF 7
ENDMDL
MODEL 2
REMARK VINA RESULT: -5.540528384      7.747      8.925
REMARK  7 active torsions:
REMARK  status: ('A' for Active; 'I' for Inactive)
REMARK    1  A    between atoms: C2_2  and  O1_4 
REMARK    2  A    between atoms: O1_4  and  C4_5 
REMARK    3  A    between atoms: C8_9  and  O2_10 
REMARK    4  A    between atoms: C15_18  and  O3_19 
REMARK    5  A    between atoms: C16_21  and  O4_22 
REMARK    6  A    between atoms: C17_24  and  O5_25 
REMARK    7  A    between atoms: C17_24  and  C18_27 
ROOT
HETATM    1  C4  UNL     1      45.784  35.855  34.502  1.00  0.00     0.069 C 
HETATM    2  C5  UNL     1      46.025  37.368  34.402  1.00  0.00     0.047 C 
HETATM    3  C6  UNL     1      44.608  35.417  33.698  1.00  0.00     0.042 C 
HETATM    4  C7  UNL     1      44.760  34.259  32.781  1.00  0.00     0.045 C 
HETATM    5  C8  UNL     1      45.861  33.311  33.052  1.00  0.00     0.103 C 
HETATM    6  C9  UNL     1      46.620  33.597  34.321  1.00  0.00     0.026 C 
HETATM    7  C10 UNL     1      46.084  33.081  35.560  1.00  0.00     0.022 C 
HETATM    8  C11 UNL     1      47.028  35.077  34.315  1.00  0.00     0.045 C 
HETATM    9  C12 UNL     1      47.946  35.208  33.216  1.00  0.00    -0.004 C 
HETATM   10  C13 UNL     1      47.733  36.182  32.110  1.00  0.00     0.018 C 
HETATM   11  C14 UNL     1      49.369  35.586  33.697  1.00  0.00     0.018 C 
HETATM   12  C15 UNL     1      48.140  33.767  32.698  1.00  0.00     0.126 C 
HETATM   13  C16 UNL     1      48.018  33.028  34.034  1.00  0.00     0.168 C 
HETATM   14  C17 UNL     1      46.929  33.214  32.019  1.00  0.00     0.132 C 
ENDROOT
BRANCH   1  15
HETATM   15  O1  UNL     1      45.436  35.658  35.865  1.00  0.00    -0.346 OA
BRANCH  15  16
HETATM   16  C2  UNL     1      44.410  36.120  36.594  1.00  0.00     0.034 C 
HETATM   17  C1  UNL     1      43.131  35.956  36.446  1.00  0.00     0.045 C 
HETATM   18  C3  UNL     1      44.825  36.968  37.778  1.00  0.00     0.075 C 
ENDBRANCH  15  16
ENDBRANCH   1  15
BRANCH   5  19
HETATM   19  O2  UNL     1      45.351  32.005  33.247  1.00  0.00    -0.386 OA
ATOM     20  H2  UNL     1      44.691  32.005  33.930  1.00  0.00     0.210 HD
ENDBRANCH   5  19
BRANCH  13  21
HETATM   21  O4  UNL     1      48.070  31.686  33.987  1.00  0.00    -0.392 OA
ATOM     22  H4  UNL     1      48.794  31.340  33.480  1.00  0.00     0.210 HD
ENDBRANCH  13  21
BRANCH  12  23
HETATM   23  O3  UNL     1      49.322  33.578  32.071  1.00  0.00    -0.383 OA
ATOM     24  H3  UNL     1      49.325  33.889  31.173  1.00  0.00     0.210 HD
ENDBRANCH  12  23
BRANCH  14  25
HETATM   25  O5  UNL     1      47.272  31.841  31.788  1.00  0.00    -0.383 OA
ATOM     26  H5  UNL     1      48.196  31.763  31.586  1.00  0.00     0.210 HD
ENDBRANCH  14  25
BRANCH  14  27
HETATM   27  C18 UNL     1      46.609  33.647  30.659  1.00  0.00     0.129 C 
HETATM   28 BR1  UNL     1      47.175  32.221  29.441  1.00  0.00    -0.093 Br
ENDBRANCH  14  27
TORSDOF 7
ENDMDL
MODEL 3
REMARK VINA RESULT: -5.494437134      2.470      4.449
REMARK  7 active torsions:
REMARK  status: ('A' for Active; 'I' for Inactive)
REMARK    1  A    between atoms: C2_2  and  O1_4 
REMARK    2  A    between atoms: O1_4  and  C4_5 
REMARK    3  A    between atoms: C8_9  and  O2_10 
REMARK    4  A    between atoms: C15_18  and  O3_19 
REMARK    5  A    between atoms: C16_21  and  O4_22 
REMARK    6  A    between atoms: C17_24  and  O5_25 
REMARK    7  A    between atoms: C17_24  and  C18_27 
ROOT
HETATM    1  C4  UNL     1      39.524  36.476  27.929  1.00  0.00     0.069 C 
HETATM    2  C5  UNL     1      39.356  36.246  26.420  1.00  0.00     0.047 C 
HETATM    3  C6  UNL     1      40.758  35.833  28.463  1.00  0.00     0.042 C 
HETATM    4  C7  UNL     1      41.672  36.636  29.314  1.00  0.00     0.045 C 
HETATM    5  C8  UNL     1      41.111  37.825  29.988  1.00  0.00     0.103 C 
HETATM    6  C9  UNL     1      39.626  37.993  29.805  1.00  0.00     0.026 C 
HETATM    7  C10 UNL     1      38.749  37.272  30.698  1.00  0.00     0.022 C 
HETATM    8  C11 UNL     1      39.311  37.890  28.306  1.00  0.00     0.045 C 
HETATM    9  C12 UNL     1      39.958  39.028  27.709  1.00  0.00    -0.004 C 
HETATM   10  C13 UNL     1      40.946  38.895  26.602  1.00  0.00     0.018 C 
HETATM   11  C14 UNL     1      38.934  40.016  27.097  1.00  0.00     0.018 C 
HETATM   12  C15 UNL     1      40.521  39.826  28.903  1.00  0.00     0.126 C 
HETATM   13  C16 UNL     1      39.424  39.511  29.924  1.00  0.00     0.168 C 
HETATM   14  C17 UNL     1      41.666  39.146  29.583  1.00  0.00     0.132 C 
ENDROOT
BRANCH   1  15
HETATM   15  O1  UNL     1      38.427  35.781  28.502  1.00  0.00    -0.346 OA
BRANCH  15  16
HETATM   16  C2  UNL     1      38.071  34.489  28.449  1.00  0.00     0.034 C 
HETATM   17  C1  UNL     1      38.185  33.623  27.490  1.00  0.00     0.045 C 
HETATM   18  C3  UNL     1      37.434  33.970  29.722  1.00  0.00     0.075 C 
ENDBRANCH  15  16
ENDBRANCH   1  15
BRANCH   5  19
HETATM   19  O2  UNL     1      41.272  37.721  31.391  1.00  0.00    -0.386 OA
ATOM     20  H2  UNL     1      41.772  38.457  31.723  1.00  0.00     0.210 HD
ENDBRANCH   5  19
BRANCH  13  21
HETATM   21  O4  UNL     1      39.596  39.997  31.165  1.00  0.00    -0.392 OA
ATOM     22  H4  UNL     1      40.416  40.458  31.293  1.00  0.00     0.210 HD
ENDBRANCH  13  21
BRANCH  12  23
HETATM   23  O3  UNL     1      40.671  41.144  28.644  1.00  0.00    -0.383 OA
ATOM     24  H3  UNL     1      40.501  41.697  29.398  1.00  0.00     0.210 HD
ENDBRANCH  12  23
BRANCH  14  25
HETATM   25  O5  UNL     1      41.901  39.961  30.739  1.00  0.00    -0.383 OA
ATOM     26  H5  UNL     1      42.300  40.785  30.485  1.00  0.00     0.210 HD
ENDBRANCH  14  25
BRANCH  14  27
HETATM   27  C18 UNL     1      42.989  39.172  28.957  1.00  0.00     0.129 C 
HETATM   28 BR1  UNL     1      44.297  39.545  30.368  1.00  0.00    -0.093 Br
ENDBRANCH  14  27
TORSDOF 7
ENDMDL
MODEL 4
REMARK VINA RESULT: -5.493712095      2.823      5.079
REMARK  7 active torsions:
REMARK  status: ('A' for Active; 'I' for Inactive)
REMARK    1  A    between atoms: C2_2  and  O1_4 
REMARK    2  A    between atoms: O1_4  and  C4_5 
REMARK    3  A    between atoms: C8_9  and  O2_10 
REMARK    4  A    between atoms: C15_18  and  O3_19 
REMARK    5  A    between atoms: C16_21  and  O4_22 
REMARK    6  A    between atoms: C17_24  and  O5_25 
REMARK    7  A    between atoms: C17_24  and  C18_27 
ROOT
HETATM    1  C4  UNL     1      39.505  37.391  28.877  1.00  0.00     0.069 C 
HETATM    2  C5  UNL     1      39.444  37.383  27.343  1.00  0.00     0.047 C 
HETATM    3  C6  UNL     1      40.794  36.849  29.392  1.00  0.00     0.042 C 
HETATM    4  C7  UNL     1      41.539  37.626  30.416  1.00  0.00     0.045 C 
HETATM    5  C8  UNL     1      40.776  38.603  31.222  1.00  0.00     0.103 C 
HETATM    6  C9  UNL     1      39.293  38.589  30.964  1.00  0.00     0.026 C 
HETATM    7  C10 UNL     1      38.492  37.619  31.675  1.00  0.00     0.022 C 
HETATM    8  C11 UNL     1      39.067  38.683  29.448  1.00  0.00     0.045 C 
HETATM    9  C12 UNL     1      39.564  39.980  29.076  1.00  0.00    -0.004 C 
HETATM   10  C13 UNL     1      40.612  40.165  28.033  1.00  0.00     0.018 C 
HETATM   11  C14 UNL     1      38.435  40.901  28.551  1.00  0.00     0.018 C 
HETATM   12  C15 UNL     1      39.946  40.648  30.413  1.00  0.00     0.126 C 
HETATM   13  C16 UNL     1      38.861  40.025  31.296  1.00  0.00     0.168 C 
HETATM   14  C17 UNL     1      41.147  40.036  31.060  1.00  0.00     0.132 C 
ENDROOT
BRANCH   1  15
HETATM   15  O1  UNL     1      38.498  36.467  29.261  1.00  0.00    -0.346 OA
BRANCH  15  16
HETATM   16  C2  UNL     1      38.341  35.163  28.990  1.00  0.00     0.034 C 
HETATM   17  C1  UNL     1      38.832  34.437  28.034  1.00  0.00     0.045 C 
HETATM   18  C3  UNL     1      37.444  34.432  29.967  1.00  0.00     0.075 C 
ENDBRANCH  15  16
ENDBRANCH   1  15
BRANCH   5  19
HETATM   19  O2  UNL     1      40.885  38.299  32.600  1.00  0.00    -0.386 OA
ATOM     20  H2  UNL     1      40.275  37.610  32.836  1.00  0.00     0.210 HD
ENDBRANCH   5  19
BRANCH  13  21
HETATM   21  O4  UNL     1      38.902  40.326  32.605  1.00  0.00    -0.392 OA
ATOM     22  H4  UNL     1      39.681  40.797  32.873  1.00  0.00     0.210 HD
ENDBRANCH  13  21
BRANCH  12  23
HETATM   23  O3  UNL     1      39.910  41.999  30.367  1.00  0.00    -0.383 OA
ATOM     24  H3  UNL     1      40.465  42.367  29.690  1.00  0.00     0.210 HD
ENDBRANCH  12  23
BRANCH  14  25
HETATM   25  O5  UNL     1      41.204  40.681  32.339  1.00  0.00    -0.383 OA
ATOM     26  H5  UNL     1      41.018  41.607  32.249  1.00  0.00     0.210 HD
ENDBRANCH  14  25
BRANCH  14  27
HETATM   27  C18 UNL     1      42.478  40.346  30.538  1.00  0.00     0.129 C 
HETATM   28 BR1  UNL     1      43.640  40.705  32.075  1.00  0.00    -0.093 Br
ENDBRANCH  14  27
TORSDOF 7
ENDMDL
MODEL 5
REMARK VINA RESULT: -5.471739082      6.780      9.443
REMARK  7 active torsions:
REMARK  status: ('A' for Active; 'I' for Inactive)
REMARK    1  A    between atoms: C2_2  and  O1_4 
REMARK    2  A    between atoms: O1_4  and  C4_5 
REMARK    3  A    between atoms: C8_9  and  O2_10 
REMARK    4  A    between atoms: C15_18  and  O3_19 
REMARK    5  A    between atoms: C16_21  and  O4_22 
REMARK    6  A    between atoms: C17_24  and  O5_25 
REMARK    7  A    between atoms: C17_24  and  C18_27 
ROOT
HETATM    1  C4  UNL     1      47.719  34.797  30.533  1.00  0.00     0.069 C 
HETATM    2  C5  UNL     1      47.888  36.250  30.066  1.00  0.00     0.047 C 
HETATM    3  C6  UNL     1      48.860  34.340  31.375  1.00  0.00     0.042 C 
HETATM    4  C7  UNL     1      48.571  33.673  32.670  1.00  0.00     0.045 C 
HETATM    5  C8  UNL     1      47.237  33.060  32.841  1.00  0.00     0.103 C 
HETATM    6  C9  UNL     1      46.380  33.097  31.604  1.00  0.00     0.026 C 
HETATM    7  C10 UNL     1      46.559  32.050  30.625  1.00  0.00     0.022 C 
HETATM    8  C11 UNL     1      46.366  34.537  31.071  1.00  0.00     0.045 C 
HETATM    9  C12 UNL     1      45.702  35.306  32.088  1.00  0.00    -0.004 C 
HETATM   10  C13 UNL     1      46.331  36.495  32.729  1.00  0.00     0.018 C 
HETATM   11  C14 UNL     1      44.363  35.896  31.581  1.00  0.00     0.018 C 
HETATM   12  C15 UNL     1      45.236  34.261  33.124  1.00  0.00     0.126 C 
HETATM   13  C16 UNL     1      44.949  33.103  32.164  1.00  0.00     0.168 C 
HETATM   14  C17 UNL     1      46.362  33.647  33.893  1.00  0.00     0.132 C 
ENDROOT
BRANCH   1  15
HETATM   15  O1  UNL     1      47.779  34.046  29.330  1.00  0.00    -0.346 OA
BRANCH  15  16
HETATM   16  C2  UNL     1      47.421  34.352  28.074  1.00  0.00     0.034 C 
HETATM   17  C1  UNL     1      46.246  34.492  27.544  1.00  0.00     0.045 C 
HETATM   18  C3  UNL     1      48.589  34.567  27.133  1.00  0.00     0.075 C 
ENDBRANCH  15  16
ENDBRANCH   1  15
BRANCH   5  19
HETATM   19  O2  UNL     1      47.361  31.679  33.128  1.00  0.00    -0.386 OA
ATOM     20  H2  UNL     1      47.617  31.551  34.034  1.00  0.00     0.210 HD
ENDBRANCH   5  19
BRANCH  13  21
HETATM   21  O4  UNL     1      44.568  31.940  32.719  1.00  0.00    -0.392 OA
ATOM     22  H4  UNL     1      44.803  31.848  33.634  1.00  0.00     0.210 HD
ENDBRANCH  13  21
BRANCH  12  23
HETATM   23  O3  UNL     1      44.163  34.660  33.842  1.00  0.00    -0.383 OA
ATOM     24  H3  UNL     1      43.352  34.254  33.562  1.00  0.00     0.210 HD
ENDBRANCH  12  23
BRANCH  14  25
HETATM   25  O5  UNL     1      45.725  32.606  34.646  1.00  0.00    -0.383 OA
ATOM     26  H5  UNL     1      45.207  32.979  35.349  1.00  0.00     0.210 HD
ENDBRANCH  14  25
BRANCH  14  27
HETATM   27  C18 UNL     1      46.997  34.411  34.967  1.00  0.00     0.129 C 
HETATM   28 BR1  UNL     1      47.150  33.224  36.518  1.00  0.00    -0.093 Br
ENDBRANCH  14  27
TORSDOF 7
ENDMDL
