MODEL 1
REMARK VINA RESULT: -6.005225450      0.000      0.000
REMARK  6 active torsions:
REMARK  status: ('A' for Active; 'I' for Inactive)
REMARK    1  A    between atoms: O1_2  and  C2_3 
REMARK    2  A    between atoms: C9_11  and  O2_12 
REMARK    3  A    between atoms: C11_15  and  C12_16 
REMARK    4  A    between atoms: C12_16  and  O3_17 
REMARK    5  A    between atoms: C15_21  and  O4_23 
REMARK    6  A    between atoms: C18_26  and  O5_27 
ROOT
HETATM    1  C2  UNL     1      39.686  37.430  29.458  1.00  0.00     0.133 C 
HETATM    2  C3  UNL     1      38.617  36.327  29.791  1.00  0.00     0.070 C 
HETATM    3  C4  UNL     1      38.878  35.166  28.904  1.00  0.00     0.177 C 
HETATM    4  F1  UNL     1      37.603  34.653  28.565  1.00  0.00    -0.249 F 
HETATM    5  C5  UNL     1      39.377  35.977  27.771  1.00  0.00     0.031 C 
HETATM    6  C6  UNL     1      39.700  35.329  26.509  1.00  0.00     0.009 C 
HETATM    7  C7  UNL     1      39.815  36.537  25.577  1.00  0.00     0.009 C 
HETATM    8  C8  UNL     1      40.000  37.855  26.287  1.00  0.00     0.031 C 
HETATM    9  C9  UNL     1      40.175  38.873  25.228  1.00  0.00     0.073 A 
HETATM   10  C10 UNL     1      40.364  38.461  23.810  1.00  0.00     0.054 A 
HETATM   11  C11 UNL     1      41.476  39.035  24.627  1.00  0.00     0.016 A 
HETATM   12  C13 UNL     1      42.501  38.326  25.353  1.00  0.00     0.023 C 
HETATM   13  C14 UNL     1      42.256  37.410  26.514  1.00  0.00     0.030 C 
HETATM   14  C15 UNL     1      43.656  37.356  27.144  1.00  0.00     0.061 C 
HETATM   15  C16 UNL     1      44.743  37.464  26.052  1.00  0.00     0.046 C 
HETATM   16  C17 UNL     1      43.867  38.408  28.141  1.00  0.00     0.069 C 
HETATM   17  C18 UNL     1      42.799  39.415  28.339  1.00  0.00     0.121 C 
HETATM   18  C19 UNL     1      41.432  39.138  27.884  1.00  0.00     0.043 C 
HETATM   19  C20 UNL     1      41.119  37.750  27.367  1.00  0.00    -0.015 C 
HETATM   20  C21 UNL     1      40.503  36.848  28.336  1.00  0.00    -0.003 C 
HETATM   21  C22 UNL     1      41.374  35.881  29.100  1.00  0.00     0.019 C 
ENDROOT
BRANCH  11  22
HETATM   22  C12 UNL     1      41.897  40.422  24.075  1.00  0.00     0.176 C 
BRANCH  22  23
HETATM   23  O3  UNL     1      42.068  41.340  25.058  1.00  0.00    -0.400 OA
ATOM     24  H3  UNL     1      42.106  40.944  25.921  1.00  0.00     0.209 HD
ENDBRANCH  22  23
ENDBRANCH  11  22
BRANCH   9  25
HETATM   25  O2  UNL     1      39.435  40.088  25.314  1.00  0.00    -0.389 OA
ATOM     26  H2  UNL     1      39.028  40.433  24.528  1.00  0.00     0.210 HD
ENDBRANCH   9  25
BRANCH  14  27
HETATM   27  O4  UNL     1      43.998  36.041  27.550  1.00  0.00    -0.390 OA
ATOM     28  H4  UNL     1      44.577  35.620  26.926  1.00  0.00     0.210 HD
ENDBRANCH  14  27
BRANCH  17  29
HETATM   29  O5  UNL     1      42.878  39.870  29.674  1.00  0.00    -0.395 OA
ATOM     30  H5  UNL     1      42.876  39.108  30.240  1.00  0.00     0.210 HD
ENDBRANCH  17  29
BRANCH   1  31
HETATM   31  O1  UNL     1      40.368  37.396  30.710  1.00  0.00    -0.390 OA
HETATM   32  C1  UNL     1      40.051  38.511  31.424  1.00  0.00     0.202 C 
ENDBRANCH   1  31
TORSDOF 6
ENDMDL
MODEL 2
REMARK VINA RESULT: -5.967170422      3.164      4.450
REMARK  6 active torsions:
REMARK  status: ('A' for Active; 'I' for Inactive)
REMARK    1  A    between atoms: O1_2  and  C2_3 
REMARK    2  A    between atoms: C9_11  and  O2_12 
REMARK    3  A    between atoms: C11_15  and  C12_16 
REMARK    4  A    between atoms: C12_16  and  O3_17 
REMARK    5  A    between atoms: C15_21  and  O4_23 
REMARK    6  A    between atoms: C18_26  and  O5_27 
ROOT
HETATM    1  C2  UNL     1      38.455  38.037  31.385  1.00  0.00     0.133 C 
HETATM    2  C3  UNL     1      38.173  36.591  30.840  1.00  0.00     0.070 C 
HETATM    3  C4  UNL     1      39.170  36.309  29.777  1.00  0.00     0.177 C 
HETATM    4  F1  UNL     1      38.479  35.559  28.796  1.00  0.00    -0.249 F 
HETATM    5  C5  UNL     1      39.269  37.712  29.315  1.00  0.00     0.031 C 
HETATM    6  C6  UNL     1      40.076  38.030  28.147  1.00  0.00     0.009 C 
HETATM    7  C7  UNL     1      39.610  39.456  27.845  1.00  0.00     0.009 C 
HETATM    8  C8  UNL     1      38.909  40.137  28.994  1.00  0.00     0.031 C 
HETATM    9  C9  UNL     1      38.617  41.515  28.540  1.00  0.00     0.073 A 
HETATM   10  C10 UNL     1      39.203  42.031  27.273  1.00  0.00     0.054 A 
HETATM   11  C11 UNL     1      39.661  42.507  28.612  1.00  0.00     0.016 A 
HETATM   12  C13 UNL     1      40.795  42.047  29.377  1.00  0.00     0.023 C 
HETATM   13  C14 UNL     1      40.958  40.662  29.926  1.00  0.00     0.030 C 
HETATM   14  C15 UNL     1      42.034  40.896  30.997  1.00  0.00     0.061 C 
HETATM   15  C16 UNL     1      43.004  42.012  30.551  1.00  0.00     0.046 C 
HETATM   16  C17 UNL     1      41.465  41.243  32.302  1.00  0.00     0.069 C 
HETATM   17  C18 UNL     1      39.999  41.423  32.406  1.00  0.00     0.121 C 
HETATM   18  C19 UNL     1      39.114  40.868  31.375  1.00  0.00     0.043 C 
HETATM   19  C20 UNL     1      39.724  39.979  30.313  1.00  0.00    -0.015 C 
HETATM   20  C21 UNL     1      39.605  38.544  30.556  1.00  0.00    -0.003 C 
HETATM   21  C22 UNL     1      40.756  37.808  31.199  1.00  0.00     0.019 C 
ENDROOT
BRANCH  11  22
HETATM   22  C12 UNL     1      39.289  43.998  28.817  1.00  0.00     0.176 C 
BRANCH  22  23
HETATM   23  O3  UNL     1      38.862  44.256  30.079  1.00  0.00    -0.400 OA
ATOM     24  H3  UNL     1      37.944  44.500  30.109  1.00  0.00     0.209 HD
ENDBRANCH  22  23
ENDBRANCH  11  22
BRANCH   9  25
HETATM   25  O2  UNL     1      37.313  42.047  28.756  1.00  0.00    -0.389 OA
ATOM     26  H2  UNL     1      37.043  42.253  29.643  1.00  0.00     0.210 HD
ENDBRANCH   9  25
BRANCH  14  27
HETATM   27  O4  UNL     1      43.004  39.861  31.000  1.00  0.00    -0.390 OA
ATOM     28  H4  UNL     1      43.853  40.176  30.714  1.00  0.00     0.210 HD
ENDBRANCH  14  27
BRANCH  17  29
HETATM   29  O5  UNL     1      39.617  41.098  33.726  1.00  0.00    -0.395 OA
ATOM     30  H5  UNL     1      39.021  41.772  34.029  1.00  0.00     0.210 HD
ENDBRANCH  17  29
BRANCH   1  31
HETATM   31  O1  UNL     1      38.853  37.654  32.701  1.00  0.00    -0.390 OA
HETATM   32  C1  UNL     1      37.793  37.093  33.344  1.00  0.00     0.202 C 
ENDBRANCH   1  31
TORSDOF 6
ENDMDL
MODEL 3
REMARK VINA RESULT: -5.885905418      2.770      4.898
REMARK  6 active torsions:
REMARK  status: ('A' for Active; 'I' for Inactive)
REMARK    1  A    between atoms: O1_2  and  C2_3 
REMARK    2  A    between atoms: C9_11  and  O2_12 
REMARK    3  A    between atoms: C11_15  and  C12_16 
REMARK    4  A    between atoms: C12_16  and  O3_17 
REMARK    5  A    between atoms: C15_21  and  O4_23 
REMARK    6  A    between atoms: C18_26  and  O5_27 
ROOT
HETATM    1  C2  UNL     1      38.732  36.650  28.871  1.00  0.00     0.133 C 
HETATM    2  C3  UNL     1      38.925  35.995  27.455  1.00  0.00     0.070 C 
HETATM    3  C4  UNL     1      40.186  36.528  26.882  1.00  0.00     0.177 C 
HETATM    4  F1  UNL     1      39.939  36.680  25.497  1.00  0.00    -0.249 F 
HETATM    5  C5  UNL     1      40.073  37.855  27.529  1.00  0.00     0.031 C 
HETATM    6  C6  UNL     1      41.044  38.893  27.218  1.00  0.00     0.009 C 
HETATM    7  C7  UNL     1      40.354  40.128  27.800  1.00  0.00     0.009 C 
HETATM    8  C8  UNL     1      39.262  39.819  28.794  1.00  0.00     0.031 C 
HETATM    9  C9  UNL     1      38.784  41.125  29.300  1.00  0.00     0.073 A 
HETATM   10  C10 UNL     1      39.525  42.375  28.979  1.00  0.00     0.054 A 
HETATM   11  C11 UNL     1      39.527  41.778  30.349  1.00  0.00     0.016 A 
HETATM   12  C13 UNL     1      40.516  40.908  30.936  1.00  0.00     0.023 C 
HETATM   13  C14 UNL     1      40.851  39.531  30.446  1.00  0.00     0.030 C 
HETATM   14  C15 UNL     1      41.555  38.946  31.679  1.00  0.00     0.061 C 
HETATM   15  C16 UNL     1      42.326  40.050  32.435  1.00  0.00     0.046 C 
HETATM   16  C17 UNL     1      40.625  38.287  32.600  1.00  0.00     0.069 C 
HETATM   17  C18 UNL     1      39.176  38.353  32.304  1.00  0.00     0.121 C 
HETATM   18  C19 UNL     1      38.715  38.680  30.950  1.00  0.00     0.043 C 
HETATM   19  C20 UNL     1      39.748  38.780  29.849  1.00  0.00    -0.015 C 
HETATM   20  C21 UNL     1      39.902  37.583  29.027  1.00  0.00    -0.003 C 
HETATM   21  C22 UNL     1      41.000  36.600  29.355  1.00  0.00     0.019 C 
ENDROOT
BRANCH  11  22
HETATM   22  C12 UNL     1      38.788  42.706  31.348  1.00  0.00     0.176 C 
BRANCH  22  23
HETATM   23  O3  UNL     1      38.109  42.011  32.294  1.00  0.00    -0.400 OA
ATOM     24  H3  UNL     1      37.186  41.923  32.085  1.00  0.00     0.209 HD
ENDBRANCH  22  23
ENDBRANCH  11  22
BRANCH   9  25
HETATM   25  O2  UNL     1      37.380  41.364  29.366  1.00  0.00    -0.389 OA
ATOM     26  H2  UNL     1      36.908  41.544  28.561  1.00  0.00     0.210 HD
ENDBRANCH   9  25
BRANCH  14  27
HETATM   27  O4  UNL     1      42.704  38.196  31.319  1.00  0.00    -0.390 OA
ATOM     28  H4  UNL     1      43.154  38.578  30.575  1.00  0.00     0.210 HD
ENDBRANCH  14  27
BRANCH  17  29
HETATM   29  O5  UNL     1      38.571  37.202  32.854  1.00  0.00    -0.395 OA
ATOM     30  H5  UNL     1      37.767  37.040  32.374  1.00  0.00     0.210 HD
ENDBRANCH  17  29
BRANCH   1  31
HETATM   31  O1  UNL     1      38.876  35.455  29.637  1.00  0.00    -0.390 OA
HETATM   32  C1  UNL     1      37.828  34.626  29.377  1.00  0.00     0.202 C 
ENDBRANCH   1  31
TORSDOF 6
ENDMDL
MODEL 4
REMARK VINA RESULT: -5.794860359      6.167      8.340
REMARK  6 active torsions:
REMARK  status: ('A' for Active; 'I' for Inactive)
REMARK    1  A    between atoms: O1_2  and  C2_3 
REMARK    2  A    between atoms: C9_11  and  O2_12 
REMARK    3  A    between atoms: C11_15  and  C12_16 
REMARK    4  A    between atoms: C12_16  and  O3_17 
REMARK    5  A    between atoms: C15_21  and  O4_23 
REMARK    6  A    between atoms: C18_26  and  O5_27 
ROOT
HETATM    1  C2  UNL     1      46.116  36.513  33.118  1.00  0.00     0.133 C 
HETATM    2  C3  UNL     1      45.014  37.633  33.138  1.00  0.00     0.070 C 
HETATM    3  C4  UNL     1      43.812  37.093  32.455  1.00  0.00     0.177 C 
HETATM    4  F1  UNL     1      43.259  38.182  31.739  1.00  0.00    -0.249 F 
HETATM    5  C5  UNL     1      44.569  36.244  31.509  1.00  0.00     0.031 C 
HETATM    6  C6  UNL     1      43.861  35.519  30.465  1.00  0.00     0.009 C 
HETATM    7  C7  UNL     1      45.019  35.097  29.559  1.00  0.00     0.009 C 
HETATM    8  C8  UNL     1      46.376  35.158  30.215  1.00  0.00     0.031 C 
HETATM    9  C9  UNL     1      47.340  34.638  29.220  1.00  0.00     0.073 A 
HETATM   10  C10 UNL     1      46.856  33.987  27.971  1.00  0.00     0.054 A 
HETATM   11  C11 UNL     1      47.492  33.211  29.078  1.00  0.00     0.016 A 
HETATM   12  C13 UNL     1      46.840  32.488  30.143  1.00  0.00     0.023 C 
HETATM   13  C14 UNL     1      45.983  33.107  31.205  1.00  0.00     0.030 C 
HETATM   14  C15 UNL     1      45.988  31.998  32.268  1.00  0.00     0.061 C 
HETATM   15  C16 UNL     1      46.056  30.609  31.597  1.00  0.00     0.046 C 
HETATM   16  C17 UNL     1      47.095  32.131  33.218  1.00  0.00     0.069 C 
HETATM   17  C18 UNL     1      48.092  33.202  32.992  1.00  0.00     0.121 C 
HETATM   18  C19 UNL     1      47.768  34.340  32.123  1.00  0.00     0.043 C 
HETATM   19  C20 UNL     1      46.349  34.464  31.610  1.00  0.00    -0.015 C 
HETATM   20  C21 UNL     1      45.489  35.369  32.367  1.00  0.00    -0.003 C 
HETATM   21  C22 UNL     1      44.579  34.804  33.431  1.00  0.00     0.019 C 
ENDROOT
BRANCH  11  22
HETATM   22  C12 UNL     1      48.854  32.627  28.621  1.00  0.00     0.176 C 
BRANCH  22  23
HETATM   23  O3  UNL     1      49.809  32.733  29.578  1.00  0.00    -0.400 OA
ATOM     24  H3  UNL     1      49.667  32.133  30.301  1.00  0.00     0.209 HD
ENDBRANCH  22  23
ENDBRANCH  11  22
BRANCH   9  25
HETATM   25  O2  UNL     1      48.544  35.363  28.986  1.00  0.00    -0.389 OA
ATOM     26  H2  UNL     1      48.737  36.118  29.528  1.00  0.00     0.210 HD
ENDBRANCH   9  25
BRANCH  14  27
HETATM   27  O4  UNL     1      44.702  31.814  32.838  1.00  0.00    -0.390 OA
ATOM     28  H4  UNL     1      44.568  30.916  33.118  1.00  0.00     0.210 HD
ENDBRANCH  14  27
BRANCH  17  29
HETATM   29  O5  UNL     1      48.620  33.572  34.248  1.00  0.00    -0.395 OA
ATOM     30  H5  UNL     1      48.973  32.791  34.656  1.00  0.00     0.210 HD
ENDBRANCH  17  29
BRANCH   1  31
HETATM   31  O1  UNL     1      46.161  36.288  34.526  1.00  0.00    -0.390 OA
HETATM   32  C1  UNL     1      47.319  36.801  35.026  1.00  0.00     0.202 C 
ENDBRANCH   1  31
TORSDOF 6
ENDMDL
MODEL 5
REMARK VINA RESULT: -5.701437708      1.566      1.806
REMARK  6 active torsions:
REMARK  status: ('A' for Active; 'I' for Inactive)
REMARK    1  A    between atoms: O1_2  and  C2_3 
REMARK    2  A    between atoms: C9_11  and  O2_12 
REMARK    3  A    between atoms: C11_15  and  C12_16 
REMARK    4  A    between atoms: C12_16  and  O3_17 
REMARK    5  A    between atoms: C15_21  and  O4_23 
REMARK    6  A    between atoms: C18_26  and  O5_27 
ROOT
HETATM    1  C2  UNL     1      38.898  37.255  29.881  1.00  0.00     0.133 C 
HETATM    2  C3  UNL     1      38.223  35.845  29.722  1.00  0.00     0.070 C 
HETATM    3  C4  UNL     1      39.029  35.069  28.747  1.00  0.00     0.177 C 
HETATM    4  F1  UNL     1      38.095  34.313  27.999  1.00  0.00    -0.249 F 
HETATM    5  C5  UNL     1      39.434  36.245  27.946  1.00  0.00     0.031 C 
HETATM    6  C6  UNL     1      40.197  36.054  26.722  1.00  0.00     0.009 C 
HETATM    7  C7  UNL     1      40.076  37.437  26.078  1.00  0.00     0.009 C 
HETATM    8  C8  UNL     1      39.662  38.531  27.031  1.00  0.00     0.031 C 
HETATM    9  C9  UNL     1      39.684  39.788  26.251  1.00  0.00     0.073 A 
HETATM   10  C10 UNL     1      40.274  39.816  24.884  1.00  0.00     0.054 A 
HETATM   11  C11 UNL     1      40.944  40.462  26.053  1.00  0.00     0.016 A 
HETATM   12  C13 UNL     1      41.987  39.919  26.889  1.00  0.00     0.023 C 
HETATM   13  C14 UNL     1      41.845  38.711  27.766  1.00  0.00     0.030 C 
HETATM   14  C15 UNL     1      43.029  38.906  28.725  1.00  0.00     0.061 C 
HETATM   15  C16 UNL     1      44.206  39.591  27.996  1.00  0.00     0.046 C 
HETATM   16  C17 UNL     1      42.673  39.690  29.910  1.00  0.00     0.069 C 
HETATM   17  C18 UNL     1      41.310  40.264  29.990  1.00  0.00     0.121 C 
HETATM   18  C19 UNL     1      40.234  39.730  29.148  1.00  0.00     0.043 C 
HETATM   19  C20 UNL     1      40.517  38.486  28.333  1.00  0.00    -0.015 C 
HETATM   20  C21 UNL     1      40.066  37.233  28.932  1.00  0.00    -0.003 C 
HETATM   21  C22 UNL     1      41.047  36.397  29.719  1.00  0.00     0.019 C 
ENDROOT
BRANCH  11  22
HETATM   22  C12 UNL     1      40.971  42.003  25.882  1.00  0.00     0.176 C 
BRANCH  22  23
HETATM   23  O3  UNL     1      40.644  42.655  27.026  1.00  0.00    -0.400 OA
ATOM     24  H3  UNL     1      39.710  42.640  27.197  1.00  0.00     0.209 HD
ENDBRANCH  22  23
ENDBRANCH  11  22
BRANCH   9  25
HETATM   25  O2  UNL     1      38.575  40.677  26.347  1.00  0.00    -0.389 OA
ATOM     26  H2  UNL     1      38.714  41.546  26.706  1.00  0.00     0.210 HD
ENDBRANCH   9  25
BRANCH  14  27
HETATM   27  O4  UNL     1      43.710  37.686  28.972  1.00  0.00    -0.390 OA
ATOM     28  H4  UNL     1      44.444  37.807  29.561  1.00  0.00     0.210 HD
ENDBRANCH  14  27
BRANCH  17  29
HETATM   29  O5  UNL     1      40.969  40.375  31.356  1.00  0.00    -0.395 OA
ATOM     30  H5  UNL     1      40.135  39.937  31.482  1.00  0.00     0.210 HD
ENDBRANCH  17  29
BRANCH   1  31
HETATM   31  O1  UNL     1      39.294  37.107  31.244  1.00  0.00    -0.390 OA
HETATM   32  C1  UNL     1      38.184  36.970  32.021  1.00  0.00     0.202 C 
ENDBRANCH   1  31
TORSDOF 6
ENDMDL
