MODEL 1
REMARK VINA RESULT: -5.754264367      0.000      0.000
REMARK  2 active torsions:
REMARK  status: ('A' for Active; 'I' for Inactive)
REMARK    1  A    between atoms: N1_3  and  C3_4 
REMARK    2  A    between atoms: C3_4  and  C4_5 
ROOT
HETATM    1  C4  UNL     1      -2.345  -8.816  20.253  1.00  0.00     0.159 C 
HETATM    2  C5  UNL     1      -1.586  -8.828  18.920  1.00  0.00     0.045 C 
HETATM    3  C6  UNL     1      -2.344  -8.045  17.865  1.00  0.00     0.036 C 
HETATM    4  C7  UNL     1      -3.691  -7.684  18.497  1.00  0.00     0.147 C 
HETATM    5  C8  UNL     1      -3.428  -6.808  19.704  1.00  0.00     0.265 C 
HETATM    6  N2  UNL     1      -2.552  -7.436  20.660  1.00  0.00    -0.061 N 
ATOM      7  H21 UNL     1      -1.676  -6.928  20.784  1.00  0.00     0.278 HD
ATOM      8  H22 UNL     1      -2.895  -7.357  21.617  1.00  0.00     0.278 HD
HETATM    9  O1  UNL     1      -4.275  -8.902  18.882  1.00  0.00    -0.382 OA
HETATM   10  C9  UNL     1      -3.690  -9.424  20.019  1.00  0.00     0.208 C 
ENDROOT
BRANCH   1  11
HETATM   11  C3  UNL     1      -1.502  -9.576  21.234  1.00  0.00     0.146 C 
BRANCH  11  12
HETATM   12  N1  UNL     1      -2.064 -10.838  21.621  1.00  0.00    -0.230 NA
HETATM   13  C2  UNL     1      -1.233 -11.882  21.029  1.00  0.00     0.132 C 
HETATM   14  C1  UNL     1      -1.288 -13.058  21.971  1.00  0.00     0.202 C 
HETATM   15  O2  UNL     1      -0.843 -12.620  23.210  1.00  0.00    -0.305 OA
HETATM   16  S1  UNL     1      -1.709 -11.119  23.351  1.00  0.00     0.083 SA
ENDBRANCH  11  12
ENDBRANCH   1  11
TORSDOF 2
ENDMDL
MODEL 2
REMARK VINA RESULT: -5.664280414      2.272      5.273
REMARK  2 active torsions:
REMARK  status: ('A' for Active; 'I' for Inactive)
REMARK    1  A    between atoms: N1_3  and  C3_4 
REMARK    2  A    between atoms: C3_4  and  C4_5 
ROOT
HETATM    1  C4  UNL     1      -1.771 -10.053  21.884  1.00  0.00     0.159 C 
HETATM    2  C5  UNL     1      -0.828  -9.243  22.782  1.00  0.00     0.045 C 
HETATM    3  C6  UNL     1      -0.626  -9.941  24.114  1.00  0.00     0.036 C 
HETATM    4  C7  UNL     1      -1.600 -11.122  24.120  1.00  0.00     0.147 C 
HETATM    5  C8  UNL     1      -1.225 -12.052  22.985  1.00  0.00     0.265 C 
HETATM    6  N2  UNL     1      -1.219 -11.386  21.708  1.00  0.00    -0.061 N 
ATOM      7  H21 UNL     1      -0.294 -11.374  21.275  1.00  0.00     0.278 HD
ATOM      8  H22 UNL     1      -1.702 -11.918  20.985  1.00  0.00     0.278 HD
HETATM    9  O1  UNL     1      -2.875 -10.572  23.914  1.00  0.00    -0.382 OA
HETATM   10  C9  UNL     1      -3.075 -10.197  22.601  1.00  0.00     0.208 C 
ENDROOT
BRANCH   1  11
HETATM   11  C3  UNL     1      -1.875  -9.307  20.587  1.00  0.00     0.146 C 
BRANCH  11  12
HETATM   12  N1  UNL     1      -3.139  -8.654  20.396  1.00  0.00    -0.230 NA
HETATM   13  C2  UNL     1      -2.859  -7.268  20.030  1.00  0.00     0.132 C 
HETATM   14  C1  UNL     1      -3.984  -6.830  19.128  1.00  0.00     0.202 C 
HETATM   15  O2  UNL     1      -4.017  -7.702  18.048  1.00  0.00    -0.305 OA
HETATM   16  S1  UNL     1      -3.858  -9.229  18.864  1.00  0.00     0.083 SA
ENDBRANCH  11  12
ENDBRANCH   1  11
TORSDOF 2
ENDMDL
MODEL 3
REMARK VINA RESULT: -5.542545210      2.316      5.289
REMARK  2 active torsions:
REMARK  status: ('A' for Active; 'I' for Inactive)
REMARK    1  A    between atoms: N1_3  and  C3_4 
REMARK    2  A    between atoms: C3_4  and  C4_5 
ROOT
HETATM    1  C4  UNL     1      -1.897 -10.025  22.002  1.00  0.00     0.159 C 
HETATM    2  C5  UNL     1      -1.282 -11.425  21.887  1.00  0.00     0.045 C 
HETATM    3  C6  UNL     1      -1.150 -12.067  23.255  1.00  0.00     0.036 C 
HETATM    4  C7  UNL     1      -1.523 -10.980  24.266  1.00  0.00     0.147 C 
HETATM    5  C8  UNL     1      -2.962 -10.577  24.020  1.00  0.00     0.265 C 
HETATM    6  N2  UNL     1      -3.185 -10.133  22.667  1.00  0.00    -0.061 N 
ATOM      7  H21 UNL     1      -3.839 -10.731  22.160  1.00  0.00     0.278 HD
ATOM      8  H22 UNL     1      -3.723  -9.269  22.621  1.00  0.00     0.278 HD
HETATM    9  O1  UNL     1      -0.654  -9.906  24.015  1.00  0.00    -0.382 OA
HETATM   10  C9  UNL     1      -1.005  -9.205  22.878  1.00  0.00     0.208 C 
ENDROOT
BRANCH   1  11
HETATM   11  C3  UNL     1      -2.023  -9.494  20.605  1.00  0.00     0.146 C 
BRANCH  11  12
HETATM   12  N1  UNL     1      -3.245  -8.783  20.365  1.00  0.00    -0.230 NA
HETATM   13  C2  UNL     1      -2.891  -7.394  20.088  1.00  0.00     0.132 C 
HETATM   14  C1  UNL     1      -3.935  -6.868  19.138  1.00  0.00     0.202 C 
HETATM   15  O2  UNL     1      -3.927  -7.686  18.016  1.00  0.00    -0.305 OA
HETATM   16  S1  UNL     1      -3.880  -9.255  18.762  1.00  0.00     0.083 SA
ENDBRANCH  11  12
ENDBRANCH   1  11
TORSDOF 2
ENDMDL
MODEL 4
REMARK VINA RESULT: -5.520325997      5.813      7.579
REMARK  2 active torsions:
REMARK  status: ('A' for Active; 'I' for Inactive)
REMARK    1  A    between atoms: N1_3  and  C3_4 
REMARK    2  A    between atoms: C3_4  and  C4_5 
ROOT
HETATM    1  C4  UNL     1      -4.178  -9.392  13.214  1.00  0.00     0.159 C 
HETATM    2  C5  UNL     1      -3.745 -10.842  13.465  1.00  0.00     0.045 C 
HETATM    3  C6  UNL     1      -3.125 -11.440  12.217  1.00  0.00     0.036 C 
HETATM    4  C7  UNL     1      -3.335 -10.405  11.108  1.00  0.00     0.147 C 
HETATM    5  C8  UNL     1      -2.600  -9.139  11.496  1.00  0.00     0.265 C 
HETATM    6  N2  UNL     1      -3.023  -8.628  12.775  1.00  0.00    -0.061 N 
ATOM      7  H21 UNL     1      -2.270  -8.624  13.464  1.00  0.00     0.278 HD
ATOM      8  H22 UNL     1      -3.200  -7.624  12.758  1.00  0.00     0.278 HD
HETATM    9  O1  UNL     1      -4.719 -10.180  11.047  1.00  0.00    -0.382 OA
HETATM   10  C9  UNL     1      -5.167  -9.398  12.093  1.00  0.00     0.208 C 
ENDROOT
BRANCH   1  11
HETATM   11  C3  UNL     1      -4.738  -8.881  14.509  1.00  0.00     0.146 C 
BRANCH  11  12
HETATM   12  N1  UNL     1      -3.750  -8.315  15.382  1.00  0.00    -0.230 NA
HETATM   13  C2  UNL     1      -4.263  -7.026  15.838  1.00  0.00     0.132 C 
HETATM   14  C1  UNL     1      -3.707  -6.810  17.222  1.00  0.00     0.202 C 
HETATM   15  O2  UNL     1      -4.108  -7.885  18.004  1.00  0.00    -0.305 OA
HETATM   16  S1  UNL     1      -3.769  -9.209  16.929  1.00  0.00     0.083 SA
ENDBRANCH  11  12
ENDBRANCH   1  11
TORSDOF 2
ENDMDL
MODEL 5
REMARK VINA RESULT: -5.515848525      3.607      4.733
REMARK  2 active torsions:
REMARK  status: ('A' for Active; 'I' for Inactive)
REMARK    1  A    between atoms: N1_3  and  C3_4 
REMARK    2  A    between atoms: C3_4  and  C4_5 
ROOT
HETATM    1  C4  UNL     1      -3.622  -8.045  16.081  1.00  0.00     0.159 C 
HETATM    2  C5  UNL     1      -4.435  -9.334  15.917  1.00  0.00     0.045 C 
HETATM    3  C6  UNL     1      -5.317  -9.259  14.686  1.00  0.00     0.036 C 
HETATM    4  C7  UNL     1      -5.188  -7.825  14.165  1.00  0.00     0.147 C 
HETATM    5  C8  UNL     1      -3.742  -7.587  13.783  1.00  0.00     0.265 C 
HETATM    6  N2  UNL     1      -2.837  -7.831  14.877  1.00  0.00    -0.061 N 
ATOM      7  H21 UNL     1      -2.190  -8.597  14.689  1.00  0.00     0.278 HD
ATOM      8  H22 UNL     1      -2.145  -7.090  14.987  1.00  0.00     0.278 HD
HETATM    9  O1  UNL     1      -5.566  -6.993  15.231  1.00  0.00    -0.382 OA
HETATM   10  C9  UNL     1      -4.586  -6.908  16.200  1.00  0.00     0.208 C 
ENDROOT
BRANCH   1  11
HETATM   11  C3  UNL     1      -2.759  -8.232  17.294  1.00  0.00     0.146 C 
BRANCH  11  12
HETATM   12  N1  UNL     1      -3.498  -8.529  18.488  1.00  0.00    -0.230 NA
HETATM   13  C2  UNL     1      -2.783  -9.593  19.186  1.00  0.00     0.132 C 
HETATM   14  C1  UNL     1      -3.034  -9.383  20.658  1.00  0.00     0.202 C 
HETATM   15  O2  UNL     1      -2.594  -8.106  20.977  1.00  0.00    -0.305 OA
HETATM   16  S1  UNL     1      -3.263  -7.196  19.656  1.00  0.00     0.083 SA
ENDBRANCH  11  12
ENDBRANCH   1  11
TORSDOF 2
ENDMDL
