MODEL 1
REMARK VINA RESULT: -6.440159729      0.000      0.000
REMARK  4 active torsions:
REMARK  status: ('A' for Active; 'I' for Inactive)
REMARK    1  A    between atoms: C2_2  and  O1_3 
REMARK    2  A    between atoms: O1_3  and  C3_4 
REMARK    3  A    between atoms: C3_4  and  C4_6 
REMARK    4  A    between atoms: C8_10  and  O3_11 
ROOT
HETATM    1  C4  UNL     1      -2.508  -9.877  21.500  1.00  0.00     0.119 C 
HETATM    2  C5  UNL     1      -2.356 -10.404  20.093  1.00  0.00     0.086 C 
HETATM    3  C6  UNL     1      -2.617  -9.152  19.262  1.00  0.00     0.167 C 
HETATM    4  C7  UNL     1      -2.334  -7.979  20.176  1.00  0.00     0.101 C 
HETATM    5  C8  UNL     1      -1.717  -8.591  21.417  1.00  0.00     0.137 C 
HETATM    6  O4  UNL     1      -3.969  -9.203  18.903  1.00  0.00    -0.353 OA
HETATM    7  C9  UNL     1      -4.000  -9.681  17.588  1.00  0.00     0.197 C 
HETATM    8  C10 UNL     1      -2.728  -9.059  17.030  1.00  0.00     0.197 C 
HETATM    9  O5  UNL     1      -1.880  -9.125  18.107  1.00  0.00    -0.353 OA
ENDROOT
BRANCH   1  10
HETATM   10  C3  UNL     1      -2.000 -10.791  22.522  1.00  0.00     0.265 C 
HETATM   11  O2  UNL     1      -1.448 -11.853  22.136  1.00  0.00    -0.265 OA
BRANCH  10  12
HETATM   12  O1  UNL     1      -2.077 -10.579  23.882  1.00  0.00    -0.321 OA
BRANCH  12  13
HETATM   13  C2  UNL     1      -1.047 -10.853  24.796  1.00  0.00     0.174 C 
HETATM   14  C1  UNL     1      -1.517 -11.091  26.194  1.00  0.00     0.034 C 
ENDBRANCH  12  13
ENDBRANCH  10  12
ENDBRANCH   1  10
BRANCH   5  15
HETATM   15  O3  UNL     1      -1.951  -7.828  22.551  1.00  0.00    -0.395 OA
ATOM     16  H3  UNL     1      -1.136  -7.693  23.017  1.00  0.00     0.210 HD
ENDBRANCH   5  15
TORSDOF 4
ENDMDL
MODEL 2
REMARK VINA RESULT: -6.439116285      2.668      3.839
REMARK  4 active torsions:
REMARK  status: ('A' for Active; 'I' for Inactive)
REMARK    1  A    between atoms: C2_2  and  O1_3 
REMARK    2  A    between atoms: O1_3  and  C3_4 
REMARK    3  A    between atoms: C3_4  and  C4_6 
REMARK    4  A    between atoms: C8_10  and  O3_11 
ROOT
HETATM    1  C4  UNL     1      -1.605 -12.329  21.710  1.00  0.00     0.119 C 
HETATM    2  C5  UNL     1      -1.436 -11.214  20.705  1.00  0.00     0.086 C 
HETATM    3  C6  UNL     1      -1.980 -10.016  21.475  1.00  0.00     0.167 C 
HETATM    4  C7  UNL     1      -1.876 -10.381  22.941  1.00  0.00     0.101 C 
HETATM    5  C8  UNL     1      -1.083 -11.671  22.967  1.00  0.00     0.137 C 
HETATM    6  O4  UNL     1      -3.316  -9.878  21.079  1.00  0.00    -0.353 OA
HETATM    7  C9  UNL     1      -3.329  -8.853  20.126  1.00  0.00     0.197 C 
HETATM    8  C10 UNL     1      -2.234  -7.945  20.670  1.00  0.00     0.197 C 
HETATM    9  O5  UNL     1      -1.329  -8.851  21.162  1.00  0.00    -0.353 OA
ENDROOT
BRANCH   1  10
HETATM   10  C3  UNL     1      -0.873 -13.546  21.359  1.00  0.00     0.265 C 
HETATM   11  O2  UNL     1      -0.309 -13.587  20.235  1.00  0.00    -0.265 OA
BRANCH  10  12
HETATM   12  O1  UNL     1      -0.750 -14.656  22.167  1.00  0.00    -0.321 OA
BRANCH  12  13
HETATM   13  C2  UNL     1      -1.155 -15.953  21.815  1.00  0.00     0.174 C 
HETATM   14  C1  UNL     1      -2.584 -16.253  22.129  1.00  0.00     0.034 C 
ENDBRANCH  12  13
ENDBRANCH  10  12
ENDBRANCH   1  10
BRANCH   5  15
HETATM   15  O3  UNL     1      -1.394 -12.457  24.065  1.00  0.00    -0.395 OA
ATOM     16  H3  UNL     1      -1.561 -13.348  23.782  1.00  0.00     0.210 HD
ENDBRANCH   5  15
TORSDOF 4
ENDMDL
MODEL 3
REMARK VINA RESULT: -6.433229439      1.177      1.797
REMARK  4 active torsions:
REMARK  status: ('A' for Active; 'I' for Inactive)
REMARK    1  A    between atoms: C2_2  and  O1_3 
REMARK    2  A    between atoms: O1_3  and  C3_4 
REMARK    3  A    between atoms: C3_4  and  C4_6 
REMARK    4  A    between atoms: C8_10  and  O3_11 
ROOT
HETATM    1  C4  UNL     1      -2.616  -9.623  21.572  1.00  0.00     0.119 C 
HETATM    2  C5  UNL     1      -2.472 -10.256  20.208  1.00  0.00     0.086 C 
HETATM    3  C6  UNL     1      -2.668  -9.057  19.287  1.00  0.00     0.167 C 
HETATM    4  C7  UNL     1      -2.343  -7.834  20.119  1.00  0.00     0.101 C 
HETATM    5  C8  UNL     1      -1.768  -8.382  21.409  1.00  0.00     0.137 C 
HETATM    6  O4  UNL     1      -4.017  -9.075  18.913  1.00  0.00    -0.353 OA
HETATM    7  C9  UNL     1      -4.054  -9.645  17.635  1.00  0.00     0.197 C 
HETATM    8  C10 UNL     1      -2.749  -9.120  17.052  1.00  0.00     0.197 C 
HETATM    9  O5  UNL     1      -1.917  -9.146  18.143  1.00  0.00    -0.353 OA
ENDROOT
BRANCH   1  10
HETATM   10  C3  UNL     1      -2.160 -10.483  22.664  1.00  0.00     0.265 C 
HETATM   11  O2  UNL     1      -2.784 -10.425  23.755  1.00  0.00    -0.265 OA
BRANCH  10  12
HETATM   12  O1  UNL     1      -1.096 -11.358  22.591  1.00  0.00    -0.321 OA
BRANCH  12  13
HETATM   13  C2  UNL     1      -1.208 -12.757  22.585  1.00  0.00     0.174 C 
HETATM   14  C1  UNL     1      -0.762 -13.399  21.312  1.00  0.00     0.034 C 
ENDBRANCH  12  13
ENDBRANCH  10  12
ENDBRANCH   1  10
BRANCH   5  15
HETATM   15  O3  UNL     1      -1.981  -7.531  22.482  1.00  0.00    -0.395 OA
ATOM     16  H3  UNL     1      -2.114  -6.646  22.164  1.00  0.00     0.210 HD
ENDBRANCH   5  15
TORSDOF 4
ENDMDL
MODEL 4
REMARK VINA RESULT: -6.419214766      1.555      2.782
REMARK  4 active torsions:
REMARK  status: ('A' for Active; 'I' for Inactive)
REMARK    1  A    between atoms: C2_2  and  O1_3 
REMARK    2  A    between atoms: O1_3  and  C3_4 
REMARK    3  A    between atoms: C3_4  and  C4_6 
REMARK    4  A    between atoms: C8_10  and  O3_11 
ROOT
HETATM    1  C4  UNL     1      -1.448 -10.916  22.577  1.00  0.00     0.119 C 
HETATM    2  C5  UNL     1      -2.337 -10.123  21.648  1.00  0.00     0.086 C 
HETATM    3  C6  UNL     1      -1.919 -10.660  20.284  1.00  0.00     0.167 C 
HETATM    4  C7  UNL     1      -1.307 -12.021  20.541  1.00  0.00     0.101 C 
HETATM    5  C8  UNL     1      -1.592 -12.307  22.002  1.00  0.00     0.137 C 
HETATM    6  O4  UNL     1      -0.967  -9.760  19.790  1.00  0.00    -0.353 OA
HETATM    7  C9  UNL     1      -1.650  -8.935  18.889  1.00  0.00     0.197 C 
HETATM    8  C10 UNL     1      -2.651  -9.921  18.304  1.00  0.00     0.197 C 
HETATM    9  O5  UNL     1      -2.960 -10.696  19.393  1.00  0.00    -0.353 OA
ENDROOT
BRANCH   1  10
HETATM   10  C3  UNL     1      -1.854 -10.837  23.980  1.00  0.00     0.265 C 
HETATM   11  O2  UNL     1      -3.049 -10.536  24.228  1.00  0.00    -0.265 OA
BRANCH  10  12
HETATM   12  O1  UNL     1      -1.025 -11.070  25.058  1.00  0.00    -0.321 OA
BRANCH  12  13
HETATM   13  C2  UNL     1      -1.445 -11.114  26.396  1.00  0.00     0.174 C 
HETATM   14  C1  UNL     1      -0.348 -10.906  27.388  1.00  0.00     0.034 C 
ENDBRANCH  12  13
ENDBRANCH  10  12
ENDBRANCH   1  10
BRANCH   5  15
HETATM   15  O3  UNL     1      -0.642 -13.144  22.567  1.00  0.00    -0.395 OA
ATOM     16  H3  UNL     1      -0.274 -13.706  21.897  1.00  0.00     0.210 HD
ENDBRANCH   5  15
TORSDOF 4
ENDMDL
MODEL 5
REMARK VINA RESULT: -6.393918442      1.512      2.502
REMARK  4 active torsions:
REMARK  status: ('A' for Active; 'I' for Inactive)
REMARK    1  A    between atoms: C2_2  and  O1_3 
REMARK    2  A    between atoms: O1_3  and  C3_4 
REMARK    3  A    between atoms: C3_4  and  C4_6 
REMARK    4  A    between atoms: C8_10  and  O3_11 
ROOT
HETATM    1  C4  UNL     1      -1.464 -10.756  22.117  1.00  0.00     0.119 C 
HETATM    2  C5  UNL     1      -2.595  -9.780  21.903  1.00  0.00     0.086 C 
HETATM    3  C6  UNL     1      -2.606  -9.644  20.385  1.00  0.00     0.167 C 
HETATM    4  C7  UNL     1      -1.938 -10.893  19.850  1.00  0.00     0.101 C 
HETATM    5  C8  UNL     1      -1.767 -11.792  21.057  1.00  0.00     0.137 C 
HETATM    6  O4  UNL     1      -1.853  -8.500  20.095  1.00  0.00    -0.353 OA
HETATM    7  C9  UNL     1      -2.780  -7.477  19.863  1.00  0.00     0.197 C 
HETATM    8  C10 UNL     1      -3.906  -8.260  19.201  1.00  0.00     0.197 C 
HETATM    9  O5  UNL     1      -3.867  -9.450  19.884  1.00  0.00    -0.353 OA
ENDROOT
BRANCH   1  10
HETATM   10  C3  UNL     1      -1.427 -11.320  23.466  1.00  0.00     0.265 C 
HETATM   11  O2  UNL     1      -1.109 -12.530  23.588  1.00  0.00    -0.265 OA
BRANCH  10  12
HETATM   12  O1  UNL     1      -1.715 -10.624  24.622  1.00  0.00    -0.321 OA
BRANCH  12  13
HETATM   13  C2  UNL     1      -1.810 -11.198  25.900  1.00  0.00     0.174 C 
HETATM   14  C1  UNL     1      -0.691 -10.831  26.819  1.00  0.00     0.034 C 
ENDBRANCH  12  13
ENDBRANCH  10  12
ENDBRANCH   1  10
BRANCH   5  15
HETATM   15  O3  UNL     1      -0.686 -12.649  20.924  1.00  0.00    -0.395 OA
ATOM     16  H3  UNL     1      -0.961 -13.440  20.475  1.00  0.00     0.210 HD
ENDBRANCH   5  15
TORSDOF 4
ENDMDL
