MODEL 1
REMARK VINA RESULT: -7.491463566      0.000      0.000
REMARK  2 active torsions:
REMARK  status: ('A' for Active; 'I' for Inactive)
REMARK    1  A    between atoms: O1_1  and  C1_3 
REMARK    2  A    between atoms: C1_3  and  O2_4 
ROOT
HETATM    1  C1  UNL     1     -52.836 -11.232 -11.130  1.00  0.00     0.184 C 
HETATM    2  C2  UNL     1     -53.802 -11.637 -12.197  1.00  0.00     0.097 C 
HETATM    3  C3  UNL     1     -55.125 -10.960 -12.075  1.00  0.00    -0.025 C 
HETATM    4  C4  UNL     1     -56.179 -11.523 -11.490  1.00  0.00    -0.020 C 
HETATM    5  C5  UNL     1     -56.150 -12.888 -10.893  1.00  0.00     0.100 C 
HETATM    6  S1  UNL     1     -56.632 -14.155 -12.115  1.00  0.00    -0.165 SA
HETATM    7  C6  UNL     1     -55.577 -15.616 -11.773  1.00  0.00     0.075 C 
HETATM    8  C7  UNL     1     -55.694 -16.648 -12.846  1.00  0.00     0.029 C 
HETATM    9  C8  UNL     1     -54.311 -17.017 -13.359  1.00  0.00     0.114 C 
HETATM   10  N1  UNL     1     -53.659 -18.011 -12.598  1.00  0.00    -0.421 N 
ATOM     11  H1  UNL     1     -53.793 -19.005 -12.782  1.00  0.00     0.153 HD
HETATM   12  C9  UNL     1     -52.798 -17.545 -11.554  1.00  0.00     0.113 C 
HETATM   13  C10 UNL     1     -51.665 -16.699 -12.003  1.00  0.00     0.021 C 
HETATM   14  C11 UNL     1     -51.338 -15.684 -10.905  1.00  0.00     0.028 C 
HETATM   15  C12 UNL     1     -51.026 -14.329 -11.477  1.00  0.00     0.168 C 
HETATM   16  O3  UNL     1     -52.152 -13.517 -11.500  1.00  0.00    -0.386 OA
HETATM   17  C13 UNL     1     -52.051 -12.441 -10.635  1.00  0.00     0.235 C 
ENDROOT
BRANCH   1  18
HETATM   18  O1  UNL     1     -51.940 -10.273 -11.645  1.00  0.00    -0.363 OA
ATOM     19  H1  UNL     1     -51.106 -10.715 -11.756  1.00  0.00     0.213 HD
ENDBRANCH   1  18
BRANCH   1  20
HETATM   20  O2  UNL     1     -53.499 -10.622 -10.059  1.00  0.00    -0.363 OA
ATOM     21  H2  UNL     1     -54.051 -11.289  -9.669  1.00  0.00     0.213 HD
ENDBRANCH   1  20
TORSDOF 2
ENDMDL
MODEL 2
REMARK VINA RESULT: -7.488219010      0.967      1.009
REMARK  2 active torsions:
REMARK  status: ('A' for Active; 'I' for Inactive)
REMARK    1  A    between atoms: O1_1  and  C1_3 
REMARK    2  A    between atoms: C1_3  and  O2_4 
ROOT
HETATM    1  C1  UNL     1     -53.979 -11.335 -11.394  1.00  0.00     0.184 C 
HETATM    2  C2  UNL     1     -54.718 -12.054 -12.477  1.00  0.00     0.097 C 
HETATM    3  C3  UNL     1     -56.178 -11.754 -12.487  1.00  0.00    -0.025 C 
HETATM    4  C4  UNL     1     -57.086 -12.542 -11.920  1.00  0.00    -0.020 C 
HETATM    5  C5  UNL     1     -56.743 -13.808 -11.212  1.00  0.00     0.100 C 
HETATM    6  S1  UNL     1     -56.775 -15.233 -12.351  1.00  0.00    -0.165 SA
HETATM    7  C6  UNL     1     -55.399 -16.329 -11.829  1.00  0.00     0.075 C 
HETATM    8  C7  UNL     1     -55.154 -17.421 -12.819  1.00  0.00     0.029 C 
HETATM    9  C8  UNL     1     -53.687 -17.434 -13.219  1.00  0.00     0.114 C 
HETATM   10  N1  UNL     1     -52.855 -18.163 -12.343  1.00  0.00    -0.421 N 
ATOM     11  H1  UNL     1     -52.706 -19.166 -12.452  1.00  0.00     0.153 HD
HETATM   12  C9  UNL     1     -52.233 -17.416 -11.293  1.00  0.00     0.113 C 
HETATM   13  C10 UNL     1     -51.334 -16.325 -11.745  1.00  0.00     0.021 C 
HETATM   14  C11 UNL     1     -51.375 -15.192 -10.717  1.00  0.00     0.028 C 
HETATM   15  C12 UNL     1     -51.390 -13.842 -11.379  1.00  0.00     0.168 C 
HETATM   16  O3  UNL     1     -52.687 -13.368 -11.534  1.00  0.00    -0.386 OA
HETATM   17  C13 UNL     1     -52.942 -12.252 -10.756  1.00  0.00     0.235 C 
ENDROOT
BRANCH   1  18
HETATM   18  O1  UNL     1     -53.333 -10.205 -11.933  1.00  0.00    -0.363 OA
ATOM     19  H1  UNL     1     -53.968  -9.772 -12.492  1.00  0.00     0.213 HD
ENDBRANCH   1  18
BRANCH   1  20
HETATM   20  O2  UNL     1     -54.861 -10.861 -10.416  1.00  0.00    -0.363 OA
ATOM     21  H2  UNL     1     -55.727 -11.163 -10.664  1.00  0.00     0.213 HD
ENDBRANCH   1  20
TORSDOF 2
ENDMDL
MODEL 3
REMARK VINA RESULT: -7.221668156      3.513      6.345
REMARK  2 active torsions:
REMARK  status: ('A' for Active; 'I' for Inactive)
REMARK    1  A    between atoms: O1_1  and  C1_3 
REMARK    2  A    between atoms: C1_3  and  O2_4 
ROOT
HETATM    1  C1  UNL     1     -52.350 -18.658 -13.149  1.00  0.00     0.184 C 
HETATM    2  C2  UNL     1     -51.815 -17.314 -13.525  1.00  0.00     0.097 C 
HETATM    3  C3  UNL     1     -50.382 -17.131 -13.159  1.00  0.00    -0.025 C 
HETATM    4  C4  UNL     1     -49.987 -16.514 -12.049  1.00  0.00    -0.020 C 
HETATM    5  C5  UNL     1     -50.935 -15.941 -11.052  1.00  0.00     0.100 C 
HETATM    6  S1  UNL     1     -51.318 -14.197 -11.430  1.00  0.00    -0.165 SA
HETATM    7  C6  UNL     1     -53.090 -13.965 -11.010  1.00  0.00     0.075 C 
HETATM    8  C7  UNL     1     -53.605 -12.649 -11.491  1.00  0.00     0.029 C 
HETATM    9  C8  UNL     1     -54.859 -12.859 -12.324  1.00  0.00     0.114 C 
HETATM   10  N1  UNL     1     -56.048 -12.947 -11.568  1.00  0.00    -0.421 N 
ATOM     11  H1  UNL     1     -56.581 -12.120 -11.304  1.00  0.00     0.153 HD
HETATM   12  C9  UNL     1     -56.461 -14.265 -11.191  1.00  0.00     0.113 C 
HETATM   13  C10 UNL     1     -56.739 -15.184 -12.323  1.00  0.00     0.021 C 
HETATM   14  C11 UNL     1     -56.395 -16.613 -11.897  1.00  0.00     0.028 C 
HETATM   15  C12 UNL     1     -55.713 -17.372 -13.001  1.00  0.00     0.168 C 
HETATM   16  O3  UNL     1     -54.331 -17.306 -12.884  1.00  0.00    -0.386 OA
HETATM   17  C13 UNL     1     -53.762 -18.533 -12.589  1.00  0.00     0.235 C 
ENDROOT
BRANCH   1  18
HETATM   18  O1  UNL     1     -52.371 -19.493 -14.285  1.00  0.00    -0.363 OA
ATOM     19  H1  UNL     1     -52.311 -18.921 -15.041  1.00  0.00     0.213 HD
ENDBRANCH   1  18
BRANCH   1  20
HETATM   20  O2  UNL     1     -51.519 -19.283 -12.212  1.00  0.00    -0.363 OA
ATOM     21  H2  UNL     1     -50.856 -19.749 -12.708  1.00  0.00     0.213 HD
ENDBRANCH   1  20
TORSDOF 2
ENDMDL
MODEL 4
REMARK VINA RESULT: -7.112727470      3.136      5.214
REMARK  2 active torsions:
REMARK  status: ('A' for Active; 'I' for Inactive)
REMARK    1  A    between atoms: O1_1  and  C1_3 
REMARK    2  A    between atoms: C1_3  and  O2_4 
ROOT
HETATM    1  C1  UNL     1     -52.080 -10.514  -7.265  1.00  0.00     0.184 C 
HETATM    2  C2  UNL     1     -52.145 -12.007  -7.216  1.00  0.00     0.097 C 
HETATM    3  C3  UNL     1     -50.850 -12.636  -6.829  1.00  0.00    -0.025 C 
HETATM    4  C4  UNL     1     -49.984 -13.120  -7.714  1.00  0.00    -0.020 C 
HETATM    5  C5  UNL     1     -50.213 -13.084  -9.186  1.00  0.00     0.100 C 
HETATM    6  S1  UNL     1     -51.060 -14.595  -9.761  1.00  0.00    -0.165 SA
HETATM    7  C6  UNL     1     -52.213 -14.056 -11.083  1.00  0.00     0.075 C 
HETATM    8  C7  UNL     1     -53.146 -15.150 -11.485  1.00  0.00     0.029 C 
HETATM    9  C8  UNL     1     -54.582 -14.656 -11.410  1.00  0.00     0.114 C 
HETATM   10  N1  UNL     1     -55.021 -13.979 -12.568  1.00  0.00    -0.421 N 
ATOM     11  H1  UNL     1     -55.425 -14.475 -13.362  1.00  0.00     0.153 HD
HETATM   12  C9  UNL     1     -54.867 -12.556 -12.565  1.00  0.00     0.113 C 
HETATM   13  C10 UNL     1     -55.602 -11.846 -11.488  1.00  0.00     0.021 C 
HETATM   14  C11 UNL     1     -54.813 -10.597 -11.091  1.00  0.00     0.028 C 
HETATM   15  C12 UNL     1     -54.820 -10.387  -9.602  1.00  0.00     0.168 C 
HETATM   16  O3  UNL     1     -53.695 -10.942  -9.006  1.00  0.00    -0.386 OA
HETATM   17  C13 UNL     1     -52.850  -9.985  -8.469  1.00  0.00     0.235 C 
ENDROOT
BRANCH   1  18
HETATM   18  O1  UNL     1     -52.635  -9.978  -6.085  1.00  0.00    -0.363 OA
ATOM     19  H1  UNL     1     -53.578 -10.038  -6.179  1.00  0.00     0.213 HD
ENDBRANCH   1  18
BRANCH   1  20
HETATM   20  O2  UNL     1     -50.753 -10.072  -7.316  1.00  0.00    -0.363 OA
ATOM     21  H2  UNL     1     -50.479 -10.146  -8.222  1.00  0.00     0.213 HD
ENDBRANCH   1  20
TORSDOF 2
ENDMDL
MODEL 5
REMARK VINA RESULT: -6.941792293      3.525      5.557
REMARK  2 active torsions:
REMARK  status: ('A' for Active; 'I' for Inactive)
REMARK    1  A    between atoms: O1_1  and  C1_3 
REMARK    2  A    between atoms: C1_3  and  O2_4 
ROOT
HETATM    1  C1  UNL     1     -52.771 -15.072 -11.666  1.00  0.00     0.184 C 
HETATM    2  C2  UNL     1     -53.954 -14.446 -10.999  1.00  0.00     0.097 C 
HETATM    3  C3  UNL     1     -54.998 -13.996 -11.962  1.00  0.00    -0.025 C 
HETATM    4  C4  UNL     1     -55.102 -12.741 -12.390  1.00  0.00    -0.020 C 
HETATM    5  C5  UNL     1     -54.184 -11.651 -11.954  1.00  0.00     0.100 C 
HETATM    6  S1  UNL     1     -54.828 -10.797 -10.475  1.00  0.00    -0.165 SA
HETATM    7  C6  UNL     1     -53.364 -10.396  -9.444  1.00  0.00     0.075 C 
HETATM    8  C7  UNL     1     -53.757  -9.906  -8.090  1.00  0.00     0.029 C 
HETATM    9  C8  UNL     1     -53.042 -10.717  -7.021  1.00  0.00     0.114 C 
HETATM   10  N1  UNL     1     -51.745 -10.254  -6.714  1.00  0.00    -0.421 N 
ATOM     11  H1  UNL     1     -51.583  -9.529  -6.015  1.00  0.00     0.153 HD
HETATM   12  C9  UNL     1     -50.670 -10.857  -7.440  1.00  0.00     0.113 C 
HETATM   13  C10 UNL     1     -50.531 -12.323  -7.255  1.00  0.00     0.021 C 
HETATM   14  C11 UNL     1     -49.977 -12.934  -8.545  1.00  0.00     0.028 C 
HETATM   15  C12 UNL     1     -50.650 -14.238  -8.874  1.00  0.00     0.168 C 
HETATM   16  O3  UNL     1     -51.710 -14.054  -9.752  1.00  0.00    -0.386 OA
HETATM   17  C13 UNL     1     -51.479 -14.623 -10.993  1.00  0.00     0.235 C 
ENDROOT
BRANCH   1  18
HETATM   18  O1  UNL     1     -52.873 -16.475 -11.588  1.00  0.00    -0.363 OA
ATOM     19  H1  UNL     1     -51.988 -16.814 -11.649  1.00  0.00     0.213 HD
ENDBRANCH   1  18
BRANCH   1  20
HETATM   20  O2  UNL     1     -52.736 -14.751 -13.027  1.00  0.00    -0.363 OA
ATOM     21  H2  UNL     1     -52.288 -13.916 -13.096  1.00  0.00     0.213 HD
ENDBRANCH   1  20
TORSDOF 2
ENDMDL
