MODEL 1
REMARK VINA RESULT: -6.596513624      0.000      0.000
REMARK  6 active torsions:
REMARK  status: ('A' for Active; 'I' for Inactive)
REMARK    1  A    between atoms: C2_2  and  S1_5 
REMARK    2  A    between atoms: S1_5  and  C5_6 
REMARK    3  A    between atoms: C5_6  and  N2_10 
REMARK    4  A    between atoms: C6_12  and  O1_13 
REMARK    5  A    between atoms: C6_12  and  N4_17 
REMARK    6  A    between atoms: O1_13  and  N3_14 
ROOT
HETATM    1  N2  UNL     1     -53.180 -12.456 -10.479  1.00  0.00    -0.301 N 
ATOM      2  H2  UNL     1     -53.160 -13.051 -11.307  1.00  0.00     0.171 HD
HETATM    3  C6  UNL     1     -52.076 -12.176  -9.997  1.00  0.00     0.254 C 
ENDROOT
BRANCH   3   4
HETATM    4  O1  UNL     1     -50.970 -12.753 -10.710  1.00  0.00    -0.207 OA
BRANCH   4   5
HETATM    5  N3  UNL     1     -51.149 -13.903 -11.432  1.00  0.00    -0.302 N 
ATOM      6  H32 UNL     1     -51.996 -14.011 -11.990  1.00  0.00     0.184 HD
ATOM      7  H31 UNL     1     -50.439 -14.635 -11.406  1.00  0.00     0.184 HD
ENDBRANCH   4   5
ENDBRANCH   3   4
BRANCH   3   8
HETATM    8  N4  UNL     1     -51.693 -11.406  -8.893  1.00  0.00    -0.272 N 
HETATM    9  C7  UNL     1     -51.699 -10.050  -8.559  1.00  0.00     0.230 C 
HETATM   10  O2  UNL     1     -51.490  -8.995  -9.149  1.00  0.00    -0.273 OA
HETATM   11  C8  UNL     1     -52.078 -10.504  -7.161  1.00  0.00     0.134 C 
HETATM   12  C9  UNL     1     -51.123 -11.619  -7.548  1.00  0.00     0.044 C 
HETATM   13  C10 UNL     1     -51.484 -12.973  -7.031  1.00  0.00     0.039 C 
HETATM   14  C11 UNL     1     -49.681 -11.262  -7.424  1.00  0.00     0.039 C 
ENDBRANCH   3   8
BRANCH   1  15
HETATM   15  C5  UNL     1     -54.441 -12.074 -10.048  1.00  0.00     0.141 C 
HETATM   16  N1  UNL     1     -55.089 -12.744  -9.124  1.00  0.00    -0.380 N 
ATOM     17  H12 UNL     1     -56.016 -12.463  -8.807  1.00  0.00     0.158 HD
ATOM     18  H11 UNL     1     -54.671 -13.577  -8.710  1.00  0.00     0.158 HD
BRANCH  15  19
HETATM   19  S1  UNL     1     -55.176 -10.606 -10.776  1.00  0.00    -0.085 SA
BRANCH  19  20
HETATM   20  C2  UNL     1     -55.839 -11.000 -12.396  1.00  0.00     0.005 C 
HETATM   21  C1  UNL     1     -56.959 -10.074 -12.763  1.00  0.00     0.026 C 
HETATM   22  C3  UNL     1     -56.393 -12.414 -12.331  1.00  0.00     0.026 C 
HETATM   23  C4  UNL     1     -54.700 -10.953 -13.386  1.00  0.00     0.026 C 
ENDBRANCH  19  20
ENDBRANCH  15  19
ENDBRANCH   1  15
TORSDOF 6
ENDMDL
MODEL 2
REMARK VINA RESULT: -6.496257552      1.075      2.139
REMARK  6 active torsions:
REMARK  status: ('A' for Active; 'I' for Inactive)
REMARK    1  A    between atoms: C2_2  and  S1_5 
REMARK    2  A    between atoms: S1_5  and  C5_6 
REMARK    3  A    between atoms: C5_6  and  N2_10 
REMARK    4  A    between atoms: C6_12  and  O1_13 
REMARK    5  A    between atoms: C6_12  and  N4_17 
REMARK    6  A    between atoms: O1_13  and  N3_14 
ROOT
HETATM    1  N2  UNL     1     -53.138 -12.325 -10.401  1.00  0.00    -0.301 N 
ATOM      2  H2  UNL     1     -53.075 -12.758 -11.322  1.00  0.00     0.171 HD
HETATM    3  C6  UNL     1     -52.066 -12.199  -9.797  1.00  0.00     0.254 C 
ENDROOT
BRANCH   3   4
HETATM    4  O1  UNL     1     -50.930 -12.695 -10.523  1.00  0.00    -0.207 OA
BRANCH   4   5
HETATM    5  N3  UNL     1     -51.076 -13.758 -11.375  1.00  0.00    -0.302 N 
ATOM      6  H32 UNL     1     -50.593 -14.631 -11.165  1.00  0.00     0.184 HD
ATOM      7  H31 UNL     1     -51.661 -13.667 -12.206  1.00  0.00     0.184 HD
ENDBRANCH   4   5
ENDBRANCH   3   4
BRANCH   3   8
HETATM    8  N4  UNL     1     -51.743 -11.665  -8.544  1.00  0.00    -0.272 N 
HETATM    9  C7  UNL     1     -51.328 -12.170  -7.310  1.00  0.00     0.230 C 
HETATM   10  O2  UNL     1     -51.584 -13.159  -6.630  1.00  0.00    -0.273 OA
HETATM   11  C8  UNL     1     -50.440 -10.943  -7.224  1.00  0.00     0.134 C 
HETATM   12  C9  UNL     1     -51.656 -10.338  -7.903  1.00  0.00     0.044 C 
HETATM   13  C10 UNL     1     -51.358  -9.282  -8.917  1.00  0.00     0.039 C 
HETATM   14  C11 UNL     1     -52.781 -10.023  -6.978  1.00  0.00     0.039 C 
ENDBRANCH   3   8
BRANCH   1  15
HETATM   15  C5  UNL     1     -54.413 -11.960  -9.998  1.00  0.00     0.141 C 
HETATM   16  N1  UNL     1     -55.049 -12.604  -9.047  1.00  0.00    -0.380 N 
ATOM     17  H12 UNL     1     -55.988 -12.336  -8.751  1.00  0.00     0.158 HD
ATOM     18  H11 UNL     1     -54.612 -13.405  -8.592  1.00  0.00     0.158 HD
BRANCH  15  19
HETATM   19  S1  UNL     1     -55.184 -10.550 -10.800  1.00  0.00    -0.085 SA
BRANCH  19  20
HETATM   20  C2  UNL     1     -55.852 -11.047 -12.389  1.00  0.00     0.005 C 
HETATM   21  C1  UNL     1     -56.328 -12.467 -12.357  1.00  0.00     0.026 C 
HETATM   22  C3  UNL     1     -54.728 -10.946 -13.408  1.00  0.00     0.026 C 
HETATM   23  C4  UNL     1     -56.948 -10.076 -12.754  1.00  0.00     0.026 C 
ENDBRANCH  19  20
ENDBRANCH  15  19
ENDBRANCH   1  15
TORSDOF 6
ENDMDL
MODEL 3
REMARK VINA RESULT: -6.316511080      1.191      1.564
REMARK  6 active torsions:
REMARK  status: ('A' for Active; 'I' for Inactive)
REMARK    1  A    between atoms: C2_2  and  S1_5 
REMARK    2  A    between atoms: S1_5  and  C5_6 
REMARK    3  A    between atoms: C5_6  and  N2_10 
REMARK    4  A    between atoms: C6_12  and  O1_13 
REMARK    5  A    between atoms: C6_12  and  N4_17 
REMARK    6  A    between atoms: O1_13  and  N3_14 
ROOT
HETATM    1  N2  UNL     1     -53.225 -12.105 -10.589  1.00  0.00    -0.301 N 
ATOM      2  H2  UNL     1     -53.236 -12.632 -11.462  1.00  0.00     0.171 HD
HETATM    3  C6  UNL     1     -52.105 -11.902 -10.104  1.00  0.00     0.254 C 
ENDROOT
BRANCH   3   4
HETATM    4  O1  UNL     1     -51.029 -12.457 -10.877  1.00  0.00    -0.207 OA
BRANCH   4   5
HETATM    5  N3  UNL     1     -51.119 -13.739 -11.350  1.00  0.00    -0.302 N 
ATOM      6  H32 UNL     1     -51.504 -14.465 -10.745  1.00  0.00     0.184 HD
ATOM      7  H31 UNL     1     -50.803 -13.956 -12.295  1.00  0.00     0.184 HD
ENDBRANCH   4   5
ENDBRANCH   3   4
BRANCH   3   8
HETATM    8  N4  UNL     1     -51.682 -11.236  -8.948  1.00  0.00    -0.272 N 
HETATM    9  C7  UNL     1     -51.564  -9.907  -8.536  1.00  0.00     0.230 C 
HETATM   10  O2  UNL     1     -51.233  -8.847  -9.059  1.00  0.00    -0.273 OA
HETATM   11  C8  UNL     1     -52.028 -10.397  -7.177  1.00  0.00     0.134 C 
HETATM   12  C9  UNL     1     -51.176 -11.579  -7.603  1.00  0.00     0.044 C 
HETATM   13  C10 UNL     1     -51.686 -12.916  -7.175  1.00  0.00     0.039 C 
HETATM   14  C11 UNL     1     -49.711 -11.376  -7.424  1.00  0.00     0.039 C 
ENDBRANCH   3   8
BRANCH   1  15
HETATM   15  C5  UNL     1     -54.465 -11.716 -10.110  1.00  0.00     0.141 C 
HETATM   16  N1  UNL     1     -54.730 -10.466  -9.810  1.00  0.00    -0.380 N 
ATOM     17  H12 UNL     1     -55.643 -10.179  -9.457  1.00  0.00     0.158 HD
ATOM     18  H11 UNL     1     -54.009  -9.752  -9.915  1.00  0.00     0.158 HD
BRANCH  15  19
HETATM   19  S1  UNL     1     -55.735 -12.973  -9.926  1.00  0.00    -0.085 SA
BRANCH  19  20
HETATM   20  C2  UNL     1     -56.448 -13.354 -11.528  1.00  0.00     0.005 C 
HETATM   21  C1  UNL     1     -56.576 -12.122 -12.371  1.00  0.00     0.026 C 
HETATM   22  C3  UNL     1     -57.842 -13.910 -11.285  1.00  0.00     0.026 C 
HETATM   23  C4  UNL     1     -55.591 -14.414 -12.175  1.00  0.00     0.026 C 
ENDBRANCH  19  20
ENDBRANCH  15  19
ENDBRANCH   1  15
TORSDOF 6
ENDMDL
MODEL 4
REMARK VINA RESULT: -6.288815584      3.239      4.678
REMARK  6 active torsions:
REMARK  status: ('A' for Active; 'I' for Inactive)
REMARK    1  A    between atoms: C2_2  and  S1_5 
REMARK    2  A    between atoms: S1_5  and  C5_6 
REMARK    3  A    between atoms: C5_6  and  N2_10 
REMARK    4  A    between atoms: C6_12  and  O1_13 
REMARK    5  A    between atoms: C6_12  and  N4_17 
REMARK    6  A    between atoms: O1_13  and  N3_14 
ROOT
HETATM    1  N2  UNL     1     -51.558 -14.265 -10.186  1.00  0.00    -0.301 N 
ATOM      2  H2  UNL     1     -50.976 -14.845  -9.582  1.00  0.00     0.171 HD
HETATM    3  C6  UNL     1     -51.972 -13.216  -9.678  1.00  0.00     0.254 C 
ENDROOT
BRANCH   3   4
HETATM    4  O1  UNL     1     -51.545 -13.021  -8.321  1.00  0.00    -0.207 OA
BRANCH   4   5
HETATM    5  N3  UNL     1     -50.475 -13.725  -7.834  1.00  0.00    -0.302 N 
ATOM      6  H32 UNL     1     -50.380 -14.711  -8.075  1.00  0.00     0.184 HD
ATOM      7  H31 UNL     1     -49.789 -13.260  -7.240  1.00  0.00     0.184 HD
ENDBRANCH   4   5
ENDBRANCH   3   4
BRANCH   3   8
HETATM    8  N4  UNL     1     -52.775 -12.180 -10.169  1.00  0.00    -0.272 N 
HETATM    9  C7  UNL     1     -52.633 -11.150 -11.101  1.00  0.00     0.230 C 
HETATM   10  O2  UNL     1     -51.738 -10.382 -11.439  1.00  0.00    -0.273 OA
HETATM   11  C8  UNL     1     -54.076 -11.433 -11.478  1.00  0.00     0.134 C 
HETATM   12  C9  UNL     1     -54.146 -11.667  -9.979  1.00  0.00     0.044 C 
HETATM   13  C10 UNL     1     -55.064 -12.764  -9.550  1.00  0.00     0.039 C 
HETATM   14  C11 UNL     1     -54.233 -10.419  -9.168  1.00  0.00     0.039 C 
ENDBRANCH   3   8
BRANCH   1  15
HETATM   15  C5  UNL     1     -51.776 -14.761 -11.461  1.00  0.00     0.141 C 
HETATM   16  N1  UNL     1     -50.787 -14.991 -12.293  1.00  0.00    -0.380 N 
ATOM     17  H12 UNL     1     -50.947 -15.355 -13.232  1.00  0.00     0.158 HD
ATOM     18  H11 UNL     1     -49.827 -14.792 -12.011  1.00  0.00     0.158 HD
BRANCH  15  19
HETATM   19  S1  UNL     1     -53.466 -15.112 -11.957  1.00  0.00    -0.085 SA
BRANCH  19  20
HETATM   20  C2  UNL     1     -53.633 -16.854 -12.354  1.00  0.00     0.005 C 
HETATM   21  C1  UNL     1     -52.734 -17.693 -11.498  1.00  0.00     0.026 C 
HETATM   22  C3  UNL     1     -53.212 -17.033 -13.804  1.00  0.00     0.026 C 
HETATM   23  C4  UNL     1     -55.088 -17.225 -12.205  1.00  0.00     0.026 C 
ENDBRANCH  19  20
ENDBRANCH  15  19
ENDBRANCH   1  15
TORSDOF 6
ENDMDL
MODEL 5
REMARK VINA RESULT: -6.287570555      1.587      2.465
REMARK  6 active torsions:
REMARK  status: ('A' for Active; 'I' for Inactive)
REMARK    1  A    between atoms: C2_2  and  S1_5 
REMARK    2  A    between atoms: S1_5  and  C5_6 
REMARK    3  A    between atoms: C5_6  and  N2_10 
REMARK    4  A    between atoms: C6_12  and  O1_13 
REMARK    5  A    between atoms: C6_12  and  N4_17 
REMARK    6  A    between atoms: O1_13  and  N3_14 
ROOT
HETATM    1  N2  UNL     1     -53.166 -12.097 -10.530  1.00  0.00    -0.301 N 
ATOM      2  H2  UNL     1     -53.118 -12.490 -11.471  1.00  0.00     0.171 HD
HETATM    3  C6  UNL     1     -52.092 -12.050  -9.918  1.00  0.00     0.254 C 
ENDROOT
BRANCH   3   4
HETATM    4  O1  UNL     1     -50.977 -12.566 -10.662  1.00  0.00    -0.207 OA
BRANCH   4   5
HETATM    5  N3  UNL     1     -51.119 -13.713 -11.397  1.00  0.00    -0.302 N 
ATOM      6  H32 UNL     1     -51.314 -14.590 -10.914  1.00  0.00     0.184 HD
ATOM      7  H31 UNL     1     -51.029 -13.681 -12.412  1.00  0.00     0.184 HD
ENDBRANCH   4   5
ENDBRANCH   3   4
BRANCH   3   8
HETATM    8  N4  UNL     1     -51.752 -11.591  -8.640  1.00  0.00    -0.272 N 
HETATM    9  C7  UNL     1     -51.351 -12.170  -7.434  1.00  0.00     0.230 C 
HETATM   10  O2  UNL     1     -51.635 -13.185  -6.805  1.00  0.00    -0.273 OA
HETATM   11  C8  UNL     1     -50.427 -10.976  -7.289  1.00  0.00     0.134 C 
HETATM   12  C9  UNL     1     -51.625 -10.302  -7.932  1.00  0.00     0.044 C 
HETATM   13  C10 UNL     1     -51.297  -9.204  -8.891  1.00  0.00     0.039 C 
HETATM   14  C11 UNL     1     -52.740 -10.002  -6.989  1.00  0.00     0.039 C 
ENDBRANCH   3   8
BRANCH   1  15
HETATM   15  C5  UNL     1     -54.424 -11.691 -10.116  1.00  0.00     0.141 C 
HETATM   16  N1  UNL     1     -54.717 -10.424  -9.937  1.00  0.00    -0.380 N 
ATOM     17  H12 UNL     1     -55.643 -10.124  -9.631  1.00  0.00     0.158 HD
ATOM     18  H11 UNL     1     -54.007  -9.708 -10.090  1.00  0.00     0.158 HD
BRANCH  15  19
HETATM   19  S1  UNL     1     -55.676 -12.950  -9.846  1.00  0.00    -0.085 SA
BRANCH  19  20
HETATM   20  C2  UNL     1     -56.409 -13.423 -11.415  1.00  0.00     0.005 C 
HETATM   21  C1  UNL     1     -56.571 -12.237 -12.317  1.00  0.00     0.026 C 
HETATM   22  C3  UNL     1     -57.788 -13.989 -11.120  1.00  0.00     0.026 C 
HETATM   23  C4  UNL     1     -55.544 -14.500 -12.023  1.00  0.00     0.026 C 
ENDBRANCH  19  20
ENDBRANCH  15  19
ENDBRANCH   1  15
TORSDOF 6
ENDMDL
