MODEL 1
REMARK VINA RESULT: -8.914134055      0.000      0.000
REMARK  2 active torsions:
REMARK  status: ('A' for Active; 'I' for Inactive)
REMARK    1  A    between atoms: O1_1  and  C1_3 
REMARK    2  A    between atoms: C9_11  and  N1_12 
ROOT
HETATM    1  C1  UNL     1     -55.211 -11.630 -11.399  1.00  0.00     0.319 C 
HETATM    2  C2  UNL     1     -55.590 -12.241 -10.075  1.00  0.00     0.063 C 
HETATM    3  C3  UNL     1     -54.237 -12.402  -9.368  1.00  0.00     0.045 C 
HETATM    4  C4  UNL     1     -53.328 -12.603 -10.541  1.00  0.00     0.149 C 
HETATM    5  C5  UNL     1     -53.661 -13.959 -11.147  1.00  0.00     0.041 C 
HETATM    6  C6  UNL     1     -52.521 -14.321 -12.083  1.00  0.00     0.003 C 
HETATM    7  C7  UNL     1     -51.297 -14.665 -11.255  1.00  0.00     0.002 C 
HETATM    8  C8  UNL     1     -51.322 -13.924  -9.912  1.00  0.00     0.028 C 
HETATM    9  C9  UNL     1     -51.878 -12.532 -10.227  1.00  0.00     0.127 C 
HETATM   10  N4  UNL     1     -53.774 -11.525 -11.432  1.00  0.00    -0.038 N 
ATOM     11  H41 UNL     1     -53.413 -10.603 -11.192  1.00  0.00     0.281 HD
ATOM     12  H42 UNL     1     -53.371 -11.558 -12.368  1.00  0.00     0.281 HD
ENDROOT
BRANCH   9  13
HETATM   13  N1  UNL     1     -51.515 -11.567  -9.237  1.00  0.00    -0.333 N 
HETATM   14  C10 UNL     1     -51.638 -10.236  -9.314  1.00  0.00     0.185 A 
HETATM   15  N2  UNL     1     -51.190  -9.668  -8.189  1.00  0.00    -0.337 N 
HETATM   16  C11 UNL     1     -50.764 -10.635  -7.357  1.00  0.00     0.133 A 
ATOM     17  H2  UNL     1     -51.173  -8.667  -7.995  1.00  0.00     0.168 HD
HETATM   18  N3  UNL     1     -50.221 -10.857  -6.137  1.00  0.00    -0.350 N 
HETATM   19  C14 UNL     1     -50.971 -11.819  -8.022  1.00  0.00     0.081 A 
HETATM   20  C12 UNL     1     -50.077 -12.176  -6.011  1.00  0.00     0.092 A 
ATOM     21  H3  UNL     1     -49.970 -10.150  -5.446  1.00  0.00     0.166 HD
HETATM   22  C13 UNL     1     -50.528 -12.790  -7.146  1.00  0.00     0.050 A 
ENDBRANCH   9  13
BRANCH   1  23
HETATM   23  O1  UNL     1     -55.802 -10.359 -11.575  1.00  0.00    -0.370 OA
ATOM     24  H1  UNL     1     -55.189  -9.736 -11.948  1.00  0.00     0.212 HD
ENDBRANCH   1  23
TORSDOF 2
ENDMDL
MODEL 2
REMARK VINA RESULT: -8.482283294      2.953      5.865
REMARK  2 active torsions:
REMARK  status: ('A' for Active; 'I' for Inactive)
REMARK    1  A    between atoms: O1_1  and  C1_3 
REMARK    2  A    between atoms: C9_11  and  N1_12 
ROOT
HETATM    1  C1  UNL     1     -52.590 -11.578  -9.986  1.00  0.00     0.319 C 
HETATM    2  C2  UNL     1     -53.566 -11.969  -8.907  1.00  0.00     0.063 C 
HETATM    3  C3  UNL     1     -54.640 -12.750  -9.678  1.00  0.00     0.045 C 
HETATM    4  C4  UNL     1     -54.568 -12.083 -11.016  1.00  0.00     0.149 C 
HETATM    5  C5  UNL     1     -55.103 -10.668 -10.848  1.00  0.00     0.041 C 
HETATM    6  C6  UNL     1     -55.374 -10.125 -12.240  1.00  0.00     0.003 C 
HETATM    7  C7  UNL     1     -56.589 -10.830 -12.814  1.00  0.00     0.002 C 
HETATM    8  C8  UNL     1     -56.735 -12.235 -12.218  1.00  0.00     0.028 C 
HETATM    9  C9  UNL     1     -55.307 -12.777 -12.101  1.00  0.00     0.127 C 
HETATM   10  N4  UNL     1     -53.117 -12.053 -11.240  1.00  0.00    -0.038 N 
ATOM     11  H41 UNL     1     -52.721 -12.937 -11.556  1.00  0.00     0.281 HD
ATOM     12  H42 UNL     1     -52.827 -11.509 -12.052  1.00  0.00     0.281 HD
ENDROOT
BRANCH   9  13
HETATM   13  N1  UNL     1     -55.272 -14.204 -12.045  1.00  0.00    -0.333 N 
HETATM   14  C10 UNL     1     -56.255 -15.028 -11.658  1.00  0.00     0.185 A 
HETATM   15  N2  UNL     1     -55.848 -16.300 -11.741  1.00  0.00    -0.337 N 
HETATM   16  C11 UNL     1     -54.580 -16.318 -12.190  1.00  0.00     0.133 A 
ATOM     17  H2  UNL     1     -56.406 -17.119 -11.503  1.00  0.00     0.168 HD
HETATM   18  N3  UNL     1     -53.555 -17.140 -12.513  1.00  0.00    -0.350 N 
HETATM   19  C14 UNL     1     -54.229 -15.004 -12.376  1.00  0.00     0.081 A 
HETATM   20  C12 UNL     1     -52.546 -16.364 -12.908  1.00  0.00     0.092 A 
ATOM     21  H3  UNL     1     -53.554 -18.159 -12.465  1.00  0.00     0.166 HD
HETATM   22  C13 UNL     1     -52.928 -15.054 -12.836  1.00  0.00     0.050 A 
ENDBRANCH   9  13
BRANCH   1  23
HETATM   23  O1  UNL     1     -51.308 -12.124  -9.751  1.00  0.00    -0.370 OA
ATOM     24  H1  UNL     1     -51.306 -12.703  -8.997  1.00  0.00     0.212 HD
ENDBRANCH   1  23
TORSDOF 2
ENDMDL
MODEL 3
REMARK VINA RESULT: -8.386420224      1.204      1.293
REMARK  2 active torsions:
REMARK  status: ('A' for Active; 'I' for Inactive)
REMARK    1  A    between atoms: O1_1  and  C1_3 
REMARK    2  A    between atoms: C9_11  and  N1_12 
ROOT
HETATM    1  C1  UNL     1     -55.870 -12.658 -12.128  1.00  0.00     0.319 C 
HETATM    2  C2  UNL     1     -56.100 -13.201 -10.742  1.00  0.00     0.063 C 
HETATM    3  C3  UNL     1     -54.690 -13.209 -10.135  1.00  0.00     0.045 C 
HETATM    4  C4  UNL     1     -53.856 -13.422 -11.360  1.00  0.00     0.149 C 
HETATM    5  C5  UNL     1     -54.122 -14.838 -11.850  1.00  0.00     0.041 C 
HETATM    6  C6  UNL     1     -53.027 -15.178 -12.848  1.00  0.00     0.003 C 
HETATM    7  C7  UNL     1     -51.722 -15.368 -12.098  1.00  0.00     0.002 C 
HETATM    8  C8  UNL     1     -51.709 -14.539 -10.808  1.00  0.00     0.028 C 
HETATM    9  C9  UNL     1     -52.398 -13.219 -11.167  1.00  0.00     0.127 C 
HETATM   10  N4  UNL     1     -54.453 -12.447 -12.281  1.00  0.00    -0.038 N 
ATOM     11  H41 UNL     1     -54.152 -11.485 -12.130  1.00  0.00     0.281 HD
ATOM     12  H42 UNL     1     -54.118 -12.514 -13.242  1.00  0.00     0.281 HD
ENDROOT
BRANCH   9  13
HETATM   13  N1  UNL     1     -52.043 -12.163 -10.273  1.00  0.00    -0.333 N 
HETATM   14  C10 UNL     1     -52.204 -10.846 -10.462  1.00  0.00     0.185 A 
HETATM   15  N2  UNL     1     -51.750 -10.171  -9.400  1.00  0.00    -0.337 N 
HETATM   16  C11 UNL     1     -51.283 -11.051  -8.497  1.00  0.00     0.133 A 
ATOM     17  H2  UNL     1     -51.756  -9.157  -9.294  1.00  0.00     0.168 HD
HETATM   18  N3  UNL     1     -50.711 -11.151  -7.274  1.00  0.00    -0.350 N 
HETATM   19  C14 UNL     1     -51.470 -12.293  -9.051  1.00  0.00     0.081 A 
HETATM   20  C12 UNL     1     -50.529 -12.450  -7.037  1.00  0.00     0.092 A 
ATOM     21  H3  UNL     1     -50.466 -10.380  -6.652  1.00  0.00     0.166 HD
HETATM   22  C13 UNL     1     -50.984 -13.172  -8.104  1.00  0.00     0.050 A 
ENDBRANCH   9  13
BRANCH   1  23
HETATM   23  O1  UNL     1     -56.574 -11.451 -12.338  1.00  0.00    -0.370 OA
ATOM     24  H1  UNL     1     -57.449 -11.488 -11.971  1.00  0.00     0.212 HD
ENDBRANCH   1  23
TORSDOF 2
ENDMDL
MODEL 4
REMARK VINA RESULT: -8.359254458      1.978      3.444
REMARK  2 active torsions:
REMARK  status: ('A' for Active; 'I' for Inactive)
REMARK    1  A    between atoms: O1_1  and  C1_3 
REMARK    2  A    between atoms: C9_11  and  N1_12 
ROOT
HETATM    1  C1  UNL     1     -55.559 -10.462 -13.711  1.00  0.00     0.319 C 
HETATM    2  C2  UNL     1     -55.976  -9.636 -12.522  1.00  0.00     0.063 C 
HETATM    3  C3  UNL     1     -55.457 -10.455 -11.332  1.00  0.00     0.045 C 
HETATM    4  C4  UNL     1     -55.537 -11.843 -11.889  1.00  0.00     0.149 C 
HETATM    5  C5  UNL     1     -57.012 -12.188 -12.039  1.00  0.00     0.041 C 
HETATM    6  C6  UNL     1     -57.100 -13.691 -12.245  1.00  0.00     0.003 C 
HETATM    7  C7  UNL     1     -56.769 -14.386 -10.938  1.00  0.00     0.002 C 
HETATM    8  C8  UNL     1     -55.830 -13.524 -10.084  1.00  0.00     0.028 C 
HETATM    9  C9  UNL     1     -54.855 -12.882 -11.077  1.00  0.00     0.127 C 
HETATM   10  N4  UNL     1     -54.924 -11.654 -13.209  1.00  0.00    -0.038 N 
ATOM     11  H41 UNL     1     -53.905 -11.617 -13.200  1.00  0.00     0.281 HD
ATOM     12  H42 UNL     1     -54.996 -12.462 -13.827  1.00  0.00     0.281 HD
ENDROOT
BRANCH   9  13
HETATM   13  N1  UNL     1     -53.640 -12.466 -10.449  1.00  0.00    -0.333 N 
HETATM   14  C10 UNL     1     -52.389 -12.679 -10.875  1.00  0.00     0.185 A 
HETATM   15  N2  UNL     1     -51.514 -12.138 -10.020  1.00  0.00    -0.337 N 
HETATM   16  C11 UNL     1     -52.195 -11.559  -9.015  1.00  0.00     0.133 A 
ATOM     17  H2  UNL     1     -50.499 -12.161 -10.114  1.00  0.00     0.168 HD
HETATM   18  N3  UNL     1     -52.049 -10.864  -7.863  1.00  0.00    -0.350 N 
HETATM   19  C14 UNL     1     -53.524 -11.770  -9.292  1.00  0.00     0.081 A 
HETATM   20  C12 UNL     1     -53.274 -10.625  -7.396  1.00  0.00     0.092 A 
ATOM     21  H3  UNL     1     -51.169 -10.578  -7.433  1.00  0.00     0.166 HD
HETATM   22  C13 UNL     1     -54.195 -11.166  -8.248  1.00  0.00     0.050 A 
ENDBRANCH   9  13
BRANCH   1  23
HETATM   23  O1  UNL     1     -54.677  -9.752 -14.556  1.00  0.00    -0.370 OA
ATOM     24  H1  UNL     1     -53.878  -9.509 -14.103  1.00  0.00     0.212 HD
ENDBRANCH   1  23
TORSDOF 2
ENDMDL
MODEL 5
REMARK VINA RESULT: -8.329359602      3.394      6.503
REMARK  2 active torsions:
REMARK  status: ('A' for Active; 'I' for Inactive)
REMARK    1  A    between atoms: O1_1  and  C1_3 
REMARK    2  A    between atoms: C9_11  and  N1_12 
ROOT
HETATM    1  C1  UNL     1     -53.163 -12.492 -10.253  1.00  0.00     0.319 C 
HETATM    2  C2  UNL     1     -54.173 -12.282  -9.155  1.00  0.00     0.063 C 
HETATM    3  C3  UNL     1     -55.511 -12.543  -9.862  1.00  0.00     0.045 C 
HETATM    4  C4  UNL     1     -55.180 -12.113 -11.258  1.00  0.00     0.149 C 
HETATM    5  C5  UNL     1     -54.993 -10.603 -11.236  1.00  0.00     0.041 C 
HETATM    6  C6  UNL     1     -55.026 -10.127 -12.678  1.00  0.00     0.003 C 
HETATM    7  C7  UNL     1     -56.447 -10.237 -13.199  1.00  0.00     0.002 C 
HETATM    8  C8  UNL     1     -57.209 -11.352 -12.471  1.00  0.00     0.028 C 
HETATM    9  C9  UNL     1     -56.192 -12.481 -12.281  1.00  0.00     0.127 C 
HETATM   10  N4  UNL     1     -53.890 -12.781 -11.462  1.00  0.00    -0.038 N 
ATOM     11  H41 UNL     1     -53.959 -13.773 -11.685  1.00  0.00     0.281 HD
ATOM     12  H42 UNL     1     -53.407 -12.512 -12.319  1.00  0.00     0.281 HD
ENDROOT
BRANCH   9  13
HETATM   13  N1  UNL     1     -56.821 -13.749 -12.087  1.00  0.00    -0.333 N 
HETATM   14  C10 UNL     1     -58.107 -13.984 -11.792  1.00  0.00     0.185 A 
HETATM   15  N2  UNL     1     -58.321 -15.300 -11.687  1.00  0.00    -0.337 N 
HETATM   16  C11 UNL     1     -57.164 -15.945 -11.915  1.00  0.00     0.133 A 
ATOM     17  H2  UNL     1     -59.215 -15.741 -11.469  1.00  0.00     0.168 HD
HETATM   18  N3  UNL     1     -56.602 -17.174 -11.986  1.00  0.00    -0.350 N 
HETATM   19  C14 UNL     1     -56.232 -14.967 -12.164  1.00  0.00     0.081 A 
HETATM   20  C12 UNL     1     -55.314 -16.995 -12.279  1.00  0.00     0.092 A 
ATOM     21  H3  UNL     1     -57.073 -18.067 -11.843  1.00  0.00     0.166 HD
HETATM   22  C13 UNL     1     -55.059 -15.658 -12.394  1.00  0.00     0.050 A 
ENDBRANCH   9  13
BRANCH   1  23
HETATM   23  O1  UNL     1     -52.273 -13.546  -9.948  1.00  0.00    -0.370 OA
ATOM     24  H1  UNL     1     -51.392 -13.228  -9.789  1.00  0.00     0.212 HD
ENDBRANCH   1  23
TORSDOF 2
ENDMDL
