MODEL 1
REMARK VINA RESULT: -10.507100792      0.000      0.000
REMARK  4 active torsions:
REMARK  status: ('A' for Active; 'I' for Inactive)
REMARK    1  A    between atoms: C6_7  and  C7_8 
REMARK       I    between atoms: C7_8  and  N1_10 
REMARK    2  A    between atoms: N1_10  and  C8_12 
REMARK    3  A    between atoms: C8_12  and  C9_16 
REMARK    4  A    between atoms: C9_16  and  C10_18 
ROOT
HETATM    1  C7  UNL     1      17.602  -5.944  -1.814  1.00  0.00     0.264 C 
HETATM    2  O2  UNL     1      18.704  -6.450  -2.057  1.00  0.00    -0.267 OA
HETATM    3  N1  UNL     1      16.419  -6.605  -1.550  1.00  0.00    -0.306 N 
ATOM      4  H1  UNL     1      15.625  -5.989  -1.375  1.00  0.00     0.170 HD
ENDROOT
BRANCH   1   5
HETATM    5  C6  UNL     1      17.633  -4.436  -1.824  1.00  0.00     0.078 A 
HETATM    6  C5  UNL     1      18.702  -3.619  -2.058  1.00  0.00     0.065 A 
HETATM    7  C4  UNL     1      18.492  -2.291  -2.015  1.00  0.00     0.112 A 
HETATM    8  O1  UNL     1      19.413  -1.230  -2.217  1.00  0.00    -0.334 OA
HETATM    9  C16 UNL     1      17.221  -1.866  -1.740  1.00  0.00     0.145 A 
HETATM   10  C2  UNL     1      18.907  -0.017  -2.723  1.00  0.00     0.092 C 
HETATM   11  C1  UNL     1      20.010   0.938  -3.037  1.00  0.00     0.049 C 
HETATM   12  C3  UNL     1      18.199  -0.327  -4.048  1.00  0.00     0.049 C 
HETATM   13  C17 UNL     1      17.862   0.532  -1.798  1.00  0.00     0.099 C 
HETATM   14  O4  UNL     1      16.879  -0.493  -1.668  1.00  0.00    -0.327 OA
HETATM   15  C18 UNL     1      17.282   1.854  -2.177  1.00  0.00     0.042 C 
HETATM   16  C20 UNL     1      18.334   1.085  -0.496  1.00  0.00     0.042 C 
HETATM   17  C19 UNL     1      17.365   2.253  -0.698  1.00  0.00     0.006 C 
HETATM   18  S1  UNL     1      16.365  -3.333  -1.552  1.00  0.00    -0.057 SA
ENDBRANCH   1   5
BRANCH   3  19
HETATM   19  C8  UNL     1      16.118  -7.952  -1.480  1.00  0.00     0.148 C 
HETATM   20  N2  UNL     1      15.511  -8.370  -0.364  1.00  0.00    -0.382 N 
ATOM     21  H22 UNL     1      15.335  -7.642   0.328  1.00  0.00     0.157 HD
ATOM     22  H21 UNL     1      15.289  -9.364  -0.312  1.00  0.00     0.157 HD
BRANCH  19  23
HETATM   23  C9  UNL     1      16.365  -8.973  -2.451  1.00  0.00     0.196 C 
HETATM   24  O3  UNL     1      16.951 -10.070  -2.153  1.00  0.00    -0.289 OA
BRANCH  23  25
HETATM   25  C10 UNL     1      15.984  -8.891  -3.884  1.00  0.00     0.064 C 
HETATM   26  C11 UNL     1      16.660  -7.793  -4.661  1.00  0.00     0.013 C 
HETATM   27  C12 UNL     1      16.441  -8.167  -6.123  1.00  0.00     0.001 C 
HETATM   28  C13 UNL     1      15.021  -8.315  -6.496  1.00  0.00     0.000 C 
HETATM   29  C14 UNL     1      14.100  -8.944  -5.508  1.00  0.00     0.001 C 
HETATM   30  C15 UNL     1      14.514  -8.731  -4.066  1.00  0.00     0.013 C 
ENDBRANCH  23  25
ENDBRANCH  19  23
ENDBRANCH   3  19
TORSDOF 4
ENDMDL
MODEL 2
REMARK VINA RESULT: -9.877987346      2.007      2.466
REMARK  4 active torsions:
REMARK  status: ('A' for Active; 'I' for Inactive)
REMARK    1  A    between atoms: C6_7  and  C7_8 
REMARK       I    between atoms: C7_8  and  N1_10 
REMARK    2  A    between atoms: N1_10  and  C8_12 
REMARK    3  A    between atoms: C8_12  and  C9_16 
REMARK    4  A    between atoms: C9_16  and  C10_18 
ROOT
HETATM    1  C7  UNL     1      17.589  -5.326  -1.916  1.00  0.00     0.264 C 
HETATM    2  O2  UNL     1      18.666  -5.933  -1.904  1.00  0.00    -0.267 OA
HETATM    3  N1  UNL     1      16.321  -5.873  -1.964  1.00  0.00    -0.306 N 
ATOM      4  H1  UNL     1      15.568  -5.186  -1.965  1.00  0.00     0.170 HD
ENDROOT
BRANCH   1   5
HETATM    5  C6  UNL     1      17.758  -3.828  -1.872  1.00  0.00     0.078 A 
HETATM    6  C5  UNL     1      18.818  -3.089  -2.312  1.00  0.00     0.065 A 
HETATM    7  C4  UNL     1      18.749  -1.753  -2.168  1.00  0.00     0.112 A 
HETATM    8  O1  UNL     1      19.696  -0.760  -2.533  1.00  0.00    -0.334 OA
HETATM    9  C16 UNL     1      17.618  -1.242  -1.590  1.00  0.00     0.145 A 
HETATM   10  C2  UNL     1      19.205   0.519  -2.859  1.00  0.00     0.092 C 
HETATM   11  C1  UNL     1      20.292   1.397  -3.380  1.00  0.00     0.049 C 
HETATM   12  C3  UNL     1      18.190   0.349  -3.997  1.00  0.00     0.049 C 
HETATM   13  C17 UNL     1      18.452   1.094  -1.696  1.00  0.00     0.099 C 
HETATM   14  O4  UNL     1      17.432   0.146  -1.386  1.00  0.00    -0.327 OA
HETATM   15  C18 UNL     1      17.928   2.479  -1.878  1.00  0.00     0.042 C 
HETATM   16  C20 UNL     1      19.256   1.526  -0.517  1.00  0.00     0.042 C 
HETATM   17  C19 UNL     1      18.379   2.780  -0.443  1.00  0.00     0.006 C 
HETATM   18  S1  UNL     1      16.693  -2.644  -1.270  1.00  0.00    -0.057 SA
ENDBRANCH   1   5
BRANCH   3  19
HETATM   19  C8  UNL     1      15.892  -7.186  -2.010  1.00  0.00     0.148 C 
HETATM   20  N2  UNL     1      16.597  -8.069  -1.293  1.00  0.00    -0.382 N 
ATOM     21  H22 UNL     1      17.389  -7.676  -0.785  1.00  0.00     0.157 HD
ATOM     22  H21 UNL     1      16.280  -9.038  -1.327  1.00  0.00     0.157 HD
BRANCH  19  23
HETATM   23  C9  UNL     1      14.781  -7.736  -2.723  1.00  0.00     0.196 C 
HETATM   24  O3  UNL     1      14.872  -8.821  -3.395  1.00  0.00    -0.289 OA
BRANCH  23  25
HETATM   25  C10 UNL     1      13.423  -7.138  -2.772  1.00  0.00     0.064 C 
HETATM   26  C11 UNL     1      13.064  -6.480  -4.077  1.00  0.00     0.013 C 
HETATM   27  C12 UNL     1      11.548  -6.328  -4.026  1.00  0.00     0.001 C 
HETATM   28  C13 UNL     1      11.063  -5.556  -2.866  1.00  0.00     0.000 C 
HETATM   29  C14 UNL     1      11.752  -5.750  -1.559  1.00  0.00     0.001 C 
HETATM   30  C15 UNL     1      13.212  -6.135  -1.691  1.00  0.00     0.013 C 
ENDBRANCH  23  25
ENDBRANCH  19  23
ENDBRANCH   3  19
TORSDOF 4
ENDMDL
MODEL 3
REMARK VINA RESULT: -9.561356359      2.221      3.509
REMARK  4 active torsions:
REMARK  status: ('A' for Active; 'I' for Inactive)
REMARK    1  A    between atoms: C6_7  and  C7_8 
REMARK       I    between atoms: C7_8  and  N1_10 
REMARK    2  A    between atoms: N1_10  and  C8_12 
REMARK    3  A    between atoms: C8_12  and  C9_16 
REMARK    4  A    between atoms: C9_16  and  C10_18 
ROOT
HETATM    1  C7  UNL     1      17.773  -3.266  -2.457  1.00  0.00     0.264 C 
HETATM    2  O2  UNL     1      16.570  -3.496  -2.290  1.00  0.00    -0.267 OA
HETATM    3  N1  UNL     1      18.748  -4.159  -2.856  1.00  0.00    -0.306 N 
ATOM      4  H1  UNL     1      19.681  -3.755  -2.931  1.00  0.00     0.170 HD
ENDROOT
BRANCH   1   5
HETATM    5  C6  UNL     1      18.141  -1.830  -2.176  1.00  0.00     0.078 A 
HETATM    6  C5  UNL     1      17.426  -0.706  -2.473  1.00  0.00     0.065 A 
HETATM    7  C4  UNL     1      17.956   0.480  -2.124  1.00  0.00     0.112 A 
HETATM    8  O1  UNL     1      17.433   1.787  -2.310  1.00  0.00    -0.334 OA
HETATM    9  C16 UNL     1      19.173   0.464  -1.498  1.00  0.00     0.145 A 
HETATM   10  C2  UNL     1      17.806   2.776  -1.379  1.00  0.00     0.092 C 
HETATM   11  C1  UNL     1      17.052   4.043  -1.607  1.00  0.00     0.049 C 
HETATM   12  C3  UNL     1      17.414   2.272   0.015  1.00  0.00     0.049 C 
HETATM   13  C17 UNL     1      19.297   2.940  -1.371  1.00  0.00     0.099 C 
HETATM   14  O4  UNL     1      19.830   1.648  -1.085  1.00  0.00    -0.327 OA
HETATM   15  C18 UNL     1      19.832   4.006  -0.474  1.00  0.00     0.042 C 
HETATM   16  C20 UNL     1      19.912   3.598  -2.560  1.00  0.00     0.042 C 
HETATM   17  C19 UNL     1      20.804   4.388  -1.598  1.00  0.00     0.006 C 
HETATM   18  S1  UNL     1      19.532  -1.205  -1.419  1.00  0.00    -0.057 SA
ENDBRANCH   1   5
BRANCH   3  19
HETATM   19  C8  UNL     1      18.684  -5.502  -3.171  1.00  0.00     0.148 C 
HETATM   20  N2  UNL     1      19.535  -5.936  -4.109  1.00  0.00    -0.382 N 
ATOM     21  H22 UNL     1      20.147  -5.218  -4.499  1.00  0.00     0.157 HD
ATOM     22  H21 UNL     1      19.489  -6.927  -4.342  1.00  0.00     0.157 HD
BRANCH  19  23
HETATM   23  C9  UNL     1      17.827  -6.508  -2.624  1.00  0.00     0.196 C 
HETATM   24  O3  UNL     1      18.166  -7.219  -1.617  1.00  0.00    -0.289 OA
BRANCH  23  25
HETATM   25  C10 UNL     1      16.475  -6.843  -3.141  1.00  0.00     0.064 C 
HETATM   26  C11 UNL     1      15.475  -7.246  -2.091  1.00  0.00     0.013 C 
HETATM   27  C12 UNL     1      14.122  -7.131  -2.785  1.00  0.00     0.001 C 
HETATM   28  C13 UNL     1      14.005  -7.953  -4.005  1.00  0.00     0.000 C 
HETATM   29  C14 UNL     1      15.197  -8.061  -4.893  1.00  0.00     0.001 C 
HETATM   30  C15 UNL     1      16.517  -7.928  -4.161  1.00  0.00     0.013 C 
ENDBRANCH  23  25
ENDBRANCH  19  23
ENDBRANCH   3  19
TORSDOF 4
ENDMDL
MODEL 4
REMARK VINA RESULT: -9.378398085      2.495      9.269
REMARK  4 active torsions:
REMARK  status: ('A' for Active; 'I' for Inactive)
REMARK    1  A    between atoms: C6_7  and  C7_8 
REMARK       I    between atoms: C7_8  and  N1_10 
REMARK    2  A    between atoms: N1_10  and  C8_12 
REMARK    3  A    between atoms: C8_12  and  C9_16 
REMARK    4  A    between atoms: C9_16  and  C10_18 
ROOT
HETATM    1  C7  UNL     1      17.994  -2.396  -1.982  1.00  0.00     0.264 C 
HETATM    2  O2  UNL     1      19.062  -2.245  -1.378  1.00  0.00    -0.267 OA
HETATM    3  N1  UNL     1      17.157  -1.406  -2.459  1.00  0.00    -0.306 N 
ATOM      4  H1  UNL     1      16.323  -1.755  -2.931  1.00  0.00     0.170 HD
ENDROOT
BRANCH   1   5
HETATM    5  C6  UNL     1      17.632  -3.847  -2.184  1.00  0.00     0.078 A 
HETATM    6  C5  UNL     1      16.402  -4.376  -2.447  1.00  0.00     0.065 A 
HETATM    7  C4  UNL     1      16.316  -5.711  -2.589  1.00  0.00     0.112 A 
HETATM    8  O1  UNL     1      15.178  -6.514  -2.862  1.00  0.00    -0.334 OA
HETATM    9  C16 UNL     1      17.473  -6.431  -2.459  1.00  0.00     0.145 A 
HETATM   10  C2  UNL     1      15.384  -7.723  -3.554  1.00  0.00     0.092 C 
HETATM   11  C1  UNL     1      14.088  -8.368  -3.912  1.00  0.00     0.049 C 
HETATM   12  C3  UNL     1      16.091  -7.388  -4.873  1.00  0.00     0.049 C 
HETATM   13  C17 UNL     1      16.318  -8.606  -2.780  1.00  0.00     0.099 C 
HETATM   14  O4  UNL     1      17.507  -7.841  -2.587  1.00  0.00    -0.327 OA
HETATM   15  C18 UNL     1      16.578  -9.954  -3.365  1.00  0.00     0.042 C 
HETATM   16  C20 UNL     1      15.787  -9.223  -1.531  1.00  0.00     0.042 C 
HETATM   17  C19 UNL     1      16.468 -10.530  -1.947  1.00  0.00     0.006 C 
HETATM   18  S1  UNL     1      18.636  -5.220  -2.143  1.00  0.00    -0.057 SA
ENDBRANCH   1   5
BRANCH   3  19
HETATM   19  C8  UNL     1      17.247  -0.029  -2.411  1.00  0.00     0.148 C 
HETATM   20  N2  UNL     1      16.218   0.617  -1.851  1.00  0.00    -0.382 N 
ATOM     21  H22 UNL     1      15.464   0.017  -1.517  1.00  0.00     0.157 HD
ATOM     22  H21 UNL     1      16.285   1.634  -1.815  1.00  0.00     0.157 HD
BRANCH  19  23
HETATM   23  C9  UNL     1      18.305   0.813  -2.880  1.00  0.00     0.196 C 
HETATM   24  O3  UNL     1      18.790   0.707  -4.058  1.00  0.00    -0.289 OA
BRANCH  23  25
HETATM   25  C10 UNL     1      18.953   1.885  -2.082  1.00  0.00     0.064 C 
HETATM   26  C11 UNL     1      19.909   2.760  -2.848  1.00  0.00     0.013 C 
HETATM   27  C12 UNL     1      20.106   3.983  -1.960  1.00  0.00     0.001 C 
HETATM   28  C13 UNL     1      20.607   3.667  -0.608  1.00  0.00     0.000 C 
HETATM   29  C14 UNL     1      20.088   2.441   0.061  1.00  0.00     0.001 C 
HETATM   30  C15 UNL     1      19.685   1.343  -0.903  1.00  0.00     0.013 C 
ENDBRANCH  23  25
ENDBRANCH  19  23
ENDBRANCH   3  19
TORSDOF 4
ENDMDL
MODEL 5
REMARK VINA RESULT: -9.360394818      2.444      9.352
REMARK  4 active torsions:
REMARK  status: ('A' for Active; 'I' for Inactive)
REMARK    1  A    between atoms: C6_7  and  C7_8 
REMARK       I    between atoms: C7_8  and  N1_10 
REMARK    2  A    between atoms: N1_10  and  C8_12 
REMARK    3  A    between atoms: C8_12  and  C9_16 
REMARK    4  A    between atoms: C9_16  and  C10_18 
ROOT
HETATM    1  C7  UNL     1      18.199  -2.454  -2.150  1.00  0.00     0.264 C 
HETATM    2  O2  UNL     1      18.960  -2.277  -1.192  1.00  0.00    -0.267 OA
HETATM    3  N1  UNL     1      17.717  -1.499  -3.023  1.00  0.00    -0.306 N 
ATOM      4  H1  UNL     1      17.099  -1.867  -3.746  1.00  0.00     0.170 HD
ENDROOT
BRANCH   1   5
HETATM    5  C6  UNL     1      17.796  -3.899  -2.320  1.00  0.00     0.078 A 
HETATM    6  C5  UNL     1      16.546  -4.402  -2.537  1.00  0.00     0.065 A 
HETATM    7  C4  UNL     1      16.424  -5.736  -2.659  1.00  0.00     0.112 A 
HETATM    8  O1  UNL     1      15.258  -6.514  -2.885  1.00  0.00    -0.334 OA
HETATM    9  C16 UNL     1      17.566  -6.482  -2.556  1.00  0.00     0.145 A 
HETATM   10  C2  UNL     1      15.414  -7.737  -3.567  1.00  0.00     0.092 C 
HETATM   11  C1  UNL     1      14.091  -8.354  -3.875  1.00  0.00     0.049 C 
HETATM   12  C3  UNL     1      16.086  -7.435  -4.912  1.00  0.00     0.049 C 
HETATM   13  C17 UNL     1      16.351  -8.632  -2.811  1.00  0.00     0.099 C 
HETATM   14  O4  UNL     1      17.563  -7.894  -2.666  1.00  0.00    -0.327 OA
HETATM   15  C18 UNL     1      16.560  -9.993  -3.386  1.00  0.00     0.042 C 
HETATM   16  C20 UNL     1      15.845  -9.220  -1.537  1.00  0.00     0.042 C 
HETATM   17  C19 UNL     1      16.480 -10.548  -1.958  1.00  0.00     0.006 C 
HETATM   18  S1  UNL     1      18.768  -5.295  -2.292  1.00  0.00    -0.057 SA
ENDBRANCH   1   5
BRANCH   3  19
HETATM   19  C8  UNL     1      17.923  -0.135  -3.092  1.00  0.00     0.148 C 
HETATM   20  N2  UNL     1      18.599   0.313  -4.156  1.00  0.00    -0.382 N 
ATOM     21  H22 UNL     1      18.899  -0.410  -4.810  1.00  0.00     0.157 HD
ATOM     22  H21 UNL     1      18.751   1.320  -4.207  1.00  0.00     0.157 HD
BRANCH  19  23
HETATM   23  C9  UNL     1      17.503   0.878  -2.174  1.00  0.00     0.196 C 
HETATM   24  O3  UNL     1      16.320   0.913  -1.690  1.00  0.00    -0.289 OA
BRANCH  23  25
HETATM   25  C10 UNL     1      18.363   1.984  -1.680  1.00  0.00     0.064 C 
HETATM   26  C11 UNL     1      19.192   1.653  -0.468  1.00  0.00     0.013 C 
HETATM   27  C12 UNL     1      20.250   2.750  -0.416  1.00  0.00     0.001 C 
HETATM   28  C13 UNL     1      19.693   4.115  -0.349  1.00  0.00     0.000 C 
HETATM   29  C14 UNL     1      18.471   4.413  -1.149  1.00  0.00     0.001 C 
HETATM   30  C15 UNL     1      17.576   3.209  -1.364  1.00  0.00     0.013 C 
ENDBRANCH  23  25
ENDBRANCH  19  23
ENDBRANCH   3  19
TORSDOF 4
ENDMDL
