MODEL 1
REMARK VINA RESULT: -6.191132341      0.000      0.000
REMARK  8 active torsions:
REMARK  status: ('A' for Active; 'I' for Inactive)
REMARK    1  A    between atoms: C10_12  and  O3_13 
REMARK    2  A    between atoms: O3_13  and  C11_14 
REMARK    3  A    between atoms: C11_14  and  O5_16 
REMARK    4  A    between atoms: O5_16  and  C12_17 
REMARK    5  A    between atoms: C14_19  and  C15_20 
REMARK    6  A    between atoms: C16_21  and  C18_23 
REMARK    7  A    between atoms: C18_23  and  C19_24 
REMARK    8  A    between atoms: C22_27  and  O6_28 
ROOT
HETATM    1  C1  UNL     1      14.350  -1.986  -5.282  1.00  0.00     0.028 C 
HETATM    2  C2  UNL     1      13.118  -1.714  -5.661  1.00  0.00     0.037 C 
HETATM    3  C3  UNL     1      12.957  -0.833  -6.856  1.00  0.00     0.291 C 
HETATM    4  O1  UNL     1      13.953  -0.027  -7.002  1.00  0.00    -0.260 OA
HETATM    5  O2  UNL     1      11.875  -0.925  -7.640  1.00  0.00    -0.317 OA
HETATM    6  C4  UNL     1      11.448  -1.534  -8.766  1.00  0.00     0.187 C 
HETATM    7  C5  UNL     1      11.588  -3.019  -8.899  1.00  0.00    -0.025 C 
HETATM    8  C6  UNL     1      10.870  -3.373 -10.221  1.00  0.00     0.017 C 
HETATM    9  C7  UNL     1      13.015  -3.456  -9.124  1.00  0.00     0.017 C 
HETATM   10  C8  UNL     1      10.881  -3.808  -7.824  1.00  0.00     0.013 C 
HETATM   11  C9  UNL     1      11.799  -4.590  -6.947  1.00  0.00     0.034 C 
HETATM   12  C10 UNL     1      11.277  -4.572  -5.520  1.00  0.00     0.144 C 
HETATM   13  C14 UNL     1      12.151  -3.774  -4.612  1.00  0.00     0.072 C 
HETATM   14  C22 UNL     1      11.998  -2.260  -4.903  1.00  0.00     0.166 C 
ENDROOT
BRANCH  13  15
HETATM   15  C15 UNL     1      11.809  -4.022  -3.208  1.00  0.00    -0.002 C 
HETATM   16  C16 UNL     1      12.233  -4.980  -2.403  1.00  0.00    -0.024 C 
HETATM   17  C17 UNL     1      11.672  -4.928  -0.972  1.00  0.00     0.057 C 
BRANCH  16  18
HETATM   18  C18 UNL     1      13.020  -6.070  -2.816  1.00  0.00    -0.145 C 
BRANCH  18  19
HETATM   19  C19 UNL     1      13.719  -7.037  -3.183  1.00  0.00     0.049 C 
HETATM   20  C20 UNL     1      14.787  -7.668  -2.314  1.00  0.00     0.022 C 
HETATM   21  C21 UNL     1      13.647  -7.706  -4.530  1.00  0.00     0.022 C 
ENDBRANCH  18  19
ENDBRANCH  16  18
ENDBRANCH  13  15
BRANCH  12  22
HETATM   22  O3  UNL     1       9.907  -4.249  -5.446  1.00  0.00    -0.292 OA
BRANCH  22  23
HETATM   23  C11 UNL     1       8.929  -5.242  -5.323  1.00  0.00     0.406 C 
HETATM   24  O4  UNL     1       9.101  -6.111  -4.439  1.00  0.00    -0.229 OA
BRANCH  23  25
HETATM   25  O5  UNL     1       7.800  -5.255  -6.161  1.00  0.00    -0.298 OA
BRANCH  25  26
HETATM   26  C12 UNL     1       7.693  -6.438  -6.958  1.00  0.00     0.176 C 
HETATM   27  C13 UNL     1       8.154  -6.224  -8.360  1.00  0.00     0.034 C 
ENDBRANCH  25  26
ENDBRANCH  23  25
ENDBRANCH  22  23
ENDBRANCH  12  22
BRANCH  14  28
HETATM   28  O6  UNL     1      12.087  -1.653  -3.622  1.00  0.00    -0.390 OA
ATOM     29  H6  UNL     1      11.187  -1.515  -3.351  1.00  0.00     0.210 HD
ENDBRANCH  14  28
TORSDOF 8
ENDMDL
MODEL 2
REMARK VINA RESULT: -6.000098660      4.144      5.889
REMARK  8 active torsions:
REMARK  status: ('A' for Active; 'I' for Inactive)
REMARK    1  A    between atoms: C10_12  and  O3_13 
REMARK    2  A    between atoms: O3_13  and  C11_14 
REMARK    3  A    between atoms: C11_14  and  O5_16 
REMARK    4  A    between atoms: O5_16  and  C12_17 
REMARK    5  A    between atoms: C14_19  and  C15_20 
REMARK    6  A    between atoms: C16_21  and  C18_23 
REMARK    7  A    between atoms: C18_23  and  C19_24 
REMARK    8  A    between atoms: C22_27  and  O6_28 
ROOT
HETATM    1  C1  UNL     1      18.803  -4.073  -2.995  1.00  0.00     0.028 C 
HETATM    2  C2  UNL     1      17.953  -3.527  -2.150  1.00  0.00     0.037 C 
HETATM    3  C3  UNL     1      18.088  -2.059  -1.908  1.00  0.00     0.291 C 
HETATM    4  O1  UNL     1      19.298  -1.648  -2.083  1.00  0.00    -0.260 OA
HETATM    5  O2  UNL     1      17.030  -1.319  -1.551  1.00  0.00    -0.317 OA
HETATM    6  C4  UNL     1      16.068  -0.543  -2.090  1.00  0.00     0.187 C 
HETATM    7  C5  UNL     1      15.229  -1.080  -3.210  1.00  0.00    -0.025 C 
HETATM    8  C6  UNL     1      14.157   0.004  -3.464  1.00  0.00     0.017 C 
HETATM    9  C7  UNL     1      15.982  -1.169  -4.515  1.00  0.00     0.017 C 
HETATM   10  C8  UNL     1      14.469  -2.337  -2.868  1.00  0.00     0.013 C 
HETATM   11  C9  UNL     1      14.889  -3.530  -3.658  1.00  0.00     0.034 C 
HETATM   12  C10 UNL     1      14.847  -4.766  -2.775  1.00  0.00     0.144 C 
HETATM   13  C14 UNL     1      16.210  -5.296  -2.484  1.00  0.00     0.072 C 
HETATM   14  C22 UNL     1      16.955  -4.365  -1.495  1.00  0.00     0.166 C 
ENDROOT
BRANCH  13  15
HETATM   15  C15 UNL     1      16.134  -6.639  -1.902  1.00  0.00    -0.002 C 
HETATM   16  C16 UNL     1      16.087  -7.811  -2.512  1.00  0.00    -0.024 C 
HETATM   17  C17 UNL     1      16.026  -9.032  -1.580  1.00  0.00     0.057 C 
BRANCH  16  18
HETATM   18  C18 UNL     1      15.951  -7.974  -3.902  1.00  0.00    -0.145 C 
BRANCH  18  19
HETATM   19  C19 UNL     1      15.830  -8.118  -5.136  1.00  0.00     0.049 C 
HETATM   20  C20 UNL     1      14.555  -8.602  -5.796  1.00  0.00     0.022 C 
HETATM   21  C21 UNL     1      16.912  -7.876  -6.155  1.00  0.00     0.022 C 
ENDBRANCH  18  19
ENDBRANCH  16  18
ENDBRANCH  13  15
BRANCH  12  22
HETATM   22  O3  UNL     1      14.031  -4.595  -1.638  1.00  0.00    -0.292 OA
BRANCH  22  23
HETATM   23  C11 UNL     1      12.813  -5.270  -1.505  1.00  0.00     0.406 C 
HETATM   24  O4  UNL     1      12.840  -6.403  -0.975  1.00  0.00    -0.229 OA
BRANCH  23  25
HETATM   25  O5  UNL     1      11.611  -4.692  -1.949  1.00  0.00    -0.298 OA
BRANCH  25  26
HETATM   26  C12 UNL     1      11.187  -5.165  -3.231  1.00  0.00     0.176 C 
HETATM   27  C13 UNL     1       9.885  -5.888  -3.169  1.00  0.00     0.034 C 
ENDBRANCH  25  26
ENDBRANCH  23  25
ENDBRANCH  22  23
ENDBRANCH  12  22
BRANCH  14  28
HETATM   28  O6  UNL     1      17.700  -5.257  -0.678  1.00  0.00    -0.390 OA
ATOM     29  H6  UNL     1      17.698  -6.083  -1.148  1.00  0.00     0.210 HD
ENDBRANCH  14  28
TORSDOF 8
ENDMDL
MODEL 3
REMARK VINA RESULT: -5.982439749      1.619      2.250
REMARK  8 active torsions:
REMARK  status: ('A' for Active; 'I' for Inactive)
REMARK    1  A    between atoms: C10_12  and  O3_13 
REMARK    2  A    between atoms: O3_13  and  C11_14 
REMARK    3  A    between atoms: C11_14  and  O5_16 
REMARK    4  A    between atoms: O5_16  and  C12_17 
REMARK    5  A    between atoms: C14_19  and  C15_20 
REMARK    6  A    between atoms: C16_21  and  C18_23 
REMARK    7  A    between atoms: C18_23  and  C19_24 
REMARK    8  A    between atoms: C22_27  and  O6_28 
ROOT
HETATM    1  C1  UNL     1      13.758  -2.380  -5.614  1.00  0.00     0.028 C 
HETATM    2  C2  UNL     1      12.793  -1.902  -6.371  1.00  0.00     0.037 C 
HETATM    3  C3  UNL     1      13.132  -0.735  -7.241  1.00  0.00     0.291 C 
HETATM    4  O1  UNL     1      14.083  -0.020  -6.744  1.00  0.00    -0.260 OA
HETATM    5  O2  UNL     1      12.478  -0.519  -8.390  1.00  0.00    -0.317 OA
HETATM    6  C4  UNL     1      12.573  -0.778  -9.711  1.00  0.00     0.187 C 
HETATM    7  C5  UNL     1      12.781  -2.188 -10.173  1.00  0.00    -0.025 C 
HETATM    8  C6  UNL     1      12.689  -2.123 -11.714  1.00  0.00     0.017 C 
HETATM    9  C7  UNL     1      14.179  -2.691  -9.907  1.00  0.00     0.017 C 
HETATM   10  C8  UNL     1      11.704  -3.149  -9.737  1.00  0.00     0.013 C 
HETATM   11  C9  UNL     1      12.184  -4.214  -8.810  1.00  0.00     0.034 C 
HETATM   12  C10 UNL     1      11.113  -4.507  -7.773  1.00  0.00     0.144 C 
HETATM   13  C14 UNL     1      11.512  -4.055  -6.409  1.00  0.00     0.072 C 
HETATM   14  C22 UNL     1      11.469  -2.509  -6.315  1.00  0.00     0.166 C 
ENDROOT
BRANCH  13  15
HETATM   15  C15 UNL     1      10.618  -4.615  -5.391  1.00  0.00    -0.002 C 
HETATM   16  C16 UNL     1      10.912  -5.373  -4.348  1.00  0.00    -0.024 C 
HETATM   17  C17 UNL     1       9.715  -5.772  -3.471  1.00  0.00     0.057 C 
BRANCH  16  18
HETATM   18  C18 UNL     1      12.184  -5.918  -4.101  1.00  0.00    -0.145 C 
BRANCH  18  19
HETATM   19  C19 UNL     1      13.314  -6.403  -3.882  1.00  0.00     0.049 C 
HETATM   20  C20 UNL     1      13.675  -7.842  -4.190  1.00  0.00     0.022 C 
HETATM   21  C21 UNL     1      14.473  -5.672  -3.258  1.00  0.00     0.022 C 
ENDBRANCH  18  19
ENDBRANCH  16  18
ENDBRANCH  13  15
BRANCH  12  22
HETATM   22  O3  UNL     1       9.832  -4.081  -8.178  1.00  0.00    -0.292 OA
BRANCH  22  23
HETATM   23  C11 UNL     1       8.891  -4.981  -8.689  1.00  0.00     0.406 C 
HETATM   24  O4  UNL     1       8.511  -4.807  -9.869  1.00  0.00    -0.229 OA
BRANCH  23  25
HETATM   25  O5  UNL     1       8.396  -6.037  -7.904  1.00  0.00    -0.298 OA
BRANCH  25  26
HETATM   26  C12 UNL     1       7.608  -5.604  -6.792  1.00  0.00     0.176 C 
HETATM   27  C13 UNL     1       7.103  -6.742  -5.972  1.00  0.00     0.034 C 
ENDBRANCH  25  26
ENDBRANCH  23  25
ENDBRANCH  22  23
ENDBRANCH  12  22
BRANCH  14  28
HETATM   28  O6  UNL     1      11.003  -2.258  -4.997  1.00  0.00    -0.390 OA
ATOM     29  H6  UNL     1      11.011  -3.105  -4.566  1.00  0.00     0.210 HD
ENDBRANCH  14  28
TORSDOF 8
ENDMDL
MODEL 4
REMARK VINA RESULT: -5.799108200      5.034      7.212
REMARK  8 active torsions:
REMARK  status: ('A' for Active; 'I' for Inactive)
REMARK    1  A    between atoms: C10_12  and  O3_13 
REMARK    2  A    between atoms: O3_13  and  C11_14 
REMARK    3  A    between atoms: C11_14  and  O5_16 
REMARK    4  A    between atoms: O5_16  and  C12_17 
REMARK    5  A    between atoms: C14_19  and  C15_20 
REMARK    6  A    between atoms: C16_21  and  C18_23 
REMARK    7  A    between atoms: C18_23  and  C19_24 
REMARK    8  A    between atoms: C22_27  and  O6_28 
ROOT
HETATM    1  C1  UNL     1       8.609  -3.142 -11.538  1.00  0.00     0.028 C 
HETATM    2  C2  UNL     1       9.774  -3.351 -12.114  1.00  0.00     0.037 C 
HETATM    3  C3  UNL     1      10.501  -2.150 -12.626  1.00  0.00     0.291 C 
HETATM    4  O1  UNL     1       9.694  -1.198 -12.951  1.00  0.00    -0.260 OA
HETATM    5  O2  UNL     1      11.838  -2.138 -12.711  1.00  0.00    -0.317 OA
HETATM    6  C4  UNL     1      12.926  -1.764 -12.007  1.00  0.00     0.187 C 
HETATM    7  C5  UNL     1      13.088  -2.237 -10.594  1.00  0.00    -0.025 C 
HETATM    8  C6  UNL     1      14.491  -1.750 -10.167  1.00  0.00     0.017 C 
HETATM    9  C7  UNL     1      12.149  -1.547  -9.635  1.00  0.00     0.017 C 
HETATM   10  C8  UNL     1      13.108  -3.737 -10.440  1.00  0.00     0.013 C 
HETATM   11  C9  UNL     1      11.960  -4.280  -9.659  1.00  0.00     0.034 C 
HETATM   12  C10 UNL     1      11.519  -5.606 -10.257  1.00  0.00     0.144 C 
HETATM   13  C14 UNL     1      10.182  -5.511 -10.910  1.00  0.00     0.072 C 
HETATM   14  C22 UNL     1      10.280  -4.713 -12.235  1.00  0.00     0.166 C 
ENDROOT
BRANCH  13  15
HETATM   15  C15 UNL     1       9.648  -6.845 -11.201  1.00  0.00    -0.002 C 
HETATM   16  C16 UNL     1       8.725  -7.533 -10.551  1.00  0.00    -0.024 C 
HETATM   17  C17 UNL     1       8.394  -8.910 -11.149  1.00  0.00     0.057 C 
BRANCH  16  18
HETATM   18  C18 UNL     1       8.167  -7.143  -9.321  1.00  0.00    -0.145 C 
BRANCH  18  19
HETATM   19  C19 UNL     1       7.672  -6.796  -8.229  1.00  0.00     0.049 C 
HETATM   20  C20 UNL     1       8.180  -5.620  -7.421  1.00  0.00     0.022 C 
HETATM   21  C21 UNL     1       6.535  -7.489  -7.525  1.00  0.00     0.022 C 
ENDBRANCH  18  19
ENDBRANCH  16  18
ENDBRANCH  13  15
BRANCH  12  22
HETATM   22  O3  UNL     1      12.518  -6.202 -11.053  1.00  0.00    -0.292 OA
BRANCH  22  23
HETATM   23  C11 UNL     1      13.077  -7.440 -10.716  1.00  0.00     0.406 C 
HETATM   24  O4  UNL     1      12.872  -8.395 -11.498  1.00  0.00    -0.229 OA
BRANCH  23  25
HETATM   25  O5  UNL     1      13.839  -7.597  -9.544  1.00  0.00    -0.298 OA
BRANCH  25  26
HETATM   26  C12 UNL     1      15.203  -7.948  -9.791  1.00  0.00     0.176 C 
HETATM   27  C13 UNL     1      15.657  -9.095  -8.954  1.00  0.00     0.034 C 
ENDBRANCH  25  26
ENDBRANCH  23  25
ENDBRANCH  22  23
ENDBRANCH  12  22
BRANCH  14  28
HETATM   28  O6  UNL     1       9.366  -5.372 -13.101  1.00  0.00    -0.390 OA
ATOM     29  H6  UNL     1       9.835  -5.477 -13.921  1.00  0.00     0.210 HD
ENDBRANCH  14  28
TORSDOF 8
ENDMDL
MODEL 5
REMARK VINA RESULT: -5.787465167      1.793      2.433
REMARK  8 active torsions:
REMARK  status: ('A' for Active; 'I' for Inactive)
REMARK    1  A    between atoms: C10_12  and  O3_13 
REMARK    2  A    between atoms: O3_13  and  C11_14 
REMARK    3  A    between atoms: C11_14  and  O5_16 
REMARK    4  A    between atoms: O5_16  and  C12_17 
REMARK    5  A    between atoms: C14_19  and  C15_20 
REMARK    6  A    between atoms: C16_21  and  C18_23 
REMARK    7  A    between atoms: C18_23  and  C19_24 
REMARK    8  A    between atoms: C22_27  and  O6_28 
ROOT
HETATM    1  C1  UNL     1      13.700  -2.373  -5.694  1.00  0.00     0.028 C 
HETATM    2  C2  UNL     1      12.757  -1.895  -6.478  1.00  0.00     0.037 C 
HETATM    3  C3  UNL     1      13.118  -0.726  -7.335  1.00  0.00     0.291 C 
HETATM    4  O1  UNL     1      14.052  -0.009  -6.809  1.00  0.00    -0.260 OA
HETATM    5  O2  UNL     1      12.497  -0.509  -8.503  1.00  0.00    -0.317 OA
HETATM    6  C4  UNL     1      12.631  -0.764  -9.820  1.00  0.00     0.187 C 
HETATM    7  C5  UNL     1      12.857  -2.172 -10.279  1.00  0.00    -0.025 C 
HETATM    8  C6  UNL     1      12.810  -2.104 -11.823  1.00  0.00     0.017 C 
HETATM    9  C7  UNL     1      14.247  -2.672  -9.974  1.00  0.00     0.017 C 
HETATM   10  C8  UNL     1      11.770  -3.138  -9.877  1.00  0.00     0.013 C 
HETATM   11  C9  UNL     1      12.225  -4.204  -8.939  1.00  0.00     0.034 C 
HETATM   12  C10 UNL     1      11.125  -4.502  -7.935  1.00  0.00     0.144 C 
HETATM   13  C14 UNL     1      11.484  -4.052  -6.558  1.00  0.00     0.072 C 
HETATM   14  C22 UNL     1      11.433  -2.507  -6.462  1.00  0.00     0.166 C 
ENDROOT
BRANCH  13  15
HETATM   15  C15 UNL     1      10.561  -4.617  -5.568  1.00  0.00    -0.002 C 
HETATM   16  C16 UNL     1      10.832  -5.329  -4.488  1.00  0.00    -0.024 C 
HETATM   17  C17 UNL     1       9.608  -5.750  -3.659  1.00  0.00     0.057 C 
BRANCH  16  18
HETATM   18  C18 UNL     1      12.110  -5.813  -4.160  1.00  0.00    -0.145 C 
BRANCH  18  19
HETATM   19  C19 UNL     1      13.246  -6.244  -3.868  1.00  0.00     0.049 C 
HETATM   20  C20 UNL     1      13.672  -7.680  -4.089  1.00  0.00     0.022 C 
HETATM   21  C21 UNL     1      14.349  -5.440  -3.232  1.00  0.00     0.022 C 
ENDBRANCH  18  19
ENDBRANCH  16  18
ENDBRANCH  13  15
BRANCH  12  22
HETATM   22  O3  UNL     1       9.855  -4.078  -8.376  1.00  0.00    -0.292 OA
BRANCH  22  23
HETATM   23  C11 UNL     1       8.876  -4.995  -8.772  1.00  0.00     0.406 C 
HETATM   24  O4  UNL     1       8.086  -5.406  -7.893  1.00  0.00    -0.229 OA
BRANCH  23  25
HETATM   25  O5  UNL     1       8.789  -5.434 -10.105  1.00  0.00    -0.298 OA
BRANCH  25  26
HETATM   26  C12 UNL     1       9.131  -6.811 -10.278  1.00  0.00     0.176 C 
HETATM   27  C13 UNL     1      10.526  -6.994 -10.773  1.00  0.00     0.034 C 
ENDBRANCH  25  26
ENDBRANCH  23  25
ENDBRANCH  22  23
ENDBRANCH  12  22
BRANCH  14  28
HETATM   28  O6  UNL     1      10.928  -2.260  -5.157  1.00  0.00    -0.390 OA
ATOM     29  H6  UNL     1      10.123  -2.761  -5.105  1.00  0.00     0.210 HD
ENDBRANCH  14  28
TORSDOF 8
ENDMDL
