MODEL 1
REMARK VINA RESULT: -8.344459154      0.000      0.000
REMARK  5 active torsions:
REMARK  status: ('A' for Active; 'I' for Inactive)
REMARK    1  A    between atoms: C2_2  and  O1_4 
REMARK    2  A    between atoms: O1_4  and  C4_5 
REMARK       I    between atoms: C4_5  and  N1_7 
REMARK       I    between atoms: N1_7  and  C5_8 
REMARK       I    between atoms: C5_8  and  N2_9 
REMARK       I    between atoms: C5_8  and  N4_19 
REMARK    3  A    between atoms: N2_9  and  N3_11 
REMARK    4  A    between atoms: C6_13  and  C7_14 
REMARK    5  A    between atoms: N4_19  and  C11_21 
ROOT
HETATM    1  C4  UNL     1      17.972  -6.082  -2.554  1.00  0.00     0.443 C 
HETATM    2  O2  UNL     1      18.953  -5.998  -3.382  1.00  0.00    -0.221 OA
HETATM    3  N1  UNL     1      17.133  -5.092  -2.396  1.00  0.00    -0.309 NA
HETATM    4  C5  UNL     1      16.390  -4.170  -2.284  1.00  0.00     0.276 C 
HETATM    5  N2  UNL     1      15.311  -4.146  -1.342  1.00  0.00    -0.260 N 
ATOM      6  H2  UNL     1      15.522  -3.960  -0.362  1.00  0.00     0.191 HD
HETATM    7  N4  UNL     1      16.511  -2.982  -3.095  1.00  0.00    -0.340 N 
ATOM      8  H4  UNL     1      15.959  -2.913  -3.950  1.00  0.00     0.164 HD
ENDROOT
BRANCH   5   9
HETATM    9  N3  UNL     1      13.981  -4.366  -1.712  1.00  0.00    -0.307 N 
HETATM   10  C6  UNL     1      13.677  -5.117  -2.700  1.00  0.00     0.126 C 
ATOM     11  H3  UNL     1      13.235  -3.917  -1.180  1.00  0.00     0.186 HD
BRANCH  10  12
HETATM   12  C7  UNL     1      12.247  -5.291  -3.017  1.00  0.00     0.021 A 
HETATM   13  C8  UNL     1      11.233  -5.724  -2.205  1.00  0.00     0.021 A 
HETATM   14  C9  UNL     1      10.008  -5.796  -2.737  1.00  0.00     0.008 A 
HETATM   15  C10 UNL     1       9.865  -5.433  -4.048  1.00  0.00     0.050 A 
HETATM   16  S1  UNL     1      11.454  -5.001  -4.496  1.00  0.00    -0.101 SA
ENDBRANCH  10  12
ENDBRANCH   5   9
BRANCH   7  17
HETATM   17  C11 UNL     1      17.375  -1.898  -2.744  1.00  0.00     0.035 C 
HETATM   18  C12 UNL     1      16.532  -0.749  -2.245  1.00  0.00     0.035 C 
HETATM   19  C13 UNL     1      17.369   0.479  -1.995  1.00  0.00    -0.012 C 
HETATM   20  C14 UNL     1      18.047   0.843  -3.295  1.00  0.00     0.009 C 
HETATM   21  C18 UNL     1      18.359   0.149  -0.903  1.00  0.00     0.009 C 
HETATM   22  C15 UNL     1      18.988  -0.248  -3.707  1.00  0.00    -0.012 C 
HETATM   23  C16 UNL     1      19.962  -0.576  -2.590  1.00  0.00     0.009 C 
HETATM   24  C20 UNL     1      18.185  -1.506  -3.965  1.00  0.00     0.035 C 
HETATM   25  C17 UNL     1      19.202  -1.042  -1.362  1.00  0.00    -0.012 C 
HETATM   26  C19 UNL     1      18.347  -2.252  -1.642  1.00  0.00     0.035 C 
ENDBRANCH   7  17
BRANCH   1  27
HETATM   27  O1  UNL     1      17.958  -7.333  -1.891  1.00  0.00    -0.288 OA
BRANCH  27  28
HETATM   28  C2  UNL     1      16.980  -8.306  -2.097  1.00  0.00     0.126 C 
HETATM   29  C1  UNL     1      15.768  -7.937  -1.270  1.00  0.00     0.040 C 
HETATM   30  C3  UNL     1      16.539  -8.382  -3.549  1.00  0.00     0.040 C 
ENDBRANCH  27  28
ENDBRANCH   1  27
TORSDOF 5
ENDMDL
MODEL 2
REMARK VINA RESULT: -8.141952997      0.194      1.437
REMARK  5 active torsions:
REMARK  status: ('A' for Active; 'I' for Inactive)
REMARK    1  A    between atoms: C2_2  and  O1_4 
REMARK    2  A    between atoms: O1_4  and  C4_5 
REMARK       I    between atoms: C4_5  and  N1_7 
REMARK       I    between atoms: N1_7  and  C5_8 
REMARK       I    between atoms: C5_8  and  N2_9 
REMARK       I    between atoms: C5_8  and  N4_19 
REMARK    3  A    between atoms: N2_9  and  N3_11 
REMARK    4  A    between atoms: C6_13  and  C7_14 
REMARK    5  A    between atoms: N4_19  and  C11_21 
ROOT
HETATM    1  C4  UNL     1      17.941  -5.863  -2.546  1.00  0.00     0.443 C 
HETATM    2  O2  UNL     1      18.941  -5.765  -3.350  1.00  0.00    -0.221 OA
HETATM    3  N1  UNL     1      17.074  -4.893  -2.422  1.00  0.00    -0.309 NA
HETATM    4  C5  UNL     1      16.307  -3.988  -2.342  1.00  0.00     0.276 C 
HETATM    5  N2  UNL     1      15.203  -3.979  -1.429  1.00  0.00    -0.260 N 
ATOM      6  H2  UNL     1      15.383  -3.777  -0.446  1.00  0.00     0.191 HD
HETATM    7  N4  UNL     1      16.420  -2.807  -3.164  1.00  0.00    -0.340 N 
ATOM      8  H4  UNL     1      15.889  -2.762  -4.034  1.00  0.00     0.164 HD
ENDROOT
BRANCH   5   9
HETATM    9  N3  UNL     1      13.889  -4.237  -1.830  1.00  0.00    -0.307 N 
HETATM   10  C6  UNL     1      13.626  -5.063  -2.768  1.00  0.00     0.126 C 
ATOM     11  H3  UNL     1      13.121  -3.754  -1.363  1.00  0.00     0.186 HD
BRANCH  10  12
HETATM   12  C7  UNL     1      12.210  -5.272  -3.124  1.00  0.00     0.021 A 
HETATM   13  C8  UNL     1      11.193  -5.765  -2.352  1.00  0.00     0.021 A 
HETATM   14  C9  UNL     1       9.984  -5.858  -2.914  1.00  0.00     0.008 A 
HETATM   15  C10 UNL     1       9.857  -5.453  -4.215  1.00  0.00     0.050 A 
HETATM   16  S1  UNL     1      11.441  -4.954  -4.611  1.00  0.00    -0.101 SA
ENDBRANCH  10  12
ENDBRANCH   5   9
BRANCH   7  17
HETATM   17  C11 UNL     1      17.247  -1.698  -2.805  1.00  0.00     0.035 C 
HETATM   18  C12 UNL     1      18.026  -1.260  -4.023  1.00  0.00     0.035 C 
HETATM   19  C13 UNL     1      19.026  -0.187  -3.679  1.00  0.00    -0.012 C 
HETATM   20  C14 UNL     1      19.955  -0.748  -2.628  1.00  0.00     0.009 C 
HETATM   21  C18 UNL     1      18.260   1.018  -3.187  1.00  0.00     0.009 C 
HETATM   22  C15 UNL     1      19.192  -1.047  -1.374  1.00  0.00    -0.012 C 
HETATM   23  C16 UNL     1      18.416   0.172  -0.906  1.00  0.00     0.009 C 
HETATM   24  C20 UNL     1      18.169  -2.121  -1.677  1.00  0.00     0.035 C 
HETATM   25  C17 UNL     1      17.427   0.596  -1.975  1.00  0.00    -0.012 C 
HETATM   26  C19 UNL     1      16.455  -0.502  -2.327  1.00  0.00     0.035 C 
ENDBRANCH   7  17
BRANCH   1  27
HETATM   27  O1  UNL     1      17.941  -7.106  -1.868  1.00  0.00    -0.288 OA
BRANCH  27  28
HETATM   28  C2  UNL     1      17.034  -8.131  -2.135  1.00  0.00     0.126 C 
HETATM   29  C1  UNL     1      15.792  -7.889  -1.305  1.00  0.00     0.040 C 
HETATM   30  C3  UNL     1      16.612  -8.162  -3.594  1.00  0.00     0.040 C 
ENDBRANCH  27  28
ENDBRANCH   1  27
TORSDOF 5
ENDMDL
MODEL 3
REMARK VINA RESULT: -8.114204055      3.073      3.868
REMARK  5 active torsions:
REMARK  status: ('A' for Active; 'I' for Inactive)
REMARK    1  A    between atoms: C2_2  and  O1_4 
REMARK    2  A    between atoms: O1_4  and  C4_5 
REMARK       I    between atoms: C4_5  and  N1_7 
REMARK       I    between atoms: N1_7  and  C5_8 
REMARK       I    between atoms: C5_8  and  N2_9 
REMARK       I    between atoms: C5_8  and  N4_19 
REMARK    3  A    between atoms: N2_9  and  N3_11 
REMARK    4  A    between atoms: C6_13  and  C7_14 
REMARK    5  A    between atoms: N4_19  and  C11_21 
ROOT
HETATM    1  C4  UNL     1      17.563  -3.301  -1.863  1.00  0.00     0.443 C 
HETATM    2  O2  UNL     1      18.816  -3.421  -1.596  1.00  0.00    -0.221 OA
HETATM    3  N1  UNL     1      17.084  -2.204  -2.389  1.00  0.00    -0.309 NA
HETATM    4  C5  UNL     1      16.690  -1.191  -2.870  1.00  0.00     0.276 C 
HETATM    5  N2  UNL     1      15.305  -0.941  -3.140  1.00  0.00    -0.260 N 
ATOM      6  H2  UNL     1      14.694  -0.688  -2.364  1.00  0.00     0.191 HD
HETATM    7  N4  UNL     1      17.579  -0.112  -3.229  1.00  0.00    -0.340 N 
ATOM      8  H4  UNL     1      17.926  -0.059  -4.187  1.00  0.00     0.164 HD
ENDROOT
BRANCH   5   9
HETATM    9  N3  UNL     1      14.758  -1.030  -4.423  1.00  0.00    -0.307 N 
HETATM   10  C6  UNL     1      13.662  -1.648  -4.640  1.00  0.00     0.126 C 
ATOM     11  H3  UNL     1      15.245  -0.592  -5.205  1.00  0.00     0.186 HD
BRANCH  10  12
HETATM   12  C7  UNL     1      13.159  -1.691  -6.027  1.00  0.00     0.021 A 
HETATM   13  C8  UNL     1      13.597  -0.995  -7.122  1.00  0.00     0.021 A 
HETATM   14  C9  UNL     1      12.967  -1.214  -8.281  1.00  0.00     0.008 A 
HETATM   15  C10 UNL     1      11.937  -2.116  -8.282  1.00  0.00     0.050 A 
HETATM   16  S1  UNL     1      11.883  -2.629  -6.655  1.00  0.00    -0.101 SA
ENDBRANCH  10  12
ENDBRANCH   5   9
BRANCH   7  17
HETATM   17  C11 UNL     1      17.993   0.885  -2.292  1.00  0.00     0.035 C 
HETATM   18  C12 UNL     1      16.776   1.649  -1.828  1.00  0.00     0.035 C 
HETATM   19  C13 UNL     1      17.158   2.812  -0.948  1.00  0.00    -0.012 C 
HETATM   20  C14 UNL     1      18.073   3.708  -1.748  1.00  0.00     0.009 C 
HETATM   21  C18 UNL     1      17.828   2.256   0.286  1.00  0.00     0.009 C 
HETATM   22  C15 UNL     1      19.341   2.981  -2.082  1.00  0.00    -0.012 C 
HETATM   23  C16 UNL     1      19.990   2.417  -0.831  1.00  0.00     0.009 C 
HETATM   24  C20 UNL     1      19.001   1.798  -2.965  1.00  0.00     0.035 C 
HETATM   25  C17 UNL     1      19.045   1.441  -0.155  1.00  0.00    -0.012 C 
HETATM   26  C19 UNL     1      18.651   0.302  -1.062  1.00  0.00     0.035 C 
ENDBRANCH   7  17
BRANCH   1  27
HETATM   27  O1  UNL     1      16.844  -4.470  -1.513  1.00  0.00    -0.288 OA
BRANCH  27  28
HETATM   28  C2  UNL     1      16.047  -5.184  -2.408  1.00  0.00     0.126 C 
HETATM   29  C1  UNL     1      16.146  -6.652  -2.059  1.00  0.00     0.040 C 
HETATM   30  C3  UNL     1      14.583  -4.788  -2.318  1.00  0.00     0.040 C 
ENDBRANCH  27  28
ENDBRANCH   1  27
TORSDOF 5
ENDMDL
MODEL 4
REMARK VINA RESULT: -8.084860848      3.121      4.158
REMARK  5 active torsions:
REMARK  status: ('A' for Active; 'I' for Inactive)
REMARK    1  A    between atoms: C2_2  and  O1_4 
REMARK    2  A    between atoms: O1_4  and  C4_5 
REMARK       I    between atoms: C4_5  and  N1_7 
REMARK       I    between atoms: N1_7  and  C5_8 
REMARK       I    between atoms: C5_8  and  N2_9 
REMARK       I    between atoms: C5_8  and  N4_19 
REMARK    3  A    between atoms: N2_9  and  N3_11 
REMARK    4  A    between atoms: C6_13  and  C7_14 
REMARK    5  A    between atoms: N4_19  and  C11_21 
ROOT
HETATM    1  C4  UNL     1      17.579  -3.144  -1.868  1.00  0.00     0.443 C 
HETATM    2  O2  UNL     1      18.831  -3.264  -1.598  1.00  0.00    -0.221 OA
HETATM    3  N1  UNL     1      17.109  -2.062  -2.433  1.00  0.00    -0.309 NA
HETATM    4  C5  UNL     1      16.723  -1.063  -2.950  1.00  0.00     0.276 C 
HETATM    5  N2  UNL     1      15.341  -0.812  -3.229  1.00  0.00    -0.260 N 
ATOM      6  H2  UNL     1      14.731  -0.527  -2.462  1.00  0.00     0.191 HD
HETATM    7  N4  UNL     1      17.621  -0.005  -3.346  1.00  0.00    -0.340 N 
ATOM      8  H4  UNL     1      17.968   0.011  -4.306  1.00  0.00     0.164 HD
ENDROOT
BRANCH   5   9
HETATM    9  N3  UNL     1      14.792  -0.942  -4.508  1.00  0.00    -0.307 N 
HETATM   10  C6  UNL     1      13.694  -1.563  -4.704  1.00  0.00     0.126 C 
ATOM     11  H3  UNL     1      15.281  -0.532  -5.304  1.00  0.00     0.186 HD
BRANCH  10  12
HETATM   12  C7  UNL     1      13.190  -1.651  -6.088  1.00  0.00     0.021 A 
HETATM   13  C8  UNL     1      13.602  -0.962  -7.198  1.00  0.00     0.021 A 
HETATM   14  C9  UNL     1      12.978  -1.226  -8.351  1.00  0.00     0.008 A 
HETATM   15  C10 UNL     1      11.979  -2.161  -8.331  1.00  0.00     0.050 A 
HETATM   16  S1  UNL     1      11.945  -2.643  -6.694  1.00  0.00    -0.101 SA
ENDBRANCH  10  12
ENDBRANCH   5   9
BRANCH   7  17
HETATM   17  C11 UNL     1      18.043   1.021  -2.446  1.00  0.00     0.035 C 
HETATM   18  C12 UNL     1      18.592   0.374  -1.196  1.00  0.00     0.035 C 
HETATM   19  C13 UNL     1      18.922   1.402  -0.144  1.00  0.00    -0.012 C 
HETATM   20  C14 UNL     1      17.653   2.162   0.165  1.00  0.00     0.009 C 
HETATM   21  C18 UNL     1      20.009   2.295  -0.694  1.00  0.00     0.009 C 
HETATM   22  C15 UNL     1      17.196   2.914  -1.047  1.00  0.00    -0.012 C 
HETATM   23  C16 UNL     1      18.308   3.792  -1.594  1.00  0.00     0.009 C 
HETATM   24  C20 UNL     1      16.858   1.916  -2.135  1.00  0.00     0.035 C 
HETATM   25  C17 UNL     1      19.496   2.934  -1.986  1.00  0.00    -0.012 C 
HETATM   26  C19 UNL     1      19.139   1.893  -3.017  1.00  0.00     0.035 C 
ENDBRANCH   7  17
BRANCH   1  27
HETATM   27  O1  UNL     1      16.851  -4.294  -1.477  1.00  0.00    -0.288 OA
BRANCH  27  28
HETATM   28  C2  UNL     1      16.059  -5.040  -2.350  1.00  0.00     0.126 C 
HETATM   29  C1  UNL     1      16.236  -6.504  -2.012  1.00  0.00     0.040 C 
HETATM   30  C3  UNL     1      14.582  -4.712  -2.211  1.00  0.00     0.040 C 
ENDBRANCH  27  28
ENDBRANCH   1  27
TORSDOF 5
ENDMDL
MODEL 5
REMARK VINA RESULT: -8.017911863      3.126      4.175
REMARK  5 active torsions:
REMARK  status: ('A' for Active; 'I' for Inactive)
REMARK    1  A    between atoms: C2_2  and  O1_4 
REMARK    2  A    between atoms: O1_4  and  C4_5 
REMARK       I    between atoms: C4_5  and  N1_7 
REMARK       I    between atoms: N1_7  and  C5_8 
REMARK       I    between atoms: C5_8  and  N2_9 
REMARK       I    between atoms: C5_8  and  N4_19 
REMARK    3  A    between atoms: N2_9  and  N3_11 
REMARK    4  A    between atoms: C6_13  and  C7_14 
REMARK    5  A    between atoms: N4_19  and  C11_21 
ROOT
HETATM    1  C4  UNL     1      17.569  -3.203  -1.818  1.00  0.00     0.443 C 
HETATM    2  O2  UNL     1      18.814  -3.266  -1.499  1.00  0.00    -0.221 OA
HETATM    3  N1  UNL     1      17.070  -2.141  -2.393  1.00  0.00    -0.309 NA
HETATM    4  C5  UNL     1      16.657  -1.157  -2.918  1.00  0.00     0.276 C 
HETATM    5  N2  UNL     1      15.276  -0.970  -3.250  1.00  0.00    -0.260 N 
ATOM      6  H2  UNL     1      14.624  -0.721  -2.506  1.00  0.00     0.191 HD
HETATM    7  N4  UNL     1      17.517  -0.053  -3.270  1.00  0.00    -0.340 N 
ATOM      8  H4  UNL     1      17.901  -0.011  -4.215  1.00  0.00     0.164 HD
ENDROOT
BRANCH   5   9
HETATM    9  N3  UNL     1      14.785  -1.115  -4.550  1.00  0.00    -0.307 N 
HETATM   10  C6  UNL     1      13.602  -1.541  -4.775  1.00  0.00     0.126 C 
ATOM     11  H3  UNL     1      15.386  -0.875  -5.339  1.00  0.00     0.186 HD
BRANCH  10  12
HETATM   12  C7  UNL     1      13.170  -1.662  -6.180  1.00  0.00     0.021 A 
HETATM   13  C8  UNL     1      13.631  -0.993  -7.282  1.00  0.00     0.021 A 
HETATM   14  C9  UNL     1      13.068  -1.286  -8.459  1.00  0.00     0.008 A 
HETATM   15  C10 UNL     1      12.077  -2.229  -8.470  1.00  0.00     0.050 A 
HETATM   16  S1  UNL     1      11.965  -2.677  -6.826  1.00  0.00    -0.101 SA
ENDBRANCH  10  12
ENDBRANCH   5   9
BRANCH   7  17
HETATM   17  C11 UNL     1      17.853   0.984  -2.346  1.00  0.00     0.035 C 
HETATM   18  C12 UNL     1      18.880   1.889  -2.985  1.00  0.00     0.035 C 
HETATM   19  C13 UNL     1      19.385   2.922  -2.010  1.00  0.00    -0.012 C 
HETATM   20  C14 UNL     1      19.984   2.185  -0.835  1.00  0.00     0.009 C 
HETATM   21  C18 UNL     1      18.217   3.791  -1.611  1.00  0.00     0.009 C 
HETATM   22  C15 UNL     1      18.923   1.401  -0.125  1.00  0.00    -0.012 C 
HETATM   23  C16 UNL     1      17.751   2.290   0.253  1.00  0.00     0.009 C 
HETATM   24  C20 UNL     1      18.383   0.351  -1.073  1.00  0.00     0.035 C 
HETATM   25  C17 UNL     1      17.140   2.895  -0.996  1.00  0.00    -0.012 C 
HETATM   26  C19 UNL     1      16.669   1.846  -1.972  1.00  0.00     0.035 C 
ENDBRANCH   7  17
BRANCH   1  27
HETATM   27  O1  UNL     1      16.883  -4.391  -1.465  1.00  0.00    -0.288 OA
BRANCH  27  28
HETATM   28  C2  UNL     1      16.134  -5.147  -2.366  1.00  0.00     0.126 C 
HETATM   29  C1  UNL     1      16.288  -6.606  -1.998  1.00  0.00     0.040 C 
HETATM   30  C3  UNL     1      14.653  -4.812  -2.307  1.00  0.00     0.040 C 
ENDBRANCH  27  28
ENDBRANCH   1  27
TORSDOF 5
ENDMDL
