MODEL 1
REMARK VINA RESULT: -10.129539575      0.000      0.000
REMARK  4 active torsions:
REMARK  status: ('A' for Active; 'I' for Inactive)
REMARK       I    between atoms: C1_2  and  N1_3 
REMARK    1  A    between atoms: C1_2  and  C16_19 
REMARK    2  A    between atoms: N1_3  and  C2_5 
REMARK    3  A    between atoms: C19_26  and  N4_27 
REMARK    4  A    between atoms: N4_27  and  C20_29 
ROOT
HETATM    1  O1  UNL     1      18.125   0.209  -3.310  1.00  0.00    -0.266 OA
HETATM    2  C1  UNL     1      17.104   0.517  -2.664  1.00  0.00     0.271 C 
HETATM    3  N1  UNL     1      16.160  -0.474  -2.334  1.00  0.00    -0.351 N 
ATOM      4  H1  UNL     1      15.329  -0.208  -1.805  1.00  0.00     0.163 HD
ENDROOT
BRANCH   2   5
HETATM    5  C16 UNL     1      16.908   1.899  -2.263  1.00  0.00     0.130 A 
HETATM    6  N2  UNL     1      15.798   2.589  -2.521  1.00  0.00    -0.346 N 
HETATM    7  C17 UNL     1      15.639   3.860  -2.144  1.00  0.00     0.180 A 
ATOM      8  H2  UNL     1      15.040   2.129  -3.026  1.00  0.00     0.167 HD
HETATM    9  N3  UNL     1      16.590   4.512  -1.484  1.00  0.00    -0.360 N 
HETATM   10  C18 UNL     1      17.730   3.876  -1.192  1.00  0.00     0.121 A 
ATOM     11  H3  UNL     1      16.452   5.483  -1.204  1.00  0.00     0.166 HD
HETATM   12  C19 UNL     1      17.921   2.575  -1.566  1.00  0.00     0.097 A 
BRANCH  12  13
HETATM   13  N4  UNL     1      19.131   1.878  -1.263  1.00  0.00    -0.186 N 
ATOM     14  H4  UNL     1      19.422   1.098  -1.853  1.00  0.00     0.184 HD
BRANCH  13  15
HETATM   15  C20 UNL     1      19.861   2.219  -0.258  1.00  0.00     0.704 A 
HETATM   16  N5  UNL     1      21.052   2.862  -0.238  1.00  0.00    -0.178 N 
HETATM   17  C21 UNL     1      21.422   2.994   1.049  1.00  0.00     0.276 A 
ATOM     18  H5  UNL     1      21.575   3.187  -1.051  1.00  0.00     0.185 HD
HETATM   19  O2  UNL     1      20.478   2.445   1.778  1.00  0.00    -0.218 OA
HETATM   20  N6  UNL     1      19.542   1.980   1.024  1.00  0.00    -0.090 N 
ATOM     21  H6  UNL     1      18.699   1.507   1.348  1.00  0.00     0.213 HD
ENDBRANCH  13  15
ENDBRANCH  12  13
ENDBRANCH   2   5
BRANCH   3  22
HETATM   22  C2  UNL     1      16.333  -1.881  -2.729  1.00  0.00     0.084 C 
HETATM   23  C3  UNL     1      17.213  -2.535  -1.714  1.00  0.00     0.025 C 
HETATM   24  C4  UNL     1      18.209  -3.422  -2.447  1.00  0.00     0.002 C 
HETATM   25  C5  UNL     1      18.803  -4.479  -1.563  1.00  0.00     0.000 C 
HETATM   26  C6  UNL     1      19.351  -5.642  -2.318  1.00  0.00     0.000 C 
HETATM   27  C7  UNL     1      18.348  -6.391  -3.134  1.00  0.00     0.000 C 
HETATM   28  C8  UNL     1      17.361  -7.153  -2.286  1.00  0.00     0.000 C 
HETATM   29  C9  UNL     1      16.310  -7.859  -3.069  1.00  0.00     0.000 C 
HETATM   30  C10 UNL     1      15.504  -7.018  -3.993  1.00  0.00     0.000 C 
HETATM   31  C11 UNL     1      14.014  -6.999  -3.629  1.00  0.00     0.000 C 
HETATM   32  C12 UNL     1      13.762  -6.048  -2.465  1.00  0.00     0.000 C 
HETATM   33  C13 UNL     1      13.673  -4.610  -2.912  1.00  0.00     0.000 C 
HETATM   34  C14 UNL     1      14.781  -3.828  -2.280  1.00  0.00     0.002 C 
HETATM   35  C15 UNL     1      14.982  -2.475  -2.898  1.00  0.00     0.025 C 
ENDBRANCH   3  22
TORSDOF 4
ENDMDL
MODEL 2
REMARK VINA RESULT: -9.818185255      1.731      3.409
REMARK  4 active torsions:
REMARK  status: ('A' for Active; 'I' for Inactive)
REMARK       I    between atoms: C1_2  and  N1_3 
REMARK    1  A    between atoms: C1_2  and  C16_19 
REMARK    2  A    between atoms: N1_3  and  C2_5 
REMARK    3  A    between atoms: C19_26  and  N4_27 
REMARK    4  A    between atoms: N4_27  and  C20_29 
ROOT
HETATM    1  O1  UNL     1      16.162   0.243  -1.883  1.00  0.00    -0.266 OA
HETATM    2  C1  UNL     1      17.394   0.084  -1.994  1.00  0.00     0.271 C 
HETATM    3  N1  UNL     1      17.933  -1.216  -2.022  1.00  0.00    -0.351 N 
ATOM      4  H1  UNL     1      18.942  -1.330  -2.114  1.00  0.00     0.163 HD
ENDROOT
BRANCH   2   5
HETATM    5  C16 UNL     1      18.253   1.252  -2.093  1.00  0.00     0.130 A 
HETATM    6  N2  UNL     1      19.143   1.428  -3.069  1.00  0.00    -0.346 N 
HETATM    7  C17 UNL     1      19.924   2.509  -3.141  1.00  0.00     0.180 A 
ATOM      8  H2  UNL     1      19.232   0.710  -3.788  1.00  0.00     0.167 HD
HETATM    9  N3  UNL     1      19.853   3.478  -2.235  1.00  0.00    -0.360 N 
HETATM   10  C18 UNL     1      18.978   3.363  -1.229  1.00  0.00     0.121 A 
ATOM     11  H3  UNL     1      20.457   4.296  -2.304  1.00  0.00     0.166 HD
HETATM   12  C19 UNL     1      18.167   2.268  -1.129  1.00  0.00     0.097 A 
BRANCH  12  13
HETATM   13  N4  UNL     1      17.226   2.126  -0.063  1.00  0.00    -0.186 N 
ATOM     14  H4  UNL     1      16.228   2.102  -0.273  1.00  0.00     0.184 HD
BRANCH  13  15
HETATM   15  C20 UNL     1      17.618   2.029   1.161  1.00  0.00     0.704 A 
HETATM   16  N5  UNL     1      16.891   1.818   2.283  1.00  0.00    -0.178 N 
HETATM   17  C21 UNL     1      17.745   1.793   3.322  1.00  0.00     0.276 A 
ATOM     18  H5  UNL     1      15.879   1.700   2.332  1.00  0.00     0.185 HD
HETATM   19  O2  UNL     1      18.949   1.984   2.835  1.00  0.00    -0.218 OA
HETATM   20  N6  UNL     1      18.898   2.126   1.555  1.00  0.00    -0.090 N 
ATOM     21  H6  UNL     1      19.697   2.285   0.942  1.00  0.00     0.213 HD
ENDBRANCH  13  15
ENDBRANCH  12  13
ENDBRANCH   2   5
BRANCH   3  22
HETATM   22  C2  UNL     1      17.085  -2.415  -1.922  1.00  0.00     0.084 C 
HETATM   23  C3  UNL     1      16.166  -2.424  -3.100  1.00  0.00     0.025 C 
HETATM   24  C4  UNL     1      14.780  -2.830  -2.619  1.00  0.00     0.002 C 
HETATM   25  C5  UNL     1      13.910  -3.344  -3.729  1.00  0.00     0.000 C 
HETATM   26  C6  UNL     1      12.790  -4.205  -3.253  1.00  0.00     0.000 C 
HETATM   27  C7  UNL     1      13.214  -5.447  -2.537  1.00  0.00     0.000 C 
HETATM   28  C8  UNL     1      13.862  -6.454  -3.453  1.00  0.00     0.000 C 
HETATM   29  C9  UNL     1      14.351  -7.676  -2.759  1.00  0.00     0.000 C 
HETATM   30  C10 UNL     1      15.304  -7.457  -1.638  1.00  0.00     0.000 C 
HETATM   31  C11 UNL     1      16.677  -8.091  -1.896  1.00  0.00     0.000 C 
HETATM   32  C12 UNL     1      17.501  -7.215  -2.834  1.00  0.00     0.000 C 
HETATM   33  C13 UNL     1      18.163  -6.070  -2.109  1.00  0.00     0.000 C 
HETATM   34  C14 UNL     1      17.636  -4.776  -2.644  1.00  0.00     0.002 C 
HETATM   35  C15 UNL     1      17.980  -3.593  -1.787  1.00  0.00     0.025 C 
ENDBRANCH   3  22
TORSDOF 4
ENDMDL
MODEL 3
REMARK VINA RESULT: -9.751904750      1.909      3.618
REMARK  4 active torsions:
REMARK  status: ('A' for Active; 'I' for Inactive)
REMARK       I    between atoms: C1_2  and  N1_3 
REMARK    1  A    between atoms: C1_2  and  C16_19 
REMARK    2  A    between atoms: N1_3  and  C2_5 
REMARK    3  A    between atoms: C19_26  and  N4_27 
REMARK    4  A    between atoms: N4_27  and  C20_29 
ROOT
HETATM    1  O1  UNL     1      15.853   0.847  -2.061  1.00  0.00    -0.266 OA
HETATM    2  C1  UNL     1      17.029   0.452  -2.188  1.00  0.00     0.271 C 
HETATM    3  N1  UNL     1      17.292  -0.923  -2.331  1.00  0.00    -0.351 N 
ATOM      4  H1  UNL     1      18.259  -1.233  -2.435  1.00  0.00     0.163 HD
ENDROOT
BRANCH   2   5
HETATM    5  C16 UNL     1      18.108   1.424  -2.186  1.00  0.00     0.130 A 
HETATM    6  N2  UNL     1      19.010   1.522  -3.162  1.00  0.00    -0.346 N 
HETATM    7  C17 UNL     1      19.995   2.423  -3.139  1.00  0.00     0.180 A 
ATOM      8  H2  UNL     1      18.946   0.884  -3.955  1.00  0.00     0.167 HD
HETATM    9  N3  UNL     1      20.129   3.280  -2.133  1.00  0.00    -0.360 N 
HETATM   10  C18 UNL     1      19.255   3.235  -1.122  1.00  0.00     0.121 A 
ATOM     11  H3  UNL     1      20.888   3.961  -2.132  1.00  0.00     0.166 HD
HETATM   12  C19 UNL     1      18.237   2.324  -1.117  1.00  0.00     0.097 A 
BRANCH  12  13
HETATM   13  N4  UNL     1      17.293   2.260  -0.046  1.00  0.00    -0.186 N 
ATOM     14  H4  UNL     1      16.296   2.338  -0.250  1.00  0.00     0.184 HD
BRANCH  13  15
HETATM   15  C20 UNL     1      17.680   2.105   1.173  1.00  0.00     0.704 A 
HETATM   16  N5  UNL     1      16.947   1.858   2.284  1.00  0.00    -0.178 N 
HETATM   17  C21 UNL     1      17.798   1.776   3.323  1.00  0.00     0.276 A 
ATOM     18  H5  UNL     1      15.933   1.754   2.326  1.00  0.00     0.185 HD
HETATM   19  O2  UNL     1      19.006   1.970   2.847  1.00  0.00    -0.218 OA
HETATM   20  N6  UNL     1      18.960   2.166   1.574  1.00  0.00    -0.090 N 
ATOM     21  H6  UNL     1      19.763   2.339   0.970  1.00  0.00     0.213 HD
ENDBRANCH  13  15
ENDBRANCH  12  13
ENDBRANCH   2   5
BRANCH   3  22
HETATM   22  C2  UNL     1      16.218  -1.929  -2.335  1.00  0.00     0.084 C 
HETATM   23  C3  UNL     1      15.605  -1.937  -3.698  1.00  0.00     0.025 C 
HETATM   24  C4  UNL     1      14.094  -2.023  -3.541  1.00  0.00     0.002 C 
HETATM   25  C5  UNL     1      13.411  -2.522  -4.780  1.00  0.00     0.000 C 
HETATM   26  C6  UNL     1      12.060  -3.099  -4.520  1.00  0.00     0.000 C 
HETATM   27  C7  UNL     1      12.049  -4.285  -3.611  1.00  0.00     0.000 C 
HETATM   28  C8  UNL     1      12.667  -5.507  -4.243  1.00  0.00     0.000 C 
HETATM   29  C9  UNL     1      12.727  -6.689  -3.340  1.00  0.00     0.000 C 
HETATM   30  C10 UNL     1      13.427  -6.490  -2.043  1.00  0.00     0.000 C 
HETATM   31  C11 UNL     1      14.664  -7.386  -1.894  1.00  0.00     0.000 C 
HETATM   32  C12 UNL     1      15.838  -6.806  -2.674  1.00  0.00     0.000 C 
HETATM   33  C13 UNL     1      16.540  -5.708  -1.915  1.00  0.00     0.000 C 
HETATM   34  C14 UNL     1      16.423  -4.427  -2.680  1.00  0.00     0.002 C 
HETATM   35  C15 UNL     1      16.799  -3.217  -1.876  1.00  0.00     0.025 C 
ENDBRANCH   3  22
TORSDOF 4
ENDMDL
MODEL 4
REMARK VINA RESULT: -9.380661196      2.083      2.497
REMARK  4 active torsions:
REMARK  status: ('A' for Active; 'I' for Inactive)
REMARK       I    between atoms: C1_2  and  N1_3 
REMARK    1  A    between atoms: C1_2  and  C16_19 
REMARK    2  A    between atoms: N1_3  and  C2_5 
REMARK    3  A    between atoms: C19_26  and  N4_27 
REMARK    4  A    between atoms: N4_27  and  C20_29 
ROOT
HETATM    1  O1  UNL     1      20.294  -0.649  -2.626  1.00  0.00    -0.266 OA
HETATM    2  C1  UNL     1      19.439   0.254  -2.714  1.00  0.00     0.271 C 
HETATM    3  N1  UNL     1      18.101  -0.076  -3.001  1.00  0.00    -0.351 N 
ATOM      4  H1  UNL     1      17.411   0.673  -3.069  1.00  0.00     0.163 HD
ENDROOT
BRANCH   2   5
HETATM    5  C16 UNL     1      19.843   1.635  -2.517  1.00  0.00     0.130 A 
HETATM    6  N2  UNL     1      20.179   2.452  -3.515  1.00  0.00    -0.346 N 
HETATM    7  C17 UNL     1      20.549   3.719  -3.311  1.00  0.00     0.180 A 
ATOM      8  H2  UNL     1      20.154   2.096  -4.470  1.00  0.00     0.167 HD
HETATM    9  N3  UNL     1      20.601   4.238  -2.090  1.00  0.00    -0.360 N 
HETATM   10  C18 UNL     1      20.275   3.471  -1.044  1.00  0.00     0.121 A 
ATOM     11  H3  UNL     1      20.887   5.207  -1.952  1.00  0.00     0.166 HD
HETATM   12  C19 UNL     1      19.893   2.172  -1.222  1.00  0.00     0.097 A 
BRANCH  12  13
HETATM   13  N4  UNL     1      19.540   1.335  -0.117  1.00  0.00    -0.186 N 
ATOM     14  H4  UNL     1      20.066   0.478   0.052  1.00  0.00     0.184 HD
BRANCH  13  15
HETATM   15  C20 UNL     1      18.568   1.648   0.669  1.00  0.00     0.704 A 
HETATM   16  N5  UNL     1      18.604   2.152   1.924  1.00  0.00    -0.178 N 
HETATM   17  C21 UNL     1      17.333   2.314   2.335  1.00  0.00     0.276 A 
ATOM     18  H5  UNL     1      19.443   2.369   2.462  1.00  0.00     0.185 HD
HETATM   19  O2  UNL     1      16.558   1.917   1.352  1.00  0.00    -0.218 OA
HETATM   20  N6  UNL     1      17.269   1.518   0.353  1.00  0.00    -0.090 N 
ATOM     21  H6  UNL     1      16.905   1.163  -0.531  1.00  0.00     0.213 HD
ENDBRANCH  13  15
ENDBRANCH  12  13
ENDBRANCH   2   5
BRANCH   3  22
HETATM   22  C2  UNL     1      17.666  -1.466  -3.207  1.00  0.00     0.084 C 
HETATM   23  C3  UNL     1      18.149  -2.273  -2.045  1.00  0.00     0.025 C 
HETATM   24  C4  UNL     1      18.690  -3.593  -2.575  1.00  0.00     0.002 C 
HETATM   25  C5  UNL     1      18.746  -4.660  -1.520  1.00  0.00     0.000 C 
HETATM   26  C6  UNL     1      18.765  -6.043  -2.077  1.00  0.00     0.000 C 
HETATM   27  C7  UNL     1      17.562  -6.410  -2.884  1.00  0.00     0.000 C 
HETATM   28  C8  UNL     1      16.319  -6.554  -2.042  1.00  0.00     0.000 C 
HETATM   29  C9  UNL     1      15.090  -6.858  -2.824  1.00  0.00     0.000 C 
HETATM   30  C10 UNL     1      14.750  -5.902  -3.911  1.00  0.00     0.000 C 
HETATM   31  C11 UNL     1      13.402  -5.205  -3.686  1.00  0.00     0.000 C 
HETATM   32  C12 UNL     1      13.549  -4.077  -2.672  1.00  0.00     0.000 C 
HETATM   33  C13 UNL     1      14.099  -2.818  -3.296  1.00  0.00     0.000 C 
HETATM   34  C14 UNL     1      15.416  -2.490  -2.667  1.00  0.00     0.002 C 
HETATM   35  C15 UNL     1      16.196  -1.455  -3.423  1.00  0.00     0.025 C 
ENDBRANCH   3  22
TORSDOF 4
ENDMDL
MODEL 5
REMARK VINA RESULT: -9.262236595      2.156      2.925
REMARK  4 active torsions:
REMARK  status: ('A' for Active; 'I' for Inactive)
REMARK       I    between atoms: C1_2  and  N1_3 
REMARK    1  A    between atoms: C1_2  and  C16_19 
REMARK    2  A    between atoms: N1_3  and  C2_5 
REMARK    3  A    between atoms: C19_26  and  N4_27 
REMARK    4  A    between atoms: N4_27  and  C20_29 
ROOT
HETATM    1  O1  UNL     1      19.848  -0.449  -2.638  1.00  0.00    -0.266 OA
HETATM    2  C1  UNL     1      19.124   0.567  -2.631  1.00  0.00     0.271 C 
HETATM    3  N1  UNL     1      17.741   0.441  -2.862  1.00  0.00    -0.351 N 
ATOM      4  H1  UNL     1      17.161   1.280  -2.853  1.00  0.00     0.163 HD
ENDROOT
BRANCH   2   5
HETATM    5  C16 UNL     1      19.726   1.865  -2.383  1.00  0.00     0.130 A 
HETATM    6  N2  UNL     1      20.088   2.704  -3.352  1.00  0.00    -0.346 N 
HETATM    7  C17 UNL     1      20.641   3.894  -3.102  1.00  0.00     0.180 A 
ATOM      8  H2  UNL     1      19.938   2.427  -4.323  1.00  0.00     0.167 HD
HETATM    9  N3  UNL     1      20.861   4.309  -1.859  1.00  0.00    -0.360 N 
HETATM   10  C18 UNL     1      20.519   3.514  -0.839  1.00  0.00     0.121 A 
ATOM     11  H3  UNL     1      21.285   5.220  -1.686  1.00  0.00     0.166 HD
HETATM   12  C19 UNL     1      19.952   2.291  -1.065  1.00  0.00     0.097 A 
BRANCH  12  13
HETATM   13  N4  UNL     1      19.579   1.427   0.011  1.00  0.00    -0.186 N 
ATOM     14  H4  UNL     1      20.097   0.561   0.162  1.00  0.00     0.184 HD
BRANCH  13  15
HETATM   15  C20 UNL     1      18.599   1.724   0.793  1.00  0.00     0.704 A 
HETATM   16  N5  UNL     1      18.622   2.240   2.044  1.00  0.00    -0.178 N 
HETATM   17  C21 UNL     1      17.347   2.377   2.452  1.00  0.00     0.276 A 
ATOM     18  H5  UNL     1      19.455   2.481   2.580  1.00  0.00     0.185 HD
HETATM   19  O2  UNL     1      16.583   1.954   1.472  1.00  0.00    -0.218 OA
HETATM   20  N6  UNL     1      17.304   1.563   0.477  1.00  0.00    -0.090 N 
ATOM     21  H6  UNL     1      16.949   1.191  -0.404  1.00  0.00     0.213 HD
ENDBRANCH  13  15
ENDBRANCH  12  13
ENDBRANCH   2   5
BRANCH   3  22
HETATM   22  C2  UNL     1      17.107  -0.862  -3.117  1.00  0.00     0.084 C 
HETATM   23  C3  UNL     1      17.198  -1.668  -1.862  1.00  0.00     0.025 C 
HETATM   24  C4  UNL     1      17.581  -3.093  -2.238  1.00  0.00     0.002 C 
HETATM   25  C5  UNL     1      17.233  -4.086  -1.168  1.00  0.00     0.000 C 
HETATM   26  C6  UNL     1      17.106  -5.483  -1.675  1.00  0.00     0.000 C 
HETATM   27  C7  UNL     1      16.037  -5.683  -2.700  1.00  0.00     0.000 C 
HETATM   28  C8  UNL     1      14.649  -5.556  -2.125  1.00  0.00     0.000 C 
HETATM   29  C9  UNL     1      13.563  -5.688  -3.133  1.00  0.00     0.000 C 
HETATM   30  C10 UNL     1      13.623  -4.756  -4.290  1.00  0.00     0.000 C 
HETATM   31  C11 UNL     1      12.408  -3.822  -4.361  1.00  0.00     0.000 C 
HETATM   32  C12 UNL     1      12.558  -2.676  -3.366  1.00  0.00     0.000 C 
HETATM   33  C13 UNL     1      13.440  -1.573  -3.896  1.00  0.00     0.000 C 
HETATM   34  C14 UNL     1      14.646  -1.443  -3.021  1.00  0.00     0.002 C 
HETATM   35  C15 UNL     1      15.735  -0.608  -3.628  1.00  0.00     0.025 C 
ENDBRANCH   3  22
TORSDOF 4
ENDMDL
