MODEL 1
REMARK VINA RESULT: -7.727353583      0.000      0.000
REMARK  5 active torsions:
REMARK  status: ('A' for Active; 'I' for Inactive)
REMARK    1  A    between atoms: N1_9  and  C9_10 
REMARK    2  A    between atoms: C9_10  and  C10_11 
REMARK    3  A    between atoms: C16_17  and  O1_18 
REMARK    4  A    between atoms: N2_20  and  C17_21 
REMARK    5  A    between atoms: C21_26  and  O2_27 
ROOT
HETATM    1  C1  UNL     1      15.642  -4.033  -0.801  1.00  0.00     0.010 C 
HETATM    2  C2  UNL     1      17.033  -3.471  -0.928  1.00  0.00    -0.012 C 
HETATM    3  C3  UNL     1      17.909  -4.581  -1.540  1.00  0.00     0.005 C 
HETATM    4  C4  UNL     1      18.712  -3.902  -2.667  1.00  0.00     0.006 C 
HETATM    5  C5  UNL     1      18.516  -2.494  -2.338  1.00  0.00     0.001 C 
HETATM    6  C6  UNL     1      18.780  -1.434  -3.352  1.00  0.00     0.030 C 
HETATM    7  C7  UNL     1      17.731  -1.291  -4.419  1.00  0.00     0.029 C 
HETATM    8  C8  UNL     1      16.594  -0.387  -4.101  1.00  0.00     0.123 C 
HETATM    9  N1  UNL     1      15.804  -0.712  -2.979  1.00  0.00    -0.384 N 
HETATM   10  C13 UNL     1      16.579  -1.118  -1.814  1.00  0.00     0.126 C 
HETATM   11  C14 UNL     1      17.624  -0.065  -1.730  1.00  0.00     0.027 A 
HETATM   12  C15 UNL     1      18.737  -0.191  -2.528  1.00  0.00     0.011 A 
HETATM   13  C16 UNL     1      19.530   0.897  -2.310  1.00  0.00     0.157 A 
HETATM   14  N2  UNL     1      18.915   1.670  -1.396  1.00  0.00    -0.265 N 
HETATM   15  C21 UNL     1      17.751   1.110  -1.024  1.00  0.00     0.158 A 
HETATM   16  C22 UNL     1      17.026  -2.488  -2.066  1.00  0.00     0.022 C 
ENDROOT
BRANCH  14  17
HETATM   17  C17 UNL     1      19.490   2.913  -0.938  1.00  0.00     0.084 A 
HETATM   18  C18 UNL     1      19.124   4.170  -1.338  1.00  0.00     0.038 A 
HETATM   19  C19 UNL     1      19.778   5.203  -0.797  1.00  0.00     0.010 A 
HETATM   20  C20 UNL     1      20.761   4.919   0.113  1.00  0.00     0.052 A 
HETATM   21  S1  UNL     1      20.739   3.214   0.182  1.00  0.00    -0.084 SA
ENDBRANCH  14  17
BRANCH  13  22
HETATM   22  O1  UNL     1      20.757   1.135  -2.938  1.00  0.00    -0.345 OA
ATOM     23  H1  UNL     1      21.516   1.528  -2.523  1.00  0.00     0.219 HD
ENDBRANCH  13  22
BRANCH  15  24
HETATM   24  O2  UNL     1      16.868   1.634  -0.105  1.00  0.00    -0.345 OA
ATOM     25  H2  UNL     1      16.408   2.464  -0.154  1.00  0.00     0.219 HD
ENDBRANCH  15  24
BRANCH   9  26
HETATM   26  C9  UNL     1      14.531  -1.238  -3.110  1.00  0.00     0.063 C 
BRANCH  26  27
HETATM   27  C10 UNL     1      14.201  -1.873  -4.423  1.00  0.00     0.024 A 
HETATM   28  C11 UNL     1      13.316  -3.119  -4.300  1.00  0.00     0.010 A 
HETATM   29  C12 UNL     1      12.821  -1.881  -4.976  1.00  0.00     0.010 A 
ENDBRANCH  26  27
ENDBRANCH   9  26
TORSDOF 5
ENDMDL
MODEL 2
REMARK VINA RESULT: -7.479715424      6.774      9.389
REMARK  5 active torsions:
REMARK  status: ('A' for Active; 'I' for Inactive)
REMARK    1  A    between atoms: N1_9  and  C9_10 
REMARK    2  A    between atoms: C9_10  and  C10_11 
REMARK    3  A    between atoms: C16_17  and  O1_18 
REMARK    4  A    between atoms: N2_20  and  C17_21 
REMARK    5  A    between atoms: C21_26  and  O2_27 
ROOT
HETATM    1  C1  UNL     1      11.203  -3.029  -6.235  1.00  0.00     0.010 C 
HETATM    2  C2  UNL     1      12.483  -3.267  -5.481  1.00  0.00    -0.012 C 
HETATM    3  C3  UNL     1      12.928  -1.905  -4.915  1.00  0.00     0.005 C 
HETATM    4  C4  UNL     1      13.292  -2.166  -3.440  1.00  0.00     0.006 C 
HETATM    5  C5  UNL     1      13.389  -3.622  -3.431  1.00  0.00     0.001 C 
HETATM    6  C6  UNL     1      13.344  -4.378  -2.148  1.00  0.00     0.030 C 
HETATM    7  C7  UNL     1      11.981  -4.504  -1.525  1.00  0.00     0.029 C 
HETATM    8  C8  UNL     1      11.162  -5.660  -1.973  1.00  0.00     0.123 C 
HETATM    9  N1  UNL     1      10.845  -5.734  -3.346  1.00  0.00    -0.384 N 
HETATM   10  C13 UNL     1      11.968  -5.431  -4.224  1.00  0.00     0.126 C 
HETATM   11  C14 UNL     1      13.066  -6.251  -3.649  1.00  0.00     0.027 A 
HETATM   12  C15 UNL     1      13.757  -5.747  -2.573  1.00  0.00     0.011 A 
HETATM   13  C16 UNL     1      14.681  -6.678  -2.200  1.00  0.00     0.157 A 
HETATM   14  N2  UNL     1      14.558  -7.728  -3.033  1.00  0.00    -0.265 N 
HETATM   15  C21 UNL     1      13.581  -7.497  -3.927  1.00  0.00     0.158 A 
HETATM   16  C22 UNL     1      12.134  -3.978  -4.202  1.00  0.00     0.022 C 
ENDROOT
BRANCH  14  17
HETATM   17  C17 UNL     1      15.393  -8.900  -2.911  1.00  0.00     0.084 A 
HETATM   18  C18 UNL     1      15.741  -9.528  -1.745  1.00  0.00     0.038 A 
HETATM   19  C19 UNL     1      16.527 -10.605  -1.837  1.00  0.00     0.010 A 
HETATM   20  C20 UNL     1      16.920 -10.992  -3.091  1.00  0.00     0.052 A 
HETATM   21  S1  UNL     1      16.178  -9.835  -4.101  1.00  0.00    -0.084 SA
ENDBRANCH  14  17
BRANCH  13  22
HETATM   22  O1  UNL     1      15.581  -6.536  -1.139  1.00  0.00    -0.345 OA
ATOM     23  H1  UNL     1      16.525  -6.471  -1.228  1.00  0.00     0.219 HD
ENDBRANCH  13  22
BRANCH  15  24
HETATM   24  O2  UNL     1      13.188  -8.362  -4.926  1.00  0.00    -0.345 OA
ATOM     25  H2  UNL     1      13.347  -9.298  -4.975  1.00  0.00     0.219 HD
ENDBRANCH  15  24
BRANCH   9  26
HETATM   26  C9  UNL     1       9.575  -5.455  -3.819  1.00  0.00     0.063 C 
BRANCH  26  27
HETATM   27  C10 UNL     1       9.216  -6.030  -5.151  1.00  0.00     0.024 A 
HETATM   28  C11 UNL     1       7.715  -6.298  -5.323  1.00  0.00     0.010 A 
HETATM   29  C12 UNL     1       8.420  -5.273  -6.153  1.00  0.00     0.010 A 
ENDBRANCH  26  27
ENDBRANCH   9  26
TORSDOF 5
ENDMDL
MODEL 3
REMARK VINA RESULT: -7.145474085      2.947      6.816
REMARK  5 active torsions:
REMARK  status: ('A' for Active; 'I' for Inactive)
REMARK    1  A    between atoms: N1_9  and  C9_10 
REMARK    2  A    between atoms: C9_10  and  C10_11 
REMARK    3  A    between atoms: C16_17  and  O1_18 
REMARK    4  A    between atoms: N2_20  and  C17_21 
REMARK    5  A    between atoms: C21_26  and  O2_27 
ROOT
HETATM    1  C1  UNL     1      19.033   5.203  -1.079  1.00  0.00     0.010 C 
HETATM    2  C2  UNL     1      19.018   4.316  -2.295  1.00  0.00    -0.012 C 
HETATM    3  C3  UNL     1      20.398   4.453  -2.966  1.00  0.00     0.005 C 
HETATM    4  C4  UNL     1      20.858   3.014  -3.270  1.00  0.00     0.006 C 
HETATM    5  C5  UNL     1      19.604   2.283  -3.113  1.00  0.00     0.001 C 
HETATM    6  C6  UNL     1      19.605   0.804  -2.931  1.00  0.00     0.030 C 
HETATM    7  C7  UNL     1      20.010   0.327  -1.563  1.00  0.00     0.029 C 
HETATM    8  C8  UNL     1      18.919   0.223  -0.558  1.00  0.00     0.123 C 
HETATM    9  N1  UNL     1      18.218   1.405  -0.242  1.00  0.00    -0.384 N 
HETATM   10  C13 UNL     1      17.873   2.212  -1.405  1.00  0.00     0.126 C 
HETATM   11  C14 UNL     1      17.297   1.211  -2.341  1.00  0.00     0.027 A 
HETATM   12  C15 UNL     1      18.163   0.463  -3.102  1.00  0.00     0.011 A 
HETATM   13  C16 UNL     1      17.418  -0.402  -3.850  1.00  0.00     0.157 A 
HETATM   14  N2  UNL     1      16.124  -0.184  -3.550  1.00  0.00    -0.265 N 
HETATM   15  C21 UNL     1      16.019   0.794  -2.633  1.00  0.00     0.158 A 
HETATM   16  C22 UNL     1      19.100   2.891  -1.821  1.00  0.00     0.022 C 
ENDROOT
BRANCH  14  17
HETATM   17  C17 UNL     1      15.061  -0.940  -4.169  1.00  0.00     0.084 A 
HETATM   18  C18 UNL     1      14.560  -0.751  -5.429  1.00  0.00     0.038 A 
HETATM   19  C19 UNL     1      13.571  -1.557  -5.827  1.00  0.00     0.010 A 
HETATM   20  C20 UNL     1      13.139  -2.508  -4.939  1.00  0.00     0.052 A 
HETATM   21  S1  UNL     1      14.132  -2.241  -3.578  1.00  0.00    -0.084 SA
ENDBRANCH  14  17
BRANCH  13  22
HETATM   22  O1  UNL     1      17.937  -1.333  -4.754  1.00  0.00    -0.345 OA
ATOM     23  H1  UNL     1      17.687  -1.405  -5.668  1.00  0.00     0.219 HD
ENDBRANCH  13  22
BRANCH  15  24
HETATM   24  O2  UNL     1      14.840   1.270  -2.103  1.00  0.00    -0.345 OA
ATOM     25  H2  UNL     1      14.432   2.112  -2.265  1.00  0.00     0.219 HD
ENDBRANCH  15  24
BRANCH   9  26
HETATM   26  C9  UNL     1      18.408   2.068   0.959  1.00  0.00     0.063 C 
BRANCH  26  27
HETATM   27  C10 UNL     1      17.419   1.784   2.043  1.00  0.00     0.024 A 
HETATM   28  C11 UNL     1      18.034   1.759   3.448  1.00  0.00     0.010 A 
HETATM   29  C12 UNL     1      17.038   2.804   3.056  1.00  0.00     0.010 A 
ENDBRANCH  26  27
ENDBRANCH   9  26
TORSDOF 5
ENDMDL
MODEL 4
REMARK VINA RESULT: -5.961098978      6.483      8.933
REMARK  5 active torsions:
REMARK  status: ('A' for Active; 'I' for Inactive)
REMARK    1  A    between atoms: N1_9  and  C9_10 
REMARK    2  A    between atoms: C9_10  and  C10_11 
REMARK    3  A    between atoms: C16_17  and  O1_18 
REMARK    4  A    between atoms: N2_20  and  C17_21 
REMARK    5  A    between atoms: C21_26  and  O2_27 
ROOT
HETATM    1  C1  UNL     1      11.601  -2.635  -7.930  1.00  0.00     0.010 C 
HETATM    2  C2  UNL     1      12.811  -2.749  -7.042  1.00  0.00    -0.012 C 
HETATM    3  C3  UNL     1      13.289  -1.312  -6.755  1.00  0.00     0.005 C 
HETATM    4  C4  UNL     1      13.536  -1.252  -5.234  1.00  0.00     0.006 C 
HETATM    5  C5  UNL     1      13.552  -2.673  -4.899  1.00  0.00     0.001 C 
HETATM    6  C6  UNL     1      13.377  -3.123  -3.489  1.00  0.00     0.030 C 
HETATM    7  C7  UNL     1      11.970  -3.055  -2.964  1.00  0.00     0.029 C 
HETATM    8  C8  UNL     1      11.121  -4.250  -3.212  1.00  0.00     0.123 C 
HETATM    9  N1  UNL     1      10.897  -4.615  -4.556  1.00  0.00    -0.384 N 
HETATM   10  C13 UNL     1      12.092  -4.557  -5.387  1.00  0.00     0.126 C 
HETATM   11  C14 UNL     1      13.101  -5.271  -4.562  1.00  0.00     0.027 A 
HETATM   12  C15 UNL     1      13.743  -4.567  -3.570  1.00  0.00     0.011 A 
HETATM   13  C16 UNL     1      14.587  -5.425  -2.930  1.00  0.00     0.157 A 
HETATM   14  N2  UNL     1      14.464  -6.629  -3.520  1.00  0.00    -0.265 N 
HETATM   15  C21 UNL     1      13.566  -6.566  -4.518  1.00  0.00     0.158 A 
HETATM   16  C22 UNL     1      12.336  -3.143  -5.670  1.00  0.00     0.022 C 
ENDROOT
BRANCH  14  17
HETATM   17  C17 UNL     1      15.224  -7.775  -3.079  1.00  0.00     0.084 A 
HETATM   18  C18 UNL     1      15.311  -8.243  -1.795  1.00  0.00     0.038 A 
HETATM   19  C19 UNL     1      16.068  -9.324  -1.583  1.00  0.00     0.010 A 
HETATM   20  C20 UNL     1      16.696  -9.875  -2.669  1.00  0.00     0.052 A 
HETATM   21  S1  UNL     1      16.206  -8.862  -3.951  1.00  0.00    -0.084 SA
ENDBRANCH  14  17
BRANCH  13  22
HETATM   22  O1  UNL     1      15.418  -5.085  -1.858  1.00  0.00    -0.345 OA
ATOM     23  H1  UNL     1      16.124  -4.450  -1.894  1.00  0.00     0.219 HD
ENDBRANCH  13  22
BRANCH  15  24
HETATM   24  O2  UNL     1      13.197  -7.616  -5.331  1.00  0.00    -0.345 OA
ATOM     25  H2  UNL     1      12.471  -8.216  -5.206  1.00  0.00     0.219 HD
ENDBRANCH  15  24
BRANCH   9  26
HETATM   26  C9  UNL     1       9.679  -4.400  -5.178  1.00  0.00     0.063 C 
BRANCH  26  27
HETATM   27  C10 UNL     1       9.081  -5.565  -5.899  1.00  0.00     0.024 A 
HETATM   28  C11 UNL     1       7.661  -5.913  -5.438  1.00  0.00     0.010 A 
HETATM   29  C12 UNL     1       7.926  -5.418  -6.824  1.00  0.00     0.010 A 
ENDBRANCH  26  27
ENDBRANCH   9  26
TORSDOF 5
ENDMDL
MODEL 5
REMARK VINA RESULT: -5.960025074      8.686     11.169
REMARK  5 active torsions:
REMARK  status: ('A' for Active; 'I' for Inactive)
REMARK    1  A    between atoms: N1_9  and  C9_10 
REMARK    2  A    between atoms: C9_10  and  C10_11 
REMARK    3  A    between atoms: C16_17  and  O1_18 
REMARK    4  A    between atoms: N2_20  and  C17_21 
REMARK    5  A    between atoms: C21_26  and  O2_27 
ROOT
HETATM    1  C1  UNL     1      11.577   1.638 -10.892  1.00  0.00     0.010 C 
HETATM    2  C2  UNL     1      10.622   0.526 -10.550  1.00  0.00    -0.012 C 
HETATM    3  C3  UNL     1       9.707   0.331 -11.774  1.00  0.00     0.005 C 
HETATM    4  C4  UNL     1       9.669  -1.190 -12.026  1.00  0.00     0.006 C 
HETATM    5  C5  UNL     1      10.207  -1.693 -10.767  1.00  0.00     0.001 C 
HETATM    6  C6  UNL     1      10.724  -3.087 -10.665  1.00  0.00     0.030 C 
HETATM    7  C7  UNL     1      12.072  -3.318 -11.289  1.00  0.00     0.029 C 
HETATM    8  C8  UNL     1      13.249  -3.060 -10.417  1.00  0.00     0.123 C 
HETATM    9  N1  UNL     1      13.401  -1.754  -9.908  1.00  0.00    -0.384 N 
HETATM   10  C13 UNL     1      12.160  -1.168  -9.414  1.00  0.00     0.126 C 
HETATM   11  C14 UNL     1      11.597  -2.255  -8.571  1.00  0.00     0.027 A 
HETATM   12  C15 UNL     1      10.890  -3.257  -9.192  1.00  0.00     0.011 A 
HETATM   13  C16 UNL     1      10.505  -4.149  -8.235  1.00  0.00     0.157 A 
HETATM   14  N2  UNL     1      10.967  -3.699  -7.053  1.00  0.00    -0.265 N 
HETATM   15  C21 UNL     1      11.636  -2.546  -7.227  1.00  0.00     0.158 A 
HETATM   16  C22 UNL     1      11.392  -0.766 -10.591  1.00  0.00     0.022 C 
ENDROOT
BRANCH  14  17
HETATM   17  C17 UNL     1      10.735  -4.416  -5.822  1.00  0.00     0.084 A 
HETATM   18  C18 UNL     1       9.522  -4.838  -5.346  1.00  0.00     0.038 A 
HETATM   19  C19 UNL     1       9.511  -5.491  -4.180  1.00  0.00     0.010 A 
HETATM   20  C20 UNL     1      10.715  -5.685  -3.556  1.00  0.00     0.052 A 
HETATM   21  S1  UNL     1      11.823  -4.946  -4.621  1.00  0.00    -0.084 SA
ENDBRANCH  14  17
BRANCH  13  22
HETATM   22  O1  UNL     1       9.765  -5.311  -8.471  1.00  0.00    -0.345 OA
ATOM     23  H1  UNL     1       8.890  -5.479  -8.139  1.00  0.00     0.219 HD
ENDBRANCH  13  22
BRANCH  15  24
HETATM   24  O2  UNL     1      12.240  -1.813  -6.228  1.00  0.00    -0.345 OA
ATOM     25  H2  UNL     1      12.614  -2.138  -5.418  1.00  0.00     0.219 HD
ENDBRANCH  15  24
BRANCH   9  26
HETATM   26  C9  UNL     1      14.363  -0.886 -10.396  1.00  0.00     0.063 C 
BRANCH  26  27
HETATM   27  C10 UNL     1      14.795  -1.095 -11.812  1.00  0.00     0.024 A 
HETATM   28  C11 UNL     1      14.345   0.019 -12.765  1.00  0.00     0.010 A 
HETATM   29  C12 UNL     1      15.793  -0.214 -12.474  1.00  0.00     0.010 A 
ENDBRANCH  26  27
ENDBRANCH   9  26
TORSDOF 5
ENDMDL
