MODEL 1
REMARK VINA RESULT: -7.784505991      0.000      0.000
REMARK  5 active torsions:
REMARK  status: ('A' for Active; 'I' for Inactive)
REMARK    1  A    between atoms: C3_4  and  C4_5 
REMARK    2  A    between atoms: C3_4  and  C10_11 
REMARK    3  A    between atoms: C10_11  and  C11_12 
REMARK    4  A    between atoms: C11_12  and  O2_13 
REMARK    5  A    between atoms: N1_15  and  O3_17 
ROOT
HETATM    1  O1  UNL     1      13.193  -7.485  -4.057  1.00  0.00    -0.290 OA
HETATM    2  C1  UNL     1      13.396  -6.349  -3.619  1.00  0.00     0.185 C 
HETATM    3  C2  UNL     1      14.569  -5.571  -3.211  1.00  0.00     0.057 C 
HETATM    4  C3  UNL     1      15.765  -5.892  -2.773  1.00  0.00    -0.011 C 
HETATM    5  S1  UNL     1      13.750  -4.018  -3.530  1.00  0.00    -0.107 SA
HETATM    6  C16 UNL     1      12.438  -5.249  -3.318  1.00  0.00     0.079 C 
HETATM    7  C17 UNL     1      11.432  -5.118  -4.414  1.00  0.00     0.029 C 
HETATM    8  C18 UNL     1      10.308  -6.109  -4.162  1.00  0.00     0.002 C 
HETATM    9  C19 UNL     1       9.626  -5.614  -2.880  1.00  0.00     0.000 C 
HETATM   10  C20 UNL     1      10.562  -5.791  -1.716  1.00  0.00     0.002 C 
HETATM   11  C21 UNL     1      11.926  -5.236  -1.935  1.00  0.00     0.029 C 
ENDROOT
BRANCH   4  12
HETATM   12  C4  UNL     1      16.007  -7.335  -2.655  1.00  0.00    -0.027 A 
HETATM   13  C5  UNL     1      15.854  -8.035  -1.516  1.00  0.00     0.012 A 
HETATM   14  C6  UNL     1      16.068  -9.423  -1.541  1.00  0.00     0.001 A 
HETATM   15  C7  UNL     1      16.422 -10.038  -2.704  1.00  0.00     0.000 A 
HETATM   16  C8  UNL     1      16.589  -9.356  -3.889  1.00  0.00     0.001 A 
HETATM   17  C9  UNL     1      16.369  -7.983  -3.830  1.00  0.00     0.012 A 
ENDBRANCH   4  12
BRANCH   4  18
HETATM   18  C10 UNL     1      16.747  -4.892  -2.402  1.00  0.00     0.059 C 
HETATM   19  C12 UNL     1      16.633  -4.593  -0.896  1.00  0.00     0.049 C 
HETATM   20  C13 UNL     1      16.367  -3.131  -0.654  1.00  0.00     0.169 C 
HETATM   21  O4  UNL     1      17.189  -2.268  -1.316  1.00  0.00    -0.391 OA
HETATM   22  C14 UNL     1      17.771  -2.710  -2.468  1.00  0.00     0.169 C 
HETATM   23  C15 UNL     1      16.703  -3.607  -3.169  1.00  0.00     0.049 C 
BRANCH  18  24
HETATM   24  C11 UNL     1      18.122  -5.413  -2.577  1.00  0.00     0.149 C 
HETATM   25  N1  UNL     1      18.606  -5.396  -3.782  1.00  0.00    -0.250 N 
ATOM     26  H1  UNL     1      18.024  -5.029  -4.534  1.00  0.00     0.196 HD
BRANCH  24  27
HETATM   27  O2  UNL     1      18.880  -5.897  -1.539  1.00  0.00    -0.347 OA
ATOM     28  H2  UNL     1      19.741  -5.560  -1.323  1.00  0.00     0.219 HD
ENDBRANCH  24  27
BRANCH  25  29
HETATM   29  O3  UNL     1      19.862  -5.847  -4.087  1.00  0.00    -0.288 OA
ATOM     30  H3  UNL     1      20.134  -6.748  -3.956  1.00  0.00     0.244 HD
ENDBRANCH  25  29
ENDBRANCH  18  24
ENDBRANCH   4  18
TORSDOF 5
ENDMDL
MODEL 2
REMARK VINA RESULT: -6.794197730      3.828      6.924
REMARK  5 active torsions:
REMARK  status: ('A' for Active; 'I' for Inactive)
REMARK    1  A    between atoms: C3_4  and  C4_5 
REMARK    2  A    between atoms: C3_4  and  C10_11 
REMARK    3  A    between atoms: C10_11  and  C11_12 
REMARK    4  A    between atoms: C11_12  and  O2_13 
REMARK    5  A    between atoms: N1_15  and  O3_17 
ROOT
HETATM    1  O1  UNL     1      15.463  -4.028  -2.545  1.00  0.00    -0.290 OA
HETATM    2  C1  UNL     1      16.573  -3.564  -2.269  1.00  0.00     0.185 C 
HETATM    3  C2  UNL     1      17.146  -2.224  -2.112  1.00  0.00     0.057 C 
HETATM    4  C3  UNL     1      16.831  -1.040  -2.586  1.00  0.00    -0.011 C 
HETATM    5  S1  UNL     1      18.439  -2.816  -1.035  1.00  0.00    -0.107 SA
HETATM    6  C16 UNL     1      17.856  -4.257  -1.966  1.00  0.00     0.079 C 
HETATM    7  C17 UNL     1      17.624  -5.405  -1.039  1.00  0.00     0.029 C 
HETATM    8  C18 UNL     1      17.213  -6.616  -1.861  1.00  0.00     0.002 C 
HETATM    9  C19 UNL     1      18.454  -6.967  -2.692  1.00  0.00     0.000 C 
HETATM   10  C20 UNL     1      18.702  -5.883  -3.704  1.00  0.00     0.002 C 
HETATM   11  C21 UNL     1      18.717  -4.505  -3.137  1.00  0.00     0.029 C 
ENDROOT
BRANCH   4  12
HETATM   12  C4  UNL     1      15.658  -1.025  -3.467  1.00  0.00    -0.027 A 
HETATM   13  C5  UNL     1      15.721  -0.889  -4.805  1.00  0.00     0.012 A 
HETATM   14  C6  UNL     1      14.530  -0.941  -5.548  1.00  0.00     0.001 A 
HETATM   15  C7  UNL     1      13.338  -1.126  -4.914  1.00  0.00     0.000 A 
HETATM   16  C8  UNL     1      13.233  -1.268  -3.547  1.00  0.00     0.001 A 
HETATM   17  C9  UNL     1      14.431  -1.213  -2.842  1.00  0.00     0.012 A 
ENDBRANCH   4  12
BRANCH   4  18
HETATM   18  C10 UNL     1      17.611   0.145  -2.285  1.00  0.00     0.059 C 
HETATM   19  C12 UNL     1      18.223   0.702  -3.584  1.00  0.00     0.049 C 
HETATM   20  C13 UNL     1      19.723   0.778  -3.484  1.00  0.00     0.169 C 
HETATM   21  O4  UNL     1      20.206   1.378  -2.359  1.00  0.00    -0.391 OA
HETATM   22  C14 UNL     1      19.413   1.366  -1.248  1.00  0.00     0.169 C 
HETATM   23  C15 UNL     1      18.687  -0.016  -1.256  1.00  0.00     0.049 C 
BRANCH  18  24
HETATM   24  C11 UNL     1      16.742   1.235  -1.784  1.00  0.00     0.149 C 
HETATM   25  N1  UNL     1      16.123   1.947  -2.677  1.00  0.00    -0.250 N 
ATOM     26  H1  UNL     1      16.265   1.723  -3.661  1.00  0.00     0.196 HD
BRANCH  24  27
HETATM   27  O2  UNL     1      16.572   1.506  -0.449  1.00  0.00    -0.347 OA
ATOM     28  H2  UNL     1      17.293   1.551   0.168  1.00  0.00     0.219 HD
ENDBRANCH  24  27
BRANCH  25  29
HETATM   29  O3  UNL     1      15.290   2.985  -2.355  1.00  0.00    -0.288 OA
ATOM     30  H3  UNL     1      14.405   3.061  -2.694  1.00  0.00     0.244 HD
ENDBRANCH  25  29
ENDBRANCH  18  24
ENDBRANCH   4  18
TORSDOF 5
ENDMDL
MODEL 3
REMARK VINA RESULT: -6.710433622      3.047      5.736
REMARK  5 active torsions:
REMARK  status: ('A' for Active; 'I' for Inactive)
REMARK    1  A    between atoms: C3_4  and  C4_5 
REMARK    2  A    between atoms: C3_4  and  C10_11 
REMARK    3  A    between atoms: C10_11  and  C11_12 
REMARK    4  A    between atoms: C11_12  and  O2_13 
REMARK    5  A    between atoms: N1_15  and  O3_17 
ROOT
HETATM    1  O1  UNL     1      13.903  -5.203  -2.750  1.00  0.00    -0.290 OA
HETATM    2  C1  UNL     1      15.102  -4.982  -2.562  1.00  0.00     0.185 C 
HETATM    3  C2  UNL     1      15.944  -3.790  -2.423  1.00  0.00     0.057 C 
HETATM    4  C3  UNL     1      15.837  -2.548  -2.838  1.00  0.00    -0.011 C 
HETATM    5  S1  UNL     1      17.174  -4.672  -1.478  1.00  0.00    -0.107 SA
HETATM    6  C16 UNL     1      16.240  -5.928  -2.389  1.00  0.00     0.079 C 
HETATM    7  C17 UNL     1      15.856  -7.044  -1.474  1.00  0.00     0.029 C 
HETATM    8  C18 UNL     1      15.144  -8.114  -2.286  1.00  0.00     0.002 C 
HETATM    9  C19 UNL     1      16.217  -8.670  -3.230  1.00  0.00     0.000 C 
HETATM   10  C20 UNL     1      16.595  -7.616  -4.234  1.00  0.00     0.002 C 
HETATM   11  C21 UNL     1      16.934  -6.294  -3.638  1.00  0.00     0.029 C 
ENDROOT
BRANCH   4  12
HETATM   12  C4  UNL     1      14.624  -2.264  -3.612  1.00  0.00    -0.027 A 
HETATM   13  C5  UNL     1      14.602  -2.097  -4.948  1.00  0.00     0.012 A 
HETATM   14  C6  UNL     1      13.369  -1.879  -5.583  1.00  0.00     0.001 A 
HETATM   15  C7  UNL     1      12.221  -1.839  -4.850  1.00  0.00     0.000 A 
HETATM   16  C8  UNL     1      12.203  -2.004  -3.482  1.00  0.00     0.001 A 
HETATM   17  C9  UNL     1      13.441  -2.219  -2.884  1.00  0.00     0.012 A 
ENDBRANCH   4  12
BRANCH   4  18
HETATM   18  C10 UNL     1      16.862  -1.556  -2.578  1.00  0.00     0.059 C 
HETATM   19  C12 UNL     1      18.110  -1.871  -3.424  1.00  0.00     0.049 C 
HETATM   20  C13 UNL     1      19.322  -2.052  -2.550  1.00  0.00     0.169 C 
HETATM   21  O4  UNL     1      19.530  -1.071  -1.625  1.00  0.00    -0.391 OA
HETATM   22  C14 UNL     1      18.443  -0.359  -1.207  1.00  0.00     0.169 C 
HETATM   23  C15 UNL     1      17.262  -1.379  -1.146  1.00  0.00     0.049 C 
BRANCH  18  24
HETATM   24  C11 UNL     1      16.427  -0.217  -3.039  1.00  0.00     0.149 C 
HETATM   25  N1  UNL     1      15.675   0.465  -2.229  1.00  0.00    -0.250 N 
ATOM     26  H1  UNL     1      15.426   0.050  -1.331  1.00  0.00     0.196 HD
BRANCH  24  27
HETATM   27  O2  UNL     1      16.784   0.312  -4.254  1.00  0.00    -0.347 OA
ATOM     28  H2  UNL     1      16.888   1.244  -4.406  1.00  0.00     0.219 HD
ENDBRANCH  24  27
BRANCH  25  29
HETATM   29  O3  UNL     1      15.201   1.714  -2.526  1.00  0.00    -0.288 OA
ATOM     30  H3  UNL     1      14.430   1.861  -3.062  1.00  0.00     0.244 HD
ENDBRANCH  25  29
ENDBRANCH  18  24
ENDBRANCH   4  18
TORSDOF 5
ENDMDL
MODEL 4
REMARK VINA RESULT: -6.589758663      2.339      5.858
REMARK  5 active torsions:
REMARK  status: ('A' for Active; 'I' for Inactive)
REMARK    1  A    between atoms: C3_4  and  C4_5 
REMARK    2  A    between atoms: C3_4  and  C10_11 
REMARK    3  A    between atoms: C10_11  and  C11_12 
REMARK    4  A    between atoms: C11_12  and  O2_13 
REMARK    5  A    between atoms: N1_15  and  O3_17 
ROOT
HETATM    1  O1  UNL     1      17.558  -4.989  -1.641  1.00  0.00    -0.290 OA
HETATM    2  C1  UNL     1      16.696  -4.184  -2.002  1.00  0.00     0.185 C 
HETATM    3  C2  UNL     1      15.269  -4.245  -2.333  1.00  0.00     0.057 C 
HETATM    4  C3  UNL     1      14.476  -5.201  -2.762  1.00  0.00    -0.011 C 
HETATM    5  S1  UNL     1      15.020  -2.524  -1.936  1.00  0.00    -0.107 SA
HETATM    6  C16 UNL     1      16.792  -2.719  -2.255  1.00  0.00     0.079 C 
HETATM    7  C17 UNL     1      17.583  -2.053  -1.177  1.00  0.00     0.029 C 
HETATM    8  C18 UNL     1      19.060  -2.168  -1.517  1.00  0.00     0.002 C 
HETATM    9  C19 UNL     1      19.240  -1.317  -2.781  1.00  0.00     0.000 C 
HETATM   10  C20 UNL     1      18.529  -1.975  -3.932  1.00  0.00     0.002 C 
HETATM   11  C21 UNL     1      17.117  -2.353  -3.647  1.00  0.00     0.029 C 
ENDROOT
BRANCH   4  12
HETATM   12  C4  UNL     1      15.134  -6.497  -2.965  1.00  0.00    -0.027 A 
HETATM   13  C5  UNL     1      15.773  -6.851  -4.095  1.00  0.00     0.012 A 
HETATM   14  C6  UNL     1      16.408  -8.102  -4.151  1.00  0.00     0.001 A 
HETATM   15  C7  UNL     1      16.371  -8.935  -3.073  1.00  0.00     0.000 A 
HETATM   16  C8  UNL     1      15.727  -8.609  -1.899  1.00  0.00     0.001 A 
HETATM   17  C9  UNL     1      15.109  -7.362  -1.877  1.00  0.00     0.012 A 
ENDBRANCH   4  12
BRANCH   4  18
HETATM   18  C10 UNL     1      13.073  -4.972  -3.047  1.00  0.00     0.059 C 
HETATM   19  C12 UNL     1      12.310  -4.754  -1.727  1.00  0.00     0.049 C 
HETATM   20  C13 UNL     1      11.196  -5.755  -1.576  1.00  0.00     0.169 C 
HETATM   21  O4  UNL     1      10.377  -5.890  -2.658  1.00  0.00    -0.391 OA
HETATM   22  C14 UNL     1      10.891  -5.567  -3.881  1.00  0.00     0.169 C 
HETATM   23  C15 UNL     1      12.382  -6.028  -3.853  1.00  0.00     0.049 C 
BRANCH  18  24
HETATM   24  C11 UNL     1      12.887  -3.710  -3.799  1.00  0.00     0.149 C 
HETATM   25  N1  UNL     1      12.311  -2.732  -3.169  1.00  0.00    -0.250 N 
ATOM     26  H1  UNL     1      12.020  -2.880  -2.203  1.00  0.00     0.196 HD
BRANCH  24  27
HETATM   27  O2  UNL     1      13.294  -3.545  -5.100  1.00  0.00    -0.347 OA
ATOM     28  H2  UNL     1      14.205  -3.446  -5.351  1.00  0.00     0.219 HD
ENDBRANCH  24  27
BRANCH  25  29
HETATM   29  O3  UNL     1      12.075  -1.511  -3.743  1.00  0.00    -0.288 OA
ATOM     30  H3  UNL     1      11.522  -0.851  -3.343  1.00  0.00     0.244 HD
ENDBRANCH  25  29
ENDBRANCH  18  24
ENDBRANCH   4  18
TORSDOF 5
ENDMDL
MODEL 5
REMARK VINA RESULT: -6.240804258      2.586      6.013
REMARK  5 active torsions:
REMARK  status: ('A' for Active; 'I' for Inactive)
REMARK    1  A    between atoms: C3_4  and  C4_5 
REMARK    2  A    between atoms: C3_4  and  C10_11 
REMARK    3  A    between atoms: C10_11  and  C11_12 
REMARK    4  A    between atoms: C11_12  and  O2_13 
REMARK    5  A    between atoms: N1_15  and  O3_17 
ROOT
HETATM    1  O1  UNL     1      16.829  -6.317  -3.602  1.00  0.00    -0.290 OA
HETATM    2  C1  UNL     1      15.656  -6.697  -3.551  1.00  0.00     0.185 C 
HETATM    3  C2  UNL     1      14.338  -6.059  -3.619  1.00  0.00     0.057 C 
HETATM    4  C3  UNL     1      13.899  -4.849  -3.354  1.00  0.00    -0.011 C 
HETATM    5  S1  UNL     1      13.554  -7.555  -4.194  1.00  0.00    -0.107 SA
HETATM    6  C16 UNL     1      15.094  -8.067  -3.389  1.00  0.00     0.079 C 
HETATM    7  C17 UNL     1      15.826  -9.038  -4.256  1.00  0.00     0.029 C 
HETATM    8  C18 UNL     1      17.070  -9.506  -3.518  1.00  0.00     0.002 C 
HETATM    9  C19 UNL     1      16.540 -10.302  -2.319  1.00  0.00     0.000 C 
HETATM   10  C20 UNL     1      15.854  -9.368  -1.361  1.00  0.00     0.002 C 
HETATM   11  C21 UNL     1      14.845  -8.472  -1.993  1.00  0.00     0.029 C 
ENDROOT
BRANCH   4  12
HETATM   12  C4  UNL     1      14.928  -3.914  -2.884  1.00  0.00    -0.027 A 
HETATM   13  C5  UNL     1      15.293  -2.800  -3.544  1.00  0.00     0.012 A 
HETATM   14  C6  UNL     1      16.256  -1.956  -2.968  1.00  0.00     0.001 A 
HETATM   15  C7  UNL     1      16.805  -2.272  -1.761  1.00  0.00     0.000 A 
HETATM   16  C8  UNL     1      16.459  -3.404  -1.056  1.00  0.00     0.001 A 
HETATM   17  C9  UNL     1      15.501  -4.217  -1.654  1.00  0.00     0.012 A 
ENDBRANCH   4  12
BRANCH   4  18
HETATM   18  C10 UNL     1      12.500  -4.489  -3.481  1.00  0.00     0.059 C 
HETATM   19  C12 UNL     1      11.808  -4.622  -2.112  1.00  0.00     0.049 C 
HETATM   20  C13 UNL     1      10.646  -5.576  -2.185  1.00  0.00     0.169 C 
HETATM   21  O4  UNL     1       9.775  -5.363  -3.213  1.00  0.00    -0.391 OA
HETATM   22  C14 UNL     1      10.254  -4.729  -4.323  1.00  0.00     0.169 C 
HETATM   23  C15 UNL     1      11.716  -5.242  -4.511  1.00  0.00     0.049 C 
BRANCH  18  24
HETATM   24  C11 UNL     1      12.355  -3.059  -3.837  1.00  0.00     0.149 C 
HETATM   25  N1  UNL     1      12.477  -2.753  -5.093  1.00  0.00    -0.250 N 
ATOM     26  H1  UNL     1      12.664  -3.501  -5.760  1.00  0.00     0.196 HD
BRANCH  24  27
HETATM   27  O2  UNL     1      12.100  -2.077  -2.912  1.00  0.00    -0.347 OA
ATOM     28  H2  UNL     1      12.574  -1.254  -2.884  1.00  0.00     0.219 HD
ENDBRANCH  24  27
BRANCH  25  29
HETATM   29  O3  UNL     1      12.368  -1.471  -5.562  1.00  0.00    -0.288 OA
ATOM     30  H3  UNL     1      12.849  -1.154  -6.317  1.00  0.00     0.244 HD
ENDBRANCH  25  29
ENDBRANCH  18  24
ENDBRANCH   4  18
TORSDOF 5
ENDMDL
