MODEL 1
REMARK VINA RESULT: -11.684594988      0.000      0.000
REMARK  13 active torsions:
REMARK  status: ('A' for Active; 'I' for Inactive)
REMARK    1  A    between atoms: C2_2  and  C19_41 
REMARK    2  A    between atoms: N1_3  and  O1_5 
REMARK    3  A    between atoms: O1_5  and  C3_6 
REMARK    4  A    between atoms: C3_6  and  C4_7 
REMARK    5  A    between atoms: C4_7  and  N2_8 
REMARK    6  A    between atoms: N2_8  and  C5_10 
REMARK    7  A    between atoms: C6_13  and  C7_14 
REMARK       I    between atoms: C7_14  and  N4_16 
REMARK    8  A    between atoms: N4_16  and  N5_18 
REMARK    9  A    between atoms: C8_20  and  C9_21 
REMARK   10  A    between atoms: C10_22  and  O3_23 
REMARK   11  A    between atoms: C18_34  and  O6_35 
REMARK   12  A    between atoms: N6_37  and  N7_38 
REMARK   13  A    between atoms: C20_47  and  N10_48 
ROOT
HETATM    1  C5  UNL     1     -17.191  -4.360   2.786  1.00  0.00     0.702 A 
HETATM    2  N3  UNL     1     -17.341  -3.610   3.891  1.00  0.00    -0.180 N 
ATOM      3  H3  UNL     1     -18.233  -3.387   4.335  1.00  0.00     0.184 HD
HETATM    4  C6  UNL     1     -16.116  -3.191   4.331  1.00  0.00     0.171 A 
HETATM    5  C18 UNL     1     -15.214  -3.732   3.429  1.00  0.00     0.212 A 
HETATM    6  N6  UNL     1     -15.862  -4.441   2.493  1.00  0.00    -0.068 N 
ENDROOT
BRANCH   4   7
HETATM    7  C7  UNL     1     -15.825  -2.355   5.487  1.00  0.00     0.291 C 
HETATM    8  O2  UNL     1     -15.102  -1.355   5.332  1.00  0.00    -0.264 OA
HETATM    9  N4  UNL     1     -16.389  -2.729   6.735  1.00  0.00    -0.265 N 
ATOM     10  H4  UNL     1     -16.976  -3.560   6.816  1.00  0.00     0.190 HD
BRANCH   9  11
HETATM   11  N5  UNL     1     -16.122  -1.937   7.842  1.00  0.00    -0.308 N 
HETATM   12  C8  UNL     1     -16.862  -1.086   8.370  1.00  0.00     0.122 C 
ATOM     13  H5  UNL     1     -15.207  -2.067   8.275  1.00  0.00     0.186 HD
BRANCH  12  14
HETATM   14  C9  UNL     1     -16.620  -0.252   9.509  1.00  0.00     0.033 A 
HETATM   15  C10 UNL     1     -15.793   0.871   9.396  1.00  0.00     0.154 A 
HETATM   16  C11 UNL     1     -15.590   1.649  10.521  1.00  0.00     0.322 A 
HETATM   17  O4  UNL     1     -14.831   2.669  10.392  1.00  0.00    -0.257 OA
HETATM   18  O5  UNL     1     -16.134   1.379  11.664  1.00  0.00    -0.273 OA
HETATM   19  C12 UNL     1     -16.923   0.323  11.806  1.00  0.00     0.090 A 
HETATM   20  C13 UNL     1     -17.480   0.077  13.048  1.00  0.00     0.038 A 
HETATM   21  C17 UNL     1     -17.194  -0.523  10.750  1.00  0.00     0.013 A 
HETATM   22  C14 UNL     1     -18.304  -1.010  13.235  1.00  0.00     0.003 A 
HETATM   23  C15 UNL     1     -18.590  -1.860  12.210  1.00  0.00     0.001 A 
HETATM   24  C16 UNL     1     -18.026  -1.615  10.944  1.00  0.00     0.015 A 
BRANCH  15  25
HETATM   25  O3  UNL     1     -15.196   1.195   8.205  1.00  0.00    -0.355 OA
ATOM     26  H3  UNL     1     -14.265   1.377   8.154  1.00  0.00     0.218 HD
ENDBRANCH  15  25
ENDBRANCH  12  14
ENDBRANCH   9  11
ENDBRANCH   4   7
BRANCH   5  27
HETATM   27  O6  UNL     1     -13.830  -3.561   3.493  1.00  0.00    -0.343 OA
ATOM     28  H6  UNL     1     -13.193  -4.200   3.195  1.00  0.00     0.219 HD
ENDBRANCH   5  27
BRANCH   1  29
HETATM   29  N2  UNL     1     -18.093  -4.933   2.070  1.00  0.00    -0.222 N 
ATOM     30  H2  UNL     1     -18.158  -5.950   2.058  1.00  0.00     0.177 HD
BRANCH  29  31
HETATM   31  C4  UNL     1     -19.006  -4.155   1.290  1.00  0.00     0.166 C 
BRANCH  31  32
HETATM   32  C3  UNL     1     -18.312  -3.407   0.168  1.00  0.00     0.221 C 
BRANCH  32  33
HETATM   33  O1  UNL     1     -18.918  -2.127   0.071  1.00  0.00    -0.279 OA
BRANCH  33  34
HETATM   34  N1  UNL     1     -20.177  -1.832   0.106  1.00  0.00    -0.269 N 
HETATM   35  C2  UNL     1     -20.849  -0.788   0.149  1.00  0.00     0.060 C 
HETATM   36  C1  UNL     1     -22.386  -1.058   0.177  1.00  0.00     0.073 C 
ATOM     37  H1  UNL     1     -20.765  -2.665   0.096  1.00  0.00     0.194 HD
BRANCH  35  38
HETATM   38  C19 UNL     1     -20.464   0.606   0.170  1.00  0.00     0.126 A 
HETATM   39  N8  UNL     1     -19.438   1.085   0.957  1.00  0.00    -0.236 N 
HETATM   40  O7  UNL     1     -19.303   2.343   0.776  1.00  0.00    -0.155 OA
ATOM     41  H8  UNL     1     -18.872   0.519   1.591  1.00  0.00     0.197 HD
HETATM   42  N9  UNL     1     -20.146   2.801  -0.073  1.00  0.00    -0.224 N 
HETATM   43  C20 UNL     1     -20.920   1.711  -0.494  1.00  0.00     0.152 A 
ATOM     44  H9  UNL     1     -20.236   3.769  -0.382  1.00  0.00     0.198 HD
BRANCH  43  45
HETATM   45  N10 UNL     1     -21.838   1.772  -1.305  1.00  0.00    -0.382 N 
ATOM     46 2H10 UNL     1     -22.829   1.732  -1.070  1.00  0.00     0.157 HD
ATOM     47 1H10 UNL     1     -21.769   1.864  -2.318  1.00  0.00     0.157 HD
ENDBRANCH  43  45
ENDBRANCH  35  38
ENDBRANCH  33  34
ENDBRANCH  32  33
ENDBRANCH  31  32
ENDBRANCH  29  31
ENDBRANCH   1  29
BRANCH   6  48
HETATM   48  N7  UNL     1     -15.287  -5.128   1.424  1.00  0.00    -0.322 N 
ATOM     49  H72 UNL     1     -15.737  -5.362   0.539  1.00  0.00     0.178 HD
ATOM     50  H71 UNL     1     -14.336  -5.495   1.378  1.00  0.00     0.178 HD
ENDBRANCH   6  48
TORSDOF 13
ENDMDL
MODEL 2
REMARK VINA RESULT: -11.239739579      1.071      1.640
REMARK  13 active torsions:
REMARK  status: ('A' for Active; 'I' for Inactive)
REMARK    1  A    between atoms: C2_2  and  C19_41 
REMARK    2  A    between atoms: N1_3  and  O1_5 
REMARK    3  A    between atoms: O1_5  and  C3_6 
REMARK    4  A    between atoms: C3_6  and  C4_7 
REMARK    5  A    between atoms: C4_7  and  N2_8 
REMARK    6  A    between atoms: N2_8  and  C5_10 
REMARK    7  A    between atoms: C6_13  and  C7_14 
REMARK       I    between atoms: C7_14  and  N4_16 
REMARK    8  A    between atoms: N4_16  and  N5_18 
REMARK    9  A    between atoms: C8_20  and  C9_21 
REMARK   10  A    between atoms: C10_22  and  O3_23 
REMARK   11  A    between atoms: C18_34  and  O6_35 
REMARK   12  A    between atoms: N6_37  and  N7_38 
REMARK   13  A    between atoms: C20_47  and  N10_48 
ROOT
HETATM    1  C5  UNL     1     -17.153  -4.441   2.898  1.00  0.00     0.702 A 
HETATM    2  N3  UNL     1     -17.306  -3.682   3.998  1.00  0.00    -0.180 N 
ATOM      3  H3  UNL     1     -18.195  -3.483   4.456  1.00  0.00     0.184 HD
HETATM    4  C6  UNL     1     -16.086  -3.220   4.409  1.00  0.00     0.171 A 
HETATM    5  C18 UNL     1     -15.185  -3.743   3.495  1.00  0.00     0.212 A 
HETATM    6  N6  UNL     1     -15.827  -4.483   2.581  1.00  0.00    -0.068 N 
ENDROOT
BRANCH   4   7
HETATM    7  C7  UNL     1     -15.800  -2.362   5.550  1.00  0.00     0.291 C 
HETATM    8  O2  UNL     1     -15.072  -1.368   5.380  1.00  0.00    -0.264 OA
HETATM    9  N4  UNL     1     -16.374  -2.709   6.802  1.00  0.00    -0.265 N 
ATOM     10  H4  UNL     1     -16.965  -3.535   6.895  1.00  0.00     0.190 HD
BRANCH   9  11
HETATM   11  N5  UNL     1     -16.112  -1.895   7.894  1.00  0.00    -0.308 N 
HETATM   12  C8  UNL     1     -16.886  -1.098   8.458  1.00  0.00     0.122 C 
ATOM     13  H5  UNL     1     -15.170  -1.956   8.282  1.00  0.00     0.186 HD
BRANCH  12  14
HETATM   14  C9  UNL     1     -16.649  -0.245   9.584  1.00  0.00     0.033 A 
HETATM   15  C10 UNL     1     -15.839   0.887   9.450  1.00  0.00     0.154 A 
HETATM   16  C11 UNL     1     -15.641   1.685  10.563  1.00  0.00     0.322 A 
HETATM   17  O4  UNL     1     -14.897   2.713  10.416  1.00  0.00    -0.257 OA
HETATM   18  O5  UNL     1     -16.175   1.423  11.713  1.00  0.00    -0.273 OA
HETATM   19  C12 UNL     1     -16.948   0.358  11.874  1.00  0.00     0.090 A 
HETATM   20  C13 UNL     1     -17.496   0.122  13.122  1.00  0.00     0.038 A 
HETATM   21  C17 UNL     1     -17.213  -0.506  10.831  1.00  0.00     0.013 A 
HETATM   22  C14 UNL     1     -18.304  -0.974  13.329  1.00  0.00     0.003 A 
HETATM   23  C15 UNL     1     -18.583  -1.842  12.318  1.00  0.00     0.001 A 
HETATM   24  C16 UNL     1     -18.028  -1.607  11.045  1.00  0.00     0.015 A 
BRANCH  15  25
HETATM   25  O3  UNL     1     -15.253   1.203   8.252  1.00  0.00    -0.355 OA
ATOM     26  H3  UNL     1     -14.769   2.013   8.138  1.00  0.00     0.218 HD
ENDBRANCH  15  25
ENDBRANCH  12  14
ENDBRANCH   9  11
ENDBRANCH   4   7
BRANCH   5  27
HETATM   27  O6  UNL     1     -13.806  -3.527   3.531  1.00  0.00    -0.343 OA
ATOM     28  H6  UNL     1     -13.233  -3.577   2.774  1.00  0.00     0.219 HD
ENDBRANCH   5  27
BRANCH   1  29
HETATM   29  N2  UNL     1     -18.049  -5.050   2.207  1.00  0.00    -0.222 N 
ATOM     30  H2  UNL     1     -18.124  -6.065   2.258  1.00  0.00     0.177 HD
BRANCH  29  31
HETATM   31  C4  UNL     1     -18.943  -4.315   1.365  1.00  0.00     0.166 C 
BRANCH  31  32
HETATM   32  C3  UNL     1     -18.250  -3.756   0.137  1.00  0.00     0.221 C 
BRANCH  32  33
HETATM   33  O1  UNL     1     -18.969  -2.603  -0.270  1.00  0.00    -0.279 OA
BRANCH  33  34
HETATM   34  N1  UNL     1     -18.877  -1.397   0.188  1.00  0.00    -0.269 N 
HETATM   35  C2  UNL     1     -19.669  -0.473   0.437  1.00  0.00     0.060 C 
HETATM   36  C1  UNL     1     -18.957   0.801   0.991  1.00  0.00     0.073 C 
ATOM     37  H1  UNL     1     -17.912  -1.141   0.397  1.00  0.00     0.194 HD
BRANCH  35  38
HETATM   38  C19 UNL     1     -21.107  -0.375   0.312  1.00  0.00     0.126 A 
HETATM   39  N8  UNL     1     -21.759   0.824   0.121  1.00  0.00    -0.236 N 
HETATM   40  O7  UNL     1     -23.019   0.624   0.033  1.00  0.00    -0.155 OA
ATOM     41  H8  UNL     1     -21.305   1.736   0.059  1.00  0.00     0.197 HD
HETATM   42  N9  UNL     1     -23.318  -0.617   0.146  1.00  0.00    -0.224 N 
HETATM   43  C20 UNL     1     -22.110  -1.304   0.328  1.00  0.00     0.152 A 
ATOM     44  H9  UNL     1     -24.253  -1.024   0.110  1.00  0.00     0.198 HD
BRANCH  43  45
HETATM   45  N10 UNL     1     -22.007  -2.516   0.479  1.00  0.00    -0.382 N 
ATOM     46 2H10 UNL     1     -21.132  -3.011   0.654  1.00  0.00     0.157 HD
ATOM     47 1H10 UNL     1     -22.751  -3.213   0.452  1.00  0.00     0.157 HD
ENDBRANCH  43  45
ENDBRANCH  35  38
ENDBRANCH  33  34
ENDBRANCH  32  33
ENDBRANCH  31  32
ENDBRANCH  29  31
ENDBRANCH   1  29
BRANCH   6  48
HETATM   48  N7  UNL     1     -15.252  -5.164   1.509  1.00  0.00    -0.322 N 
ATOM     49  H72 UNL     1     -14.797  -4.747   0.697  1.00  0.00     0.178 HD
ATOM     50  H71 UNL     1     -15.206  -6.175   1.386  1.00  0.00     0.178 HD
ENDBRANCH   6  48
TORSDOF 13
ENDMDL
MODEL 3
REMARK VINA RESULT: -10.679966928      1.316      1.663
REMARK  13 active torsions:
REMARK  status: ('A' for Active; 'I' for Inactive)
REMARK    1  A    between atoms: C2_2  and  C19_41 
REMARK    2  A    between atoms: N1_3  and  O1_5 
REMARK    3  A    between atoms: O1_5  and  C3_6 
REMARK    4  A    between atoms: C3_6  and  C4_7 
REMARK    5  A    between atoms: C4_7  and  N2_8 
REMARK    6  A    between atoms: N2_8  and  C5_10 
REMARK    7  A    between atoms: C6_13  and  C7_14 
REMARK       I    between atoms: C7_14  and  N4_16 
REMARK    8  A    between atoms: N4_16  and  N5_18 
REMARK    9  A    between atoms: C8_20  and  C9_21 
REMARK   10  A    between atoms: C10_22  and  O3_23 
REMARK   11  A    between atoms: C18_34  and  O6_35 
REMARK   12  A    between atoms: N6_37  and  N7_38 
REMARK   13  A    between atoms: C20_47  and  N10_48 
ROOT
HETATM    1  C5  UNL     1     -17.192  -4.397   2.828  1.00  0.00     0.702 A 
HETATM    2  N3  UNL     1     -17.341  -3.648   3.935  1.00  0.00    -0.180 N 
ATOM      3  H3  UNL     1     -18.230  -3.442   4.391  1.00  0.00     0.184 HD
HETATM    4  C6  UNL     1     -16.117  -3.206   4.357  1.00  0.00     0.171 A 
HETATM    5  C18 UNL     1     -15.218  -3.730   3.443  1.00  0.00     0.212 A 
HETATM    6  N6  UNL     1     -15.865  -4.453   2.517  1.00  0.00    -0.068 N 
ENDROOT
BRANCH   4   7
HETATM    7  C7  UNL     1     -15.827  -2.363   5.509  1.00  0.00     0.291 C 
HETATM    8  O2  UNL     1     -15.110  -1.360   5.346  1.00  0.00    -0.264 OA
HETATM    9  N4  UNL     1     -16.384  -2.736   6.761  1.00  0.00    -0.265 N 
ATOM     10  H4  UNL     1     -16.965  -3.569   6.848  1.00  0.00     0.190 HD
BRANCH   9  11
HETATM   11  N5  UNL     1     -16.116  -1.937   7.863  1.00  0.00    -0.308 N 
HETATM   12  C8  UNL     1     -16.865  -1.097   8.399  1.00  0.00     0.122 C 
ATOM     13  H5  UNL     1     -15.195  -2.051   8.286  1.00  0.00     0.186 HD
BRANCH  12  14
HETATM   14  C9  UNL     1     -16.623  -0.258   9.534  1.00  0.00     0.033 A 
HETATM   15  C10 UNL     1     -15.794   0.863   9.415  1.00  0.00     0.154 A 
HETATM   16  C11 UNL     1     -15.592   1.648  10.537  1.00  0.00     0.322 A 
HETATM   17  O4  UNL     1     -14.831   2.666  10.403  1.00  0.00    -0.257 OA
HETATM   18  O5  UNL     1     -16.138   1.384  11.681  1.00  0.00    -0.273 OA
HETATM   19  C12 UNL     1     -16.928   0.330  11.827  1.00  0.00     0.090 A 
HETATM   20  C13 UNL     1     -17.487   0.091  13.069  1.00  0.00     0.038 A 
HETATM   21  C17 UNL     1     -17.199  -0.521  10.775  1.00  0.00     0.013 A 
HETATM   22  C14 UNL     1     -18.313  -0.993  13.261  1.00  0.00     0.003 A 
HETATM   23  C15 UNL     1     -18.598  -1.848  12.241  1.00  0.00     0.001 A 
HETATM   24  C16 UNL     1     -18.032  -1.611  10.973  1.00  0.00     0.015 A 
BRANCH  15  25
HETATM   25  O3  UNL     1     -15.195   1.180   8.223  1.00  0.00    -0.355 OA
ATOM     26  H3  UNL     1     -14.894   0.503   7.628  1.00  0.00     0.218 HD
ENDBRANCH  15  25
ENDBRANCH  12  14
ENDBRANCH   9  11
ENDBRANCH   4   7
BRANCH   5  27
HETATM   27  O6  UNL     1     -13.836  -3.532   3.488  1.00  0.00    -0.343 OA
ATOM     28  H6  UNL     1     -13.281  -3.777   4.219  1.00  0.00     0.219 HD
ENDBRANCH   5  27
BRANCH   1  29
HETATM   29  N2  UNL     1     -18.091  -4.987   2.125  1.00  0.00    -0.222 N 
ATOM     30  H2  UNL     1     -17.957  -5.958   1.844  1.00  0.00     0.177 HD
BRANCH  29  31
HETATM   31  C4  UNL     1     -19.280  -4.294   1.734  1.00  0.00     0.166 C 
BRANCH  31  32
HETATM   32  C3  UNL     1     -18.985  -3.096   0.853  1.00  0.00     0.221 C 
BRANCH  32  33
HETATM   33  O1  UNL     1     -20.174  -2.327   0.767  1.00  0.00    -0.279 OA
BRANCH  33  34
HETATM   34  N1  UNL     1     -21.398  -2.743   0.756  1.00  0.00    -0.269 N 
HETATM   35  C2  UNL     1     -22.513  -2.236   0.542  1.00  0.00     0.060 C 
HETATM   36  C1  UNL     1     -23.681  -3.263   0.679  1.00  0.00     0.073 C 
ATOM     37  H1  UNL     1     -21.466  -3.736   0.978  1.00  0.00     0.194 HD
BRANCH  35  38
HETATM   38  C19 UNL     1     -22.908  -0.890   0.190  1.00  0.00     0.126 A 
HETATM   39  N8  UNL     1     -24.193  -0.566  -0.190  1.00  0.00    -0.236 N 
HETATM   40  O7  UNL     1     -24.270   0.687  -0.433  1.00  0.00    -0.155 OA
ATOM     41  H8  UNL     1     -24.967  -1.226  -0.266  1.00  0.00     0.197 HD
HETATM   42  N9  UNL     1     -23.149   1.282  -0.259  1.00  0.00    -0.224 N 
HETATM   43  C20 UNL     1     -22.235   0.299   0.146  1.00  0.00     0.152 A 
ATOM     44  H9  UNL     1     -22.958   2.275  -0.390  1.00  0.00     0.198 HD
BRANCH  43  45
HETATM   45  N10 UNL     1     -21.052   0.500   0.399  1.00  0.00    -0.382 N 
ATOM     46 2H10 UNL     1     -20.705   1.222   1.031  1.00  0.00     0.157 HD
ATOM     47 1H10 UNL     1     -20.242   0.003   0.030  1.00  0.00     0.157 HD
ENDBRANCH  43  45
ENDBRANCH  35  38
ENDBRANCH  33  34
ENDBRANCH  32  33
ENDBRANCH  31  32
ENDBRANCH  29  31
ENDBRANCH   1  29
BRANCH   6  48
HETATM   48  N7  UNL     1     -15.292  -5.130   1.441  1.00  0.00    -0.322 N 
ATOM     49  H72 UNL     1     -15.681  -5.221   0.503  1.00  0.00     0.178 HD
ATOM     50  H71 UNL     1     -14.403  -5.630   1.442  1.00  0.00     0.178 HD
ENDBRANCH   6  48
TORSDOF 13
ENDMDL
MODEL 4
REMARK VINA RESULT: -10.568100956      6.666      9.561
REMARK  13 active torsions:
REMARK  status: ('A' for Active; 'I' for Inactive)
REMARK    1  A    between atoms: C2_2  and  C19_41 
REMARK    2  A    between atoms: N1_3  and  O1_5 
REMARK    3  A    between atoms: O1_5  and  C3_6 
REMARK    4  A    between atoms: C3_6  and  C4_7 
REMARK    5  A    between atoms: C4_7  and  N2_8 
REMARK    6  A    between atoms: N2_8  and  C5_10 
REMARK    7  A    between atoms: C6_13  and  C7_14 
REMARK       I    between atoms: C7_14  and  N4_16 
REMARK    8  A    between atoms: N4_16  and  N5_18 
REMARK    9  A    between atoms: C8_20  and  C9_21 
REMARK   10  A    between atoms: C10_22  and  O3_23 
REMARK   11  A    between atoms: C18_34  and  O6_35 
REMARK   12  A    between atoms: N6_37  and  N7_38 
REMARK   13  A    between atoms: C20_47  and  N10_48 
ROOT
HETATM    1  C5  UNL     1     -11.186  -4.603   6.641  1.00  0.00     0.702 A 
HETATM    2  N3  UNL     1     -11.586  -4.057   7.803  1.00  0.00    -0.180 N 
ATOM      3  H3  UNL     1     -11.567  -4.525   8.710  1.00  0.00     0.184 HD
HETATM    4  C6  UNL     1     -12.021  -2.780   7.584  1.00  0.00     0.171 A 
HETATM    5  C18 UNL     1     -11.861  -2.581   6.223  1.00  0.00     0.212 A 
HETATM    6  N6  UNL     1     -11.355  -3.682   5.649  1.00  0.00    -0.068 N 
ENDROOT
BRANCH   4   7
HETATM    7  C7  UNL     1     -12.544  -1.840   8.566  1.00  0.00     0.291 C 
HETATM    8  O2  UNL     1     -12.000  -1.781   9.682  1.00  0.00    -0.264 OA
HETATM    9  N4  UNL     1     -13.654  -1.036   8.190  1.00  0.00    -0.265 N 
ATOM     10  H4  UNL     1     -14.070  -1.120   7.262  1.00  0.00     0.190 HD
BRANCH   9  11
HETATM   11  N5  UNL     1     -14.156  -0.134   9.117  1.00  0.00    -0.308 N 
HETATM   12  C8  UNL     1     -15.226  -0.206   9.752  1.00  0.00     0.122 C 
ATOM     13  H5  UNL     1     -13.579   0.687   9.300  1.00  0.00     0.186 HD
BRANCH  12  14
HETATM   14  C9  UNL     1     -15.774   0.703  10.713  1.00  0.00     0.033 A 
HETATM   15  C10 UNL     1     -15.410   2.054  10.691  1.00  0.00     0.154 A 
HETATM   16  C11 UNL     1     -15.967   2.896  11.636  1.00  0.00     0.322 A 
HETATM   17  O4  UNL     1     -15.619   4.125  11.595  1.00  0.00    -0.257 OA
HETATM   18  O5  UNL     1     -16.806   2.483  12.531  1.00  0.00    -0.273 OA
HETATM   19  C12 UNL     1     -17.172   1.210  12.579  1.00  0.00     0.090 A 
HETATM   20  C13 UNL     1     -18.072   0.818  13.555  1.00  0.00     0.038 A 
HETATM   21  C17 UNL     1     -16.678   0.282  11.686  1.00  0.00     0.013 A 
HETATM   22  C14 UNL     1     -18.476  -0.496  13.638  1.00  0.00     0.003 A 
HETATM   23  C15 UNL     1     -18.005  -1.431  12.768  1.00  0.00     0.001 A 
HETATM   24  C16 UNL     1     -17.089  -1.039  11.773  1.00  0.00     0.015 A 
BRANCH  15  25
HETATM   25  O3  UNL     1     -14.525   2.535   9.761  1.00  0.00    -0.355 OA
ATOM     26  H3  UNL     1     -13.592   2.568   9.940  1.00  0.00     0.218 HD
ENDBRANCH  15  25
ENDBRANCH  12  14
ENDBRANCH   9  11
ENDBRANCH   4   7
BRANCH   5  27
HETATM   27  O6  UNL     1     -12.182  -1.400   5.551  1.00  0.00    -0.343 OA
ATOM     28  H6  UNL     1     -13.061  -1.150   5.290  1.00  0.00     0.219 HD
ENDBRANCH   5  27
BRANCH   1  29
HETATM   29  N2  UNL     1     -10.719  -5.780   6.419  1.00  0.00    -0.222 N 
ATOM     30  H2  UNL     1     -11.275  -6.454   5.894  1.00  0.00     0.177 HD
BRANCH  29  31
HETATM   31  C4  UNL     1      -9.425  -6.152   6.903  1.00  0.00     0.166 C 
BRANCH  31  32
HETATM   32  C3  UNL     1      -8.306  -5.504   6.111  1.00  0.00     0.221 C 
BRANCH  32  33
HETATM   33  O1  UNL     1      -7.765  -4.464   6.912  1.00  0.00    -0.279 OA
BRANCH  33  34
HETATM   34  N1  UNL     1      -8.097  -3.215   6.934  1.00  0.00    -0.269 N 
HETATM   35  C2  UNL     1      -7.542  -2.147   7.245  1.00  0.00     0.060 C 
HETATM   36  C1  UNL     1      -8.471  -0.906   7.062  1.00  0.00     0.073 C 
ATOM     37  H1  UNL     1      -9.056  -3.069   6.617  1.00  0.00     0.194 HD
BRANCH  35  38
HETATM   38  C19 UNL     1      -6.210  -1.859   7.730  1.00  0.00     0.126 A 
HETATM   39  N8  UNL     1      -5.839  -0.617   8.197  1.00  0.00    -0.236 N 
HETATM   40  O7  UNL     1      -4.617  -0.642   8.573  1.00  0.00    -0.155 OA
ATOM     41  H8  UNL     1      -6.448   0.201   8.238  1.00  0.00     0.197 HD
HETATM   42  N9  UNL     1      -4.087  -1.797   8.411  1.00  0.00    -0.224 N 
HETATM   43  C20 UNL     1      -5.083  -2.620   7.867  1.00  0.00     0.152 A 
ATOM     44  H9  UNL     1      -3.128  -2.065   8.634  1.00  0.00     0.198 HD
BRANCH  43  45
HETATM   45  N10 UNL     1      -4.934  -3.801   7.572  1.00  0.00    -0.382 N 
ATOM     46 2H10 UNL     1      -4.772  -4.152   6.628  1.00  0.00     0.157 HD
ATOM     47 1H10 UNL     1      -4.953  -4.607   8.197  1.00  0.00     0.157 HD
ENDBRANCH  43  45
ENDBRANCH  35  38
ENDBRANCH  33  34
ENDBRANCH  32  33
ENDBRANCH  31  32
ENDBRANCH  29  31
ENDBRANCH   1  29
BRANCH   6  48
HETATM   48  N7  UNL     1     -11.059  -3.855   4.297  1.00  0.00    -0.322 N 
ATOM     49  H72 UNL     1     -10.130  -3.903   3.879  1.00  0.00     0.178 HD
ATOM     50  H71 UNL     1     -11.731  -3.955   3.536  1.00  0.00     0.178 HD
ENDBRANCH   6  48
TORSDOF 13
ENDMDL
MODEL 5
REMARK VINA RESULT: -10.508488219      1.574      2.326
REMARK  13 active torsions:
REMARK  status: ('A' for Active; 'I' for Inactive)
REMARK    1  A    between atoms: C2_2  and  C19_41 
REMARK    2  A    between atoms: N1_3  and  O1_5 
REMARK    3  A    between atoms: O1_5  and  C3_6 
REMARK    4  A    between atoms: C3_6  and  C4_7 
REMARK    5  A    between atoms: C4_7  and  N2_8 
REMARK    6  A    between atoms: N2_8  and  C5_10 
REMARK    7  A    between atoms: C6_13  and  C7_14 
REMARK       I    between atoms: C7_14  and  N4_16 
REMARK    8  A    between atoms: N4_16  and  N5_18 
REMARK    9  A    between atoms: C8_20  and  C9_21 
REMARK   10  A    between atoms: C10_22  and  O3_23 
REMARK   11  A    between atoms: C18_34  and  O6_35 
REMARK   12  A    between atoms: N6_37  and  N7_38 
REMARK   13  A    between atoms: C20_47  and  N10_48 
ROOT
HETATM    1  C5  UNL     1     -16.049  -4.331   1.964  1.00  0.00     0.702 A 
HETATM    2  N3  UNL     1     -15.341  -3.553   2.802  1.00  0.00    -0.180 N 
ATOM      3  H3  UNL     1     -14.445  -3.116   2.584  1.00  0.00     0.184 HD
HETATM    4  C6  UNL     1     -16.006  -3.436   3.991  1.00  0.00     0.171 A 
HETATM    5  C18 UNL     1     -17.158  -4.187   3.826  1.00  0.00     0.212 A 
HETATM    6  N6  UNL     1     -17.188  -4.730   2.600  1.00  0.00    -0.068 N 
ENDROOT
BRANCH   4   7
HETATM    7  C7  UNL     1     -15.590  -2.693   5.171  1.00  0.00     0.291 C 
HETATM    8  O2  UNL     1     -14.575  -1.978   5.097  1.00  0.00    -0.264 OA
HETATM    9  N4  UNL     1     -16.372  -2.824   6.350  1.00  0.00    -0.265 N 
ATOM     10  H4  UNL     1     -17.197  -3.424   6.365  1.00  0.00     0.190 HD
BRANCH   9  11
HETATM   11  N5  UNL     1     -15.986  -2.116   7.478  1.00  0.00    -0.308 N 
HETATM   12  C8  UNL     1     -16.591  -1.183   8.040  1.00  0.00     0.122 C 
ATOM     13  H5  UNL     1     -15.099  -2.394   7.899  1.00  0.00     0.186 HD
BRANCH  12  14
HETATM   14  C9  UNL     1     -16.223  -0.432   9.203  1.00  0.00     0.033 A 
HETATM   15  C10 UNL     1     -15.170   0.487   9.142  1.00  0.00     0.154 A 
HETATM   16  C11 UNL     1     -14.852   1.193  10.288  1.00  0.00     0.322 A 
HETATM   17  O4  UNL     1     -13.887   2.026  10.208  1.00  0.00    -0.257 OA
HETATM   18  O5  UNL     1     -15.490   1.035  11.404  1.00  0.00    -0.273 OA
HETATM   19  C12 UNL     1     -16.492   0.173  11.495  1.00  0.00     0.090 A 
HETATM   20  C13 UNL     1     -17.142   0.042  12.710  1.00  0.00     0.038 A 
HETATM   21  C17 UNL     1     -16.894  -0.584  10.414  1.00  0.00     0.013 A 
HETATM   22  C14 UNL     1     -18.188  -0.843  12.844  1.00  0.00     0.003 A 
HETATM   23  C15 UNL     1     -18.606  -1.602  11.794  1.00  0.00     0.001 A 
HETATM   24  C16 UNL     1     -17.949  -1.473  10.555  1.00  0.00     0.015 A 
BRANCH  15  25
HETATM   25  O3  UNL     1     -14.467   0.686   7.981  1.00  0.00    -0.355 OA
ATOM     26  H3  UNL     1     -14.586   1.473   7.463  1.00  0.00     0.218 HD
ENDBRANCH  15  25
ENDBRANCH  12  14
ENDBRANCH   9  11
ENDBRANCH   4   7
BRANCH   5  27
HETATM   27  O6  UNL     1     -18.144  -4.350   4.801  1.00  0.00    -0.343 OA
ATOM     28  H6  UNL     1     -18.503  -5.188   5.070  1.00  0.00     0.219 HD
ENDBRANCH   5  27
BRANCH   1  29
HETATM   29  N2  UNL     1     -15.768  -4.688   0.762  1.00  0.00    -0.222 N 
ATOM     30  H2  UNL     1     -15.325  -5.591   0.592  1.00  0.00     0.177 HD
BRANCH  29  31
HETATM   31  C4  UNL     1     -16.071  -3.830  -0.342  1.00  0.00     0.166 C 
BRANCH  31  32
HETATM   32  C3  UNL     1     -17.420  -4.142  -0.961  1.00  0.00     0.221 C 
BRANCH  32  33
HETATM   33  O1  UNL     1     -18.395  -3.381  -0.264  1.00  0.00    -0.279 OA
BRANCH  33  34
HETATM   34  N1  UNL     1     -18.304  -2.166   0.168  1.00  0.00    -0.269 N 
HETATM   35  C2  UNL     1     -19.102  -1.272   0.499  1.00  0.00     0.060 C 
HETATM   36  C1  UNL     1     -18.388   0.040   0.952  1.00  0.00     0.073 C 
ATOM     37  H1  UNL     1     -17.333  -1.864   0.260  1.00  0.00     0.194 HD
BRANCH  35  38
HETATM   38  C19 UNL     1     -20.547  -1.239   0.542  1.00  0.00     0.126 A 
HETATM   39  N8  UNL     1     -21.271  -0.074   0.400  1.00  0.00    -0.236 N 
HETATM   40  O7  UNL     1     -22.522  -0.330   0.466  1.00  0.00    -0.155 OA
ATOM     41  H8  UNL     1     -20.868   0.854   0.262  1.00  0.00     0.197 HD
HETATM   42  N9  UNL     1     -22.750  -1.578   0.643  1.00  0.00    -0.224 N 
HETATM   43  C20 UNL     1     -21.499  -2.208   0.699  1.00  0.00     0.152 A 
ATOM     44  H9  UNL     1     -23.663  -2.025   0.729  1.00  0.00     0.198 HD
BRANCH  43  45
HETATM   45  N10 UNL     1     -21.324  -3.410   0.866  1.00  0.00    -0.382 N 
ATOM     46 2H10 UNL     1     -20.671  -3.818   1.536  1.00  0.00     0.157 HD
ATOM     47 1H10 UNL     1     -21.781  -4.180   0.379  1.00  0.00     0.157 HD
ENDBRANCH  43  45
ENDBRANCH  35  38
ENDBRANCH  33  34
ENDBRANCH  32  33
ENDBRANCH  31  32
ENDBRANCH  29  31
ENDBRANCH   1  29
BRANCH   6  48
HETATM   48  N7  UNL     1     -18.189  -5.546   2.075  1.00  0.00    -0.322 N 
ATOM     49  H72 UNL     1     -18.586  -5.495   1.137  1.00  0.00     0.178 HD
ATOM     50  H71 UNL     1     -18.666  -6.308   2.557  1.00  0.00     0.178 HD
ENDBRANCH   6  48
TORSDOF 13
ENDMDL
