MODEL 1
REMARK VINA RESULT: -9.595623536      0.000      0.000
REMARK  5 active torsions:
REMARK  status: ('A' for Active; 'I' for Inactive)
REMARK    1  A    between atoms: C5_5  and  C6_6 
REMARK    2  A    between atoms: C6_6  and  O1_7 
REMARK    3  A    between atoms: O1_7  and  C7_8 
REMARK    4  A    between atoms: C7_8  and  C8_10 
REMARK    5  A    between atoms: C14_22  and  N4_23 
REMARK       I    between atoms: N4_23  and  C15_25 
ROOT
HETATM    1  C1  UNL     1      -7.337   7.764  11.710  1.00  0.00     0.018 C 
HETATM    2  C2  UNL     1      -6.619   7.027  12.348  1.00  0.00    -0.078 C 
HETATM    3  C3  UNL     1      -5.784   6.137  13.115  1.00  0.00     0.019 A 
HETATM    4  C4  UNL     1      -4.413   6.321  13.225  1.00  0.00     0.032 A 
HETATM    5  C5  UNL     1      -3.617   5.472  13.957  1.00  0.00    -0.003 A 
HETATM    6  C13 UNL     1      -4.231   4.407  14.593  1.00  0.00     0.085 A 
HETATM    7  N3  UNL     1      -3.765   3.401  15.374  1.00  0.00    -0.189 N 
ATOM      8  H3  UNL     1      -2.789   3.268  15.638  1.00  0.00     0.184 HD
HETATM    9  C14 UNL     1      -4.787   2.602  15.753  1.00  0.00     0.685 A 
HETATM   10  N7  UNL     1      -5.906   3.083  15.222  1.00  0.00    -0.189 N 
ATOM     11  H7  UNL     1      -6.839   2.687  15.335  1.00  0.00     0.184 HD
HETATM   12  C16 UNL     1      -5.595   4.190  14.505  1.00  0.00     0.078 A 
HETATM   13  C17 UNL     1      -6.369   5.063  13.761  1.00  0.00     0.053 A 
ENDROOT
BRANCH   5  14
HETATM   14  C6  UNL     1      -2.163   5.611  14.114  1.00  0.00     0.220 C 
BRANCH  14  15
HETATM   15  O1  UNL     1      -1.442   4.507  13.647  1.00  0.00    -0.312 OA
BRANCH  15  16
HETATM   16  C7  UNL     1      -1.419   4.255  12.295  1.00  0.00     0.310 C 
HETATM   17  O2  UNL     1      -1.068   5.154  11.497  1.00  0.00    -0.258 OA
BRANCH  16  18
HETATM   18  C8  UNL     1      -1.802   2.940  11.743  1.00  0.00     0.110 A 
HETATM   19  C9  UNL     1      -1.014   2.133  10.949  1.00  0.00     0.061 A 
HETATM   20  C10 UNL     1      -1.710   0.989  10.630  1.00  0.00     0.081 A 
HETATM   21  C11 UNL     1      -1.283  -0.135   9.822  1.00  0.00     0.102 C 
HETATM   22  C12 UNL     1      -2.933   1.135  11.257  1.00  0.00     0.101 A 
HETATM   23  N1  UNL     1      -0.958  -1.045   9.177  1.00  0.00    -0.191 NA
HETATM   24 BR1  UNL     1      -4.344  -0.147  11.183  1.00  0.00    -0.030 Br
HETATM   25  N2  UNL     1      -2.969   2.307  11.917  1.00  0.00    -0.344 N 
ATOM     26  H2  UNL     1      -3.757   2.656  12.462  1.00  0.00     0.167 HD
ENDBRANCH  16  18
ENDBRANCH  15  16
ENDBRANCH  14  15
ENDBRANCH   5  14
BRANCH   9  27
HETATM   27  N4  UNL     1      -4.586   1.567  16.510  1.00  0.00    -0.164 N 
HETATM   28  C15 UNL     1      -5.598   1.104  17.393  1.00  0.00     0.200 C 
HETATM   29  N5  UNL     1      -6.103   1.903  18.262  1.00  0.00    -0.373 N 
HETATM   30  N6  UNL     1      -6.020  -0.236  17.282  1.00  0.00    -0.063 NA
ATOM     31  H52 UNL     1      -5.798   2.872  18.342  1.00  0.00     0.158 HD
ATOM     32  H51 UNL     1      -6.830   1.570  18.896  1.00  0.00     0.158 HD
ATOM     33  H4  UNL     1      -3.690   1.080  16.472  1.00  0.00     0.187 HD
ENDBRANCH   9  27
TORSDOF 5
ENDMDL
MODEL 2
REMARK VINA RESULT: -9.384358750      1.137      1.440
REMARK  5 active torsions:
REMARK  status: ('A' for Active; 'I' for Inactive)
REMARK    1  A    between atoms: C5_5  and  C6_6 
REMARK    2  A    between atoms: C6_6  and  O1_7 
REMARK    3  A    between atoms: O1_7  and  C7_8 
REMARK    4  A    between atoms: C7_8  and  C8_10 
REMARK    5  A    between atoms: C14_22  and  N4_23 
REMARK       I    between atoms: N4_23  and  C15_25 
ROOT
HETATM    1  C1  UNL     1      -7.287   7.757  11.693  1.00  0.00     0.018 C 
HETATM    2  C2  UNL     1      -6.567   7.021  12.330  1.00  0.00    -0.078 C 
HETATM    3  C3  UNL     1      -5.731   6.131  13.097  1.00  0.00     0.019 A 
HETATM    4  C4  UNL     1      -4.361   6.320  13.211  1.00  0.00     0.032 A 
HETATM    5  C5  UNL     1      -3.564   5.471  13.942  1.00  0.00    -0.003 A 
HETATM    6  C13 UNL     1      -4.177   4.402  14.573  1.00  0.00     0.085 A 
HETATM    7  N3  UNL     1      -3.709   3.395  15.353  1.00  0.00    -0.189 N 
ATOM      8  H3  UNL     1      -2.733   3.264  15.618  1.00  0.00     0.184 HD
HETATM    9  C14 UNL     1      -4.729   2.591  15.725  1.00  0.00     0.685 A 
HETATM   10  N7  UNL     1      -5.848   3.070  15.193  1.00  0.00    -0.189 N 
ATOM     11  H7  UNL     1      -6.780   2.670  15.303  1.00  0.00     0.184 HD
HETATM   12  C16 UNL     1      -5.539   4.180  14.480  1.00  0.00     0.078 A 
HETATM   13  C17 UNL     1      -6.315   5.053  13.737  1.00  0.00     0.053 A 
ENDROOT
BRANCH   5  14
HETATM   14  C6  UNL     1      -2.111   5.615  14.104  1.00  0.00     0.220 C 
BRANCH  14  15
HETATM   15  O1  UNL     1      -1.388   4.493  13.685  1.00  0.00    -0.312 OA
BRANCH  15  16
HETATM   16  C7  UNL     1      -1.243   4.264  12.336  1.00  0.00     0.310 C 
HETATM   17  O2  UNL     1      -0.692   5.124  11.611  1.00  0.00    -0.258 OA
BRANCH  16  18
HETATM   18  C8  UNL     1      -1.725   3.020  11.703  1.00  0.00     0.110 A 
HETATM   19  C9  UNL     1      -3.036   2.601  11.633  1.00  0.00     0.061 A 
HETATM   20  C10 UNL     1      -3.094   1.396  10.969  1.00  0.00     0.081 A 
HETATM   21  C11 UNL     1      -4.256   0.586  10.663  1.00  0.00     0.102 C 
HETATM   22  C12 UNL     1      -1.782   1.109  10.645  1.00  0.00     0.101 A 
HETATM   23  N1  UNL     1      -5.176  -0.075  10.408  1.00  0.00    -0.191 NA
HETATM   24 BR1  UNL     1      -1.219  -0.452   9.705  1.00  0.00    -0.030 Br
HETATM   25  N2  UNL     1      -0.978   2.091  11.092  1.00  0.00    -0.344 N 
ATOM     26  H2  UNL     1       0.035   2.123  10.982  1.00  0.00     0.167 HD
ENDBRANCH  16  18
ENDBRANCH  15  16
ENDBRANCH  14  15
ENDBRANCH   5  14
BRANCH   9  27
HETATM   27  N4  UNL     1      -4.526   1.554  16.480  1.00  0.00    -0.164 N 
HETATM   28  C15 UNL     1      -5.546   1.073  17.344  1.00  0.00     0.200 C 
HETATM   29  N5  UNL     1      -6.074   1.861  18.210  1.00  0.00    -0.373 N 
HETATM   30  N6  UNL     1      -5.949  -0.271  17.220  1.00  0.00    -0.063 NA
ATOM     31  H52 UNL     1      -5.782   2.834  18.301  1.00  0.00     0.158 HD
ATOM     32  H51 UNL     1      -6.806   1.516  18.831  1.00  0.00     0.158 HD
ATOM     33  H4  UNL     1      -3.624   1.079  16.452  1.00  0.00     0.187 HD
ENDBRANCH   9  27
TORSDOF 5
ENDMDL
MODEL 3
REMARK VINA RESULT: -9.344825449      2.235      2.635
REMARK  5 active torsions:
REMARK  status: ('A' for Active; 'I' for Inactive)
REMARK    1  A    between atoms: C5_5  and  C6_6 
REMARK    2  A    between atoms: C6_6  and  O1_7 
REMARK    3  A    between atoms: O1_7  and  C7_8 
REMARK    4  A    between atoms: C7_8  and  C8_10 
REMARK    5  A    between atoms: C14_22  and  N4_23 
REMARK       I    between atoms: N4_23  and  C15_25 
ROOT
HETATM    1  C1  UNL     1      -7.332   8.317  11.441  1.00  0.00     0.018 C 
HETATM    2  C2  UNL     1      -6.797   7.369  11.971  1.00  0.00    -0.078 C 
HETATM    3  C3  UNL     1      -6.174   6.243  12.621  1.00  0.00     0.019 A 
HETATM    4  C4  UNL     1      -5.092   5.575  12.067  1.00  0.00     0.032 A 
HETATM    5  C5  UNL     1      -4.499   4.501  12.687  1.00  0.00    -0.003 A 
HETATM    6  C13 UNL     1      -5.020   4.096  13.904  1.00  0.00     0.085 A 
HETATM    7  N3  UNL     1      -4.692   3.103  14.767  1.00  0.00    -0.189 N 
ATOM      8  H3  UNL     1      -3.931   2.437  14.633  1.00  0.00     0.184 HD
HETATM    9  C14 UNL     1      -5.523   3.126  15.832  1.00  0.00     0.685 A 
HETATM   10  N7  UNL     1      -6.384   4.124  15.662  1.00  0.00    -0.189 N 
ATOM     11  H7  UNL     1      -7.131   4.385  16.306  1.00  0.00     0.184 HD
HETATM   12  C16 UNL     1      -6.099   4.737  14.487  1.00  0.00     0.078 A 
HETATM   13  C17 UNL     1      -6.674   5.815  13.838  1.00  0.00     0.053 A 
ENDROOT
BRANCH   5  14
HETATM   14  C6  UNL     1      -3.352   3.752  12.155  1.00  0.00     0.220 C 
BRANCH  14  15
HETATM   15  O1  UNL     1      -3.632   3.073  10.964  1.00  0.00    -0.312 OA
BRANCH  15  16
HETATM   16  C7  UNL     1      -4.268   1.855  11.029  1.00  0.00     0.310 C 
HETATM   17  O2  UNL     1      -5.501   1.803  11.238  1.00  0.00    -0.258 OA
BRANCH  16  18
HETATM   18  C8  UNL     1      -3.532   0.585  10.862  1.00  0.00     0.110 A 
HETATM   19  C9  UNL     1      -3.955  -0.658  11.282  1.00  0.00     0.061 A 
HETATM   20  C10 UNL     1      -3.005  -1.598  10.951  1.00  0.00     0.081 A 
HETATM   21  C11 UNL     1      -3.021  -3.026  11.194  1.00  0.00     0.102 C 
HETATM   22  C12 UNL     1      -2.006  -0.881  10.320  1.00  0.00     0.101 A 
HETATM   23  N1  UNL     1      -3.017  -4.173  11.380  1.00  0.00    -0.191 NA
HETATM   24 BR1  UNL     1      -0.403  -1.646   9.626  1.00  0.00    -0.030 Br
HETATM   25  N2  UNL     1      -2.339   0.421  10.277  1.00  0.00    -0.344 N 
ATOM     26  H2  UNL     1      -1.774   1.164   9.864  1.00  0.00     0.167 HD
ENDBRANCH  16  18
ENDBRANCH  15  16
ENDBRANCH  14  15
ENDBRANCH   5  14
BRANCH   9  27
HETATM   27  N4  UNL     1      -5.403   2.267  16.798  1.00  0.00    -0.164 N 
HETATM   28  C15 UNL     1      -6.289   1.161  16.901  1.00  0.00     0.200 C 
HETATM   29  N5  UNL     1      -7.557   1.360  16.956  1.00  0.00    -0.373 N 
HETATM   30  N6  UNL     1      -5.739  -0.136  16.940  1.00  0.00    -0.063 NA
ATOM     31  H52 UNL     1      -7.955   2.298  16.928  1.00  0.00     0.158 HD
ATOM     32  H51 UNL     1      -8.193   0.566  17.030  1.00  0.00     0.158 HD
ATOM     33  H4  UNL     1      -4.664   2.386  17.491  1.00  0.00     0.187 HD
ENDBRANCH   9  27
TORSDOF 5
ENDMDL
MODEL 4
REMARK VINA RESULT: -9.033705168      1.414      1.507
REMARK  5 active torsions:
REMARK  status: ('A' for Active; 'I' for Inactive)
REMARK    1  A    between atoms: C5_5  and  C6_6 
REMARK    2  A    between atoms: C6_6  and  O1_7 
REMARK    3  A    between atoms: O1_7  and  C7_8 
REMARK    4  A    between atoms: C7_8  and  C8_10 
REMARK    5  A    between atoms: C14_22  and  N4_23 
REMARK       I    between atoms: N4_23  and  C15_25 
ROOT
HETATM    1  C1  UNL     1      -7.073   7.885  11.580  1.00  0.00     0.018 C 
HETATM    2  C2  UNL     1      -6.394   7.119  12.226  1.00  0.00    -0.078 C 
HETATM    3  C3  UNL     1      -5.606   6.194  13.003  1.00  0.00     0.019 A 
HETATM    4  C4  UNL     1      -4.228   6.312  13.117  1.00  0.00     0.032 A 
HETATM    5  C5  UNL     1      -3.477   5.431  13.858  1.00  0.00    -0.003 A 
HETATM    6  C13 UNL     1      -4.145   4.402  14.499  1.00  0.00     0.085 A 
HETATM    7  N3  UNL     1      -3.731   3.381  15.290  1.00  0.00    -0.189 N 
ATOM      8  H3  UNL     1      -2.764   3.201  15.558  1.00  0.00     0.184 HD
HETATM    9  C14 UNL     1      -4.792   2.636  15.671  1.00  0.00     0.685 A 
HETATM   10  N7  UNL     1      -5.884   3.166  15.132  1.00  0.00    -0.189 N 
ATOM     11  H7  UNL     1      -6.836   2.817  15.245  1.00  0.00     0.184 HD
HETATM   12  C16 UNL     1      -5.517   4.252  14.408  1.00  0.00     0.078 A 
HETATM   13  C17 UNL     1      -6.246   5.155  13.655  1.00  0.00     0.053 A 
ENDROOT
BRANCH   5  14
HETATM   14  C6  UNL     1      -2.018   5.500  14.019  1.00  0.00     0.220 C 
BRANCH  14  15
HETATM   15  O1  UNL     1      -1.338   4.442  13.406  1.00  0.00    -0.312 OA
BRANCH  15  16
HETATM   16  C7  UNL     1      -1.080   4.513  12.057  1.00  0.00     0.310 C 
HETATM   17  O2  UNL     1      -0.915   5.627  11.509  1.00  0.00    -0.258 OA
BRANCH  16  18
HETATM   18  C8  UNL     1      -0.991   3.301  11.218  1.00  0.00     0.110 A 
HETATM   19  C9  UNL     1      -1.749   2.158  11.361  1.00  0.00     0.061 A 
HETATM   20  C10 UNL     1      -1.383   1.245  10.398  1.00  0.00     0.081 A 
HETATM   21  C11 UNL     1      -1.907  -0.086  10.166  1.00  0.00     0.102 C 
HETATM   22  C12 UNL     1      -0.387   1.876   9.676  1.00  0.00     0.101 A 
HETATM   23  N1  UNL     1      -2.314  -1.155   9.966  1.00  0.00    -0.191 NA
HETATM   24 BR1  UNL     1       0.523   1.101   8.190  1.00  0.00    -0.030 Br
HETATM   25  N2  UNL     1      -0.167   3.103  10.181  1.00  0.00    -0.344 N 
ATOM     26  H2  UNL     1       0.516   3.774   9.830  1.00  0.00     0.167 HD
ENDBRANCH  16  18
ENDBRANCH  15  16
ENDBRANCH  14  15
ENDBRANCH   5  14
BRANCH   9  27
HETATM   27  N4  UNL     1      -4.644   1.597  16.437  1.00  0.00    -0.164 N 
HETATM   28  C15 UNL     1      -5.666   1.213  17.346  1.00  0.00     0.200 C 
HETATM   29  N5  UNL     1      -6.098   2.054  18.215  1.00  0.00    -0.373 N 
HETATM   30  N6  UNL     1      -6.179  -0.097  17.260  1.00  0.00    -0.063 NA
ATOM     31  H52 UNL     1      -5.727   3.002  18.277  1.00  0.00     0.158 HD
ATOM     32  H51 UNL     1      -6.831   1.778  18.868  1.00  0.00     0.158 HD
ATOM     33  H4  UNL     1      -3.785   1.051  16.386  1.00  0.00     0.187 HD
ENDBRANCH   9  27
TORSDOF 5
ENDMDL
MODEL 5
REMARK VINA RESULT: -8.763826642      2.222      2.405
REMARK  5 active torsions:
REMARK  status: ('A' for Active; 'I' for Inactive)
REMARK    1  A    between atoms: C5_5  and  C6_6 
REMARK    2  A    between atoms: C6_6  and  O1_7 
REMARK    3  A    between atoms: O1_7  and  C7_8 
REMARK    4  A    between atoms: C7_8  and  C8_10 
REMARK    5  A    between atoms: C14_22  and  N4_23 
REMARK       I    between atoms: N4_23  and  C15_25 
ROOT
HETATM    1  C1  UNL     1      -7.324   8.007  11.679  1.00  0.00     0.018 C 
HETATM    2  C2  UNL     1      -6.638   7.140  12.172  1.00  0.00    -0.078 C 
HETATM    3  C3  UNL     1      -5.840   6.102  12.776  1.00  0.00     0.019 A 
HETATM    4  C4  UNL     1      -4.542   5.834  12.364  1.00  0.00     0.032 A 
HETATM    5  C5  UNL     1      -3.781   4.844  12.940  1.00  0.00    -0.003 A 
HETATM    6  C13 UNL     1      -4.356   4.108  13.962  1.00  0.00     0.085 A 
HETATM    7  N3  UNL     1      -3.907   3.085  14.732  1.00  0.00    -0.189 N 
ATOM      8  H3  UNL     1      -2.981   2.663  14.664  1.00  0.00     0.184 HD
HETATM    9  C14 UNL     1      -4.869   2.708  15.602  1.00  0.00     0.685 A 
HETATM   10  N7  UNL     1      -5.933   3.478  15.400  1.00  0.00    -0.189 N 
ATOM     11  H7  UNL     1      -6.815   3.424  15.910  1.00  0.00     0.184 HD
HETATM   12  C16 UNL     1      -5.647   4.346  14.399  1.00  0.00     0.078 A 
HETATM   13  C17 UNL     1      -6.387   5.349  13.799  1.00  0.00     0.053 A 
ENDROOT
BRANCH   5  14
HETATM   14  C6  UNL     1      -2.404   4.511  12.552  1.00  0.00     0.220 C 
BRANCH  14  15
HETATM   15  O1  UNL     1      -2.225   3.160  12.232  1.00  0.00    -0.312 OA
BRANCH  15  16
HETATM   16  C7  UNL     1      -2.505   2.740  10.952  1.00  0.00     0.310 C 
HETATM   17  O2  UNL     1      -3.693   2.577  10.592  1.00  0.00    -0.258 OA
BRANCH  16  18
HETATM   18  C8  UNL     1      -1.433   2.469   9.972  1.00  0.00     0.110 A 
HETATM   19  C9  UNL     1      -0.839   1.248   9.738  1.00  0.00     0.061 A 
HETATM   20  C10 UNL     1       0.116   1.387   8.756  1.00  0.00     0.081 A 
HETATM   21  C11 UNL     1       0.985   0.376   8.189  1.00  0.00     0.102 C 
HETATM   22  C12 UNL     1       0.072   2.724   8.410  1.00  0.00     0.101 A 
HETATM   23  N1  UNL     1       1.690  -0.421   7.723  1.00  0.00    -0.191 NA
HETATM   24 BR1  UNL     1       1.179   3.532   7.083  1.00  0.00    -0.030 Br
HETATM   25  N2  UNL     1      -0.859   3.355   9.147  1.00  0.00    -0.344 N 
ATOM     26  H2  UNL     1      -1.091   4.346   9.088  1.00  0.00     0.167 HD
ENDBRANCH  16  18
ENDBRANCH  15  16
ENDBRANCH  14  15
ENDBRANCH   5  14
BRANCH   9  27
HETATM   27  N4  UNL     1      -4.671   1.743  16.447  1.00  0.00    -0.164 N 
HETATM   28  C15 UNL     1      -5.709   1.310  17.314  1.00  0.00     0.200 C 
HETATM   29  N5  UNL     1      -6.285   2.153  18.093  1.00  0.00    -0.373 N 
HETATM   30  N6  UNL     1      -6.079  -0.050  17.289  1.00  0.00    -0.063 NA
ATOM     31  H52 UNL     1      -6.018   3.137  18.111  1.00  0.00     0.158 HD
ATOM     32  H51 UNL     1      -7.031   1.843  18.716  1.00  0.00     0.158 HD
ATOM     33  H4  UNL     1      -3.758   1.289  16.489  1.00  0.00     0.187 HD
ENDBRANCH   9  27
TORSDOF 5
ENDMDL
