MODEL 1
REMARK VINA RESULT: -8.809339812      0.000      0.000
REMARK  3 active torsions:
REMARK  status: ('A' for Active; 'I' for Inactive)
REMARK    1  A    between atoms: C2_5  and  C3_6 
REMARK    2  A    between atoms: C3_6  and  C4_7 
REMARK    3  A    between atoms: C8_14  and  O2_15 
ROOT
HETATM    1  O1  UNL     1      -3.088   4.593  11.423  1.00  0.00    -0.266 OA
HETATM    2  C1  UNL     1      -4.095   4.871  12.112  1.00  0.00     0.272 A 
HETATM    3  N1  UNL     1      -5.012   5.901  11.840  1.00  0.00    -0.328 N 
ATOM      4  H1  UNL     1      -4.820   6.456  11.006  1.00  0.00     0.168 HD
HETATM    5  C2  UNL     1      -6.049   6.231  12.496  1.00  0.00    -0.002 A 
HETATM    6  C10 UNL     1      -6.404   5.468  13.737  1.00  0.00     0.095 A 
HETATM    7  C11 UNL     1      -5.457   4.379  14.047  1.00  0.00    -0.002 A 
HETATM    8  C12 UNL     1      -4.353   4.064  13.303  1.00  0.00     0.109 A 
HETATM    9  N4  UNL     1      -3.718   3.019  13.876  1.00  0.00    -0.346 N 
ATOM     10  H4  UNL     1      -2.867   2.576  13.533  1.00  0.00     0.166 HD
HETATM   11  C13 UNL     1      -4.403   2.666  14.972  1.00  0.00     0.118 A 
HETATM   12  C14 UNL     1      -5.496   3.484  15.122  1.00  0.00     0.073 A 
HETATM   13  C15 UNL     1      -6.241   3.103  16.310  1.00  0.00     0.261 A 
HETATM   14  O3  UNL     1      -7.283   3.646  16.726  1.00  0.00    -0.267 OA
HETATM   15  N5  UNL     1      -5.533   1.990  16.886  1.00  0.00    -0.288 N 
ATOM     16  H5  UNL     1      -5.803   1.490  17.733  1.00  0.00     0.172 HD
HETATM   17  C16 UNL     1      -4.382   1.697  16.071  1.00  0.00     0.276 A 
HETATM   18  O4  UNL     1      -3.537   0.789  16.273  1.00  0.00    -0.266 OA
ENDROOT
BRANCH   5  19
HETATM   19  C3  UNL     1      -6.964   7.339  12.132  1.00  0.00     0.095 C 
BRANCH  19  20
HETATM   20  C4  UNL     1      -6.541   8.135  10.995  1.00  0.00    -0.008 A 
HETATM   21  C5  UNL     1      -6.062   9.392  10.847  1.00  0.00     0.098 A 
HETATM   22  N2  UNL     1      -5.812   9.643   9.518  1.00  0.00    -0.362 N 
HETATM   23  C6  UNL     1      -6.132   8.545   8.828  1.00  0.00     0.081 A 
ATOM     24  H2  UNL     1      -5.447  10.513   9.129  1.00  0.00     0.165 HD
HETATM   25  C7  UNL     1      -6.166   8.036   7.534  1.00  0.00     0.090 A 
HETATM   26  C9  UNL     1      -6.587   7.589   9.697  1.00  0.00     0.070 A 
HETATM   27 BR1  UNL     1      -5.630   8.985   5.973  1.00  0.00    -0.044 Br
HETATM   28  C8  UNL     1      -6.650   6.751   7.649  1.00  0.00     0.160 A 
HETATM   29  N3  UNL     1      -6.891   6.517   8.949  1.00  0.00    -0.334 N 
ATOM     30  H3  UNL     1      -7.258   5.640   9.319  1.00  0.00     0.168 HD
BRANCH  28  31
HETATM   31  O2  UNL     1      -6.833   5.900   6.573  1.00  0.00    -0.345 OA
ATOM     32  H2  UNL     1      -6.478   5.021   6.531  1.00  0.00     0.219 HD
ENDBRANCH  28  31
ENDBRANCH  19  20
ENDBRANCH   5  19
TORSDOF 3
ENDMDL
MODEL 2
REMARK VINA RESULT: -8.777177380      4.804      6.965
REMARK  3 active torsions:
REMARK  status: ('A' for Active; 'I' for Inactive)
REMARK    1  A    between atoms: C2_5  and  C3_6 
REMARK    2  A    between atoms: C3_6  and  C4_7 
REMARK    3  A    between atoms: C8_14  and  O2_15 
ROOT
HETATM    1  O1  UNL     1       0.561   4.542  11.224  1.00  0.00    -0.266 OA
HETATM    2  C1  UNL     1      -0.605   4.235  11.559  1.00  0.00     0.272 A 
HETATM    3  N1  UNL     1      -1.483   5.045  12.299  1.00  0.00    -0.328 N 
ATOM      4  H1  UNL     1      -1.118   5.956  12.576  1.00  0.00     0.168 HD
HETATM    5  C2  UNL     1      -2.672   4.792  12.669  1.00  0.00    -0.002 A 
HETATM    6  C10 UNL     1      -3.286   3.473  12.307  1.00  0.00     0.095 A 
HETATM    7  C11 UNL     1      -2.385   2.601  11.528  1.00  0.00    -0.002 A 
HETATM    8  C12 UNL     1      -1.109   2.924  11.154  1.00  0.00     0.109 A 
HETATM    9  N4  UNL     1      -0.580   1.897  10.457  1.00  0.00    -0.346 N 
ATOM     10  H4  UNL     1       0.357   1.865  10.056  1.00  0.00     0.166 HD
HETATM   11  C13 UNL     1      -1.500   0.926  10.382  1.00  0.00     0.118 A 
HETATM   12  C14 UNL     1      -2.643   1.317  11.035  1.00  0.00     0.073 A 
HETATM   13  C15 UNL     1      -3.643   0.266  10.955  1.00  0.00     0.261 A 
HETATM   14  O3  UNL     1      -4.789   0.307  11.446  1.00  0.00    -0.267 OA
HETATM   15  N5  UNL     1      -3.040  -0.805  10.206  1.00  0.00    -0.288 N 
ATOM     16  H5  UNL     1      -3.487  -1.692   9.974  1.00  0.00     0.172 HD
HETATM   17  C16 UNL     1      -1.702  -0.419   9.837  1.00  0.00     0.276 A 
HETATM   18  O4  UNL     1      -0.883  -1.107   9.177  1.00  0.00    -0.266 OA
ENDROOT
BRANCH   5  19
HETATM   19  C3  UNL     1      -3.530   5.713  13.452  1.00  0.00     0.095 C 
BRANCH  19  20
HETATM   20  C4  UNL     1      -4.671   5.089  14.095  1.00  0.00    -0.008 A 
HETATM   21  C5  UNL     1      -5.989   5.386  14.178  1.00  0.00     0.098 A 
HETATM   22  N2  UNL     1      -6.638   4.432  14.926  1.00  0.00    -0.362 N 
HETATM   23  C6  UNL     1      -5.731   3.532  15.314  1.00  0.00     0.081 A 
ATOM     24  H2  UNL     1      -7.634   4.415  15.145  1.00  0.00     0.165 HD
HETATM   25  C7  UNL     1      -5.599   2.353  16.042  1.00  0.00     0.090 A 
HETATM   26  C9  UNL     1      -4.504   3.895  14.826  1.00  0.00     0.070 A 
HETATM   27 BR1  UNL     1      -7.024   1.446  16.919  1.00  0.00    -0.044 Br
HETATM   28  C8  UNL     1      -4.263   2.020  15.976  1.00  0.00     0.160 A 
HETATM   29  N3  UNL     1      -3.640   2.958  15.246  1.00  0.00    -0.334 N 
ATOM     30  H3  UNL     1      -2.642   2.959  15.038  1.00  0.00     0.168 HD
BRANCH  28  31
HETATM   31  O2  UNL     1      -3.721   0.899  16.581  1.00  0.00    -0.345 OA
ATOM     32  H2  UNL     1      -2.793   0.700  16.584  1.00  0.00     0.219 HD
ENDBRANCH  28  31
ENDBRANCH  19  20
ENDBRANCH   5  19
TORSDOF 3
ENDMDL
MODEL 3
REMARK VINA RESULT: -8.595468890      1.771      2.135
REMARK  3 active torsions:
REMARK  status: ('A' for Active; 'I' for Inactive)
REMARK    1  A    between atoms: C2_5  and  C3_6 
REMARK    2  A    between atoms: C3_6  and  C4_7 
REMARK    3  A    between atoms: C8_14  and  O2_15 
ROOT
HETATM    1  O1  UNL     1      -2.953   2.144  12.421  1.00  0.00    -0.266 OA
HETATM    2  C1  UNL     1      -3.639   2.989  13.040  1.00  0.00     0.272 A 
HETATM    3  N1  UNL     1      -3.758   4.349  12.703  1.00  0.00    -0.328 N 
ATOM      4  H1  UNL     1      -3.233   4.649  11.882  1.00  0.00     0.168 HD
HETATM    5  C2  UNL     1      -4.434   5.252  13.287  1.00  0.00    -0.002 A 
HETATM    6  C10 UNL     1      -5.233   4.896  14.504  1.00  0.00     0.095 A 
HETATM    7  C11 UNL     1      -5.126   3.473  14.881  1.00  0.00    -0.002 A 
HETATM    8  C12 UNL     1      -4.383   2.538  14.215  1.00  0.00     0.109 A 
HETATM    9  N4  UNL     1      -4.516   1.346  14.832  1.00  0.00    -0.346 N 
ATOM     10  H4  UNL     1      -4.072   0.473  14.550  1.00  0.00     0.166 HD
HETATM   11  C13 UNL     1      -5.333   1.509  15.882  1.00  0.00     0.118 A 
HETATM   12  C14 UNL     1      -5.740   2.818  15.955  1.00  0.00     0.073 A 
HETATM   13  C15 UNL     1      -6.627   2.998  17.092  1.00  0.00     0.261 A 
HETATM   14  O3  UNL     1      -7.169   4.067  17.435  1.00  0.00    -0.267 OA
HETATM   15  N5  UNL     1      -6.741   1.708  17.719  1.00  0.00    -0.288 N 
ATOM     16  H5  UNL     1      -7.296   1.498  18.548  1.00  0.00     0.172 HD
HETATM   17  C16 UNL     1      -5.943   0.760  16.984  1.00  0.00     0.276 A 
HETATM   18  O4  UNL     1      -5.806  -0.461  17.245  1.00  0.00    -0.266 OA
ENDROOT
BRANCH   5  19
HETATM   19  C3  UNL     1      -4.501   6.670  12.859  1.00  0.00     0.095 C 
BRANCH  19  20
HETATM   20  C4  UNL     1      -5.348   6.923  11.708  1.00  0.00    -0.008 A 
HETATM   21  C5  UNL     1      -6.621   7.351  11.546  1.00  0.00     0.098 A 
HETATM   22  N2  UNL     1      -6.925   7.419  10.207  1.00  0.00    -0.362 N 
HETATM   23  C6  UNL     1      -5.844   7.036   9.523  1.00  0.00     0.081 A 
ATOM     24  H2  UNL     1      -7.818   7.711   9.807  1.00  0.00     0.165 HD
HETATM   25  C7  UNL     1      -5.379   6.846   8.225  1.00  0.00     0.090 A 
HETATM   26  C9  UNL     1      -4.846   6.720  10.406  1.00  0.00     0.070 A 
HETATM   27 BR1  UNL     1      -6.396   7.151   6.645  1.00  0.00    -0.044 Br
HETATM   28  C8  UNL     1      -4.078   6.410   8.354  1.00  0.00     0.160 A 
HETATM   29  N3  UNL     1      -3.793   6.345   9.663  1.00  0.00    -0.334 N 
ATOM     30  H3  UNL     1      -2.894   6.050  10.045  1.00  0.00     0.168 HD
BRANCH  28  31
HETATM   31  O2  UNL     1      -3.261   6.106   7.279  1.00  0.00    -0.345 OA
ATOM     32  H2  UNL     1      -3.582   5.968   6.396  1.00  0.00     0.219 HD
ENDBRANCH  28  31
ENDBRANCH  19  20
ENDBRANCH   5  19
TORSDOF 3
ENDMDL
MODEL 4
REMARK VINA RESULT: -8.522381581      4.789      8.023
REMARK  3 active torsions:
REMARK  status: ('A' for Active; 'I' for Inactive)
REMARK    1  A    between atoms: C2_5  and  C3_6 
REMARK    2  A    between atoms: C3_6  and  C4_7 
REMARK    3  A    between atoms: C8_14  and  O2_15 
ROOT
HETATM    1  O1  UNL     1      -3.505   1.668  10.510  1.00  0.00    -0.266 OA
HETATM    2  C1  UNL     1      -2.807   2.581  11.006  1.00  0.00     0.272 A 
HETATM    3  N1  UNL     1      -3.199   3.431  12.055  1.00  0.00    -0.328 N 
ATOM      4  H1  UNL     1      -4.135   3.271  12.428  1.00  0.00     0.168 HD
HETATM    5  C2  UNL     1      -2.542   4.371  12.599  1.00  0.00    -0.002 A 
HETATM    6  C10 UNL     1      -1.158   4.676  12.110  1.00  0.00     0.095 A 
HETATM    7  C11 UNL     1      -0.720   3.798  11.008  1.00  0.00    -0.002 A 
HETATM    8  C12 UNL     1      -1.470   2.795  10.457  1.00  0.00     0.109 A 
HETATM    9  N4  UNL     1      -0.759   2.200   9.476  1.00  0.00    -0.346 N 
ATOM     10  H4  UNL     1      -1.074   1.422   8.897  1.00  0.00     0.166 HD
HETATM   11  C13 UNL     1       0.431   2.810   9.395  1.00  0.00     0.118 A 
HETATM   12  C14 UNL     1       0.504   3.813  10.329  1.00  0.00     0.073 A 
HETATM   13  C15 UNL     1       1.795   4.476  10.244  1.00  0.00     0.261 A 
HETATM   14  O3  UNL     1       2.177   5.427  10.953  1.00  0.00    -0.267 OA
HETATM   15  N5  UNL     1       2.516   3.813   9.191  1.00  0.00    -0.288 N 
ATOM     16  H5  UNL     1       3.461   4.044   8.882  1.00  0.00     0.172 HD
HETATM   17  C16 UNL     1       1.689   2.769   8.643  1.00  0.00     0.276 A 
HETATM   18  O4  UNL     1       1.995   1.987   7.709  1.00  0.00    -0.266 OA
ENDROOT
BRANCH   5  19
HETATM   19  C3  UNL     1      -3.039   5.221  13.708  1.00  0.00     0.095 C 
BRANCH  19  20
HETATM   20  C4  UNL     1      -4.288   4.784  14.303  1.00  0.00    -0.008 A 
HETATM   21  C5  UNL     1      -5.535   5.304  14.374  1.00  0.00     0.098 A 
HETATM   22  N2  UNL     1      -6.359   4.451  15.069  1.00  0.00    -0.362 N 
HETATM   23  C6  UNL     1      -5.634   3.392  15.436  1.00  0.00     0.081 A 
ATOM     24  H2  UNL     1      -7.349   4.601  15.269  1.00  0.00     0.165 HD
HETATM   25  C7  UNL     1      -5.728   2.181  16.116  1.00  0.00     0.090 A 
HETATM   26  C9  UNL     1      -4.350   3.552  14.986  1.00  0.00     0.070 A 
HETATM   27 BR1  UNL     1      -7.312   1.506  16.928  1.00  0.00    -0.044 Br
HETATM   28  C8  UNL     1      -4.470   1.621  16.061  1.00  0.00     0.160 A 
HETATM   29  N3  UNL     1      -3.674   2.463  15.382  1.00  0.00    -0.334 N 
ATOM     30  H3  UNL     1      -2.686   2.296  15.193  1.00  0.00     0.168 HD
BRANCH  28  31
HETATM   31  O2  UNL     1      -4.148   0.401  16.628  1.00  0.00    -0.345 OA
ATOM     32  H2  UNL     1      -4.621   0.018  17.357  1.00  0.00     0.219 HD
ENDBRANCH  28  31
ENDBRANCH  19  20
ENDBRANCH   5  19
TORSDOF 3
ENDMDL
MODEL 5
REMARK VINA RESULT: -8.469066385      4.023      5.689
REMARK  3 active torsions:
REMARK  status: ('A' for Active; 'I' for Inactive)
REMARK    1  A    between atoms: C2_5  and  C3_6 
REMARK    2  A    between atoms: C3_6  and  C4_7 
REMARK    3  A    between atoms: C8_14  and  O2_15 
ROOT
HETATM    1  O1  UNL     1      -7.040   5.981  13.471  1.00  0.00    -0.266 OA
HETATM    2  C1  UNL     1      -5.951   5.409  13.700  1.00  0.00     0.272 A 
HETATM    3  N1  UNL     1      -4.700   5.798  13.189  1.00  0.00    -0.328 N 
ATOM      4  H1  UNL     1      -4.706   6.618  12.583  1.00  0.00     0.168 HD
HETATM    5  C2  UNL     1      -3.565   5.262  13.382  1.00  0.00    -0.002 A 
HETATM    6  C10 UNL     1      -3.467   4.050  14.259  1.00  0.00     0.095 A 
HETATM    7  C11 UNL     1      -4.766   3.619  14.810  1.00  0.00    -0.002 A 
HETATM    8  C12 UNL     1      -5.964   4.235  14.570  1.00  0.00     0.109 A 
HETATM    9  N4  UNL     1      -6.940   3.577  15.232  1.00  0.00    -0.346 N 
ATOM     10  H4  UNL     1      -7.930   3.818  15.231  1.00  0.00     0.166 HD
HETATM   11  C13 UNL     1      -6.379   2.552  15.888  1.00  0.00     0.118 A 
HETATM   12  C14 UNL     1      -5.026   2.536  15.657  1.00  0.00     0.073 A 
HETATM   13  C15 UNL     1      -4.415   1.425  16.369  1.00  0.00     0.261 A 
HETATM   14  O3  UNL     1      -3.203   1.133  16.367  1.00  0.00    -0.267 OA
HETATM   15  N5  UNL     1      -5.486   0.754  17.057  1.00  0.00    -0.288 N 
ATOM     16  H5  UNL     1      -5.386  -0.070  17.650  1.00  0.00     0.172 HD
HETATM   17  C16 UNL     1      -6.722   1.436  16.774  1.00  0.00     0.276 A 
HETATM   18  O4  UNL     1      -7.861   1.127  17.207  1.00  0.00    -0.266 OA
ENDROOT
BRANCH   5  19
HETATM   19  C3  UNL     1      -2.290   5.744  12.798  1.00  0.00     0.095 C 
BRANCH  19  20
HETATM   20  C4  UNL     1      -1.817   4.989  11.652  1.00  0.00    -0.008 A 
HETATM   21  C5  UNL     1      -2.423   4.366  10.615  1.00  0.00     0.098 A 
HETATM   22  N2  UNL     1      -1.478   3.796   9.795  1.00  0.00    -0.362 N 
HETATM   23  C6  UNL     1      -0.276   4.061  10.313  1.00  0.00     0.081 A 
ATOM     24  H2  UNL     1      -1.662   3.266   8.943  1.00  0.00     0.165 HD
HETATM   25  C7  UNL     1       1.082   3.850  10.093  1.00  0.00     0.090 A 
HETATM   26  C9  UNL     1      -0.435   4.794  11.459  1.00  0.00     0.070 A 
HETATM   27 BR1  UNL     1       1.814   2.884   8.625  1.00  0.00    -0.044 Br
HETATM   28  C8  UNL     1       1.732   4.477  11.135  1.00  0.00     0.160 A 
HETATM   29  N3  UNL     1       0.800   5.027  11.930  1.00  0.00    -0.334 N 
ATOM     30  H3  UNL     1       1.004   5.553  12.779  1.00  0.00     0.168 HD
BRANCH  28  31
HETATM   31  O2  UNL     1       3.108   4.496  11.281  1.00  0.00    -0.345 OA
ATOM     32  H2  UNL     1       3.551   4.362  12.110  1.00  0.00     0.219 HD
ENDBRANCH  28  31
ENDBRANCH  19  20
ENDBRANCH   5  19
TORSDOF 3
ENDMDL
