MODEL 1
REMARK VINA RESULT: -8.741350151      0.000      0.000
REMARK  15 active torsions:
REMARK  status: ('A' for Active; 'I' for Inactive)
REMARK    1  A    between atoms: C2_2  and  N1_4 
REMARK       I    between atoms: N1_4  and  C4_6 
REMARK    2  A    between atoms: C4_6  and  C5_8 
REMARK    3  A    between atoms: C5_8  and  C6_9 
REMARK    4  A    between atoms: C5_8  and  N2_16 
REMARK    5  A    between atoms: C6_9  and  C7_10 
REMARK    6  A    between atoms: N2_16  and  C13_18 
REMARK    7  A    between atoms: C13_18  and  O2_19 
REMARK    8  A    between atoms: C13_18  and  C14_21 
REMARK    9  A    between atoms: C14_21  and  C15_23 
REMARK   10  A    between atoms: C15_23  and  N3_24 
REMARK   11  A    between atoms: N3_24  and  C16_27 
REMARK   12  A    between atoms: C16_27  and  C17_28 
REMARK   13  A    between atoms: C17_28  and  C18_29 
REMARK   14  A    between atoms: C18_29  and  O4_30 
REMARK   15  A    between atoms: N4_32  and  O5_34 
ROOT
HETATM    1  C13 UNL     1      26.502 -13.825   9.834  1.00  0.00     0.287 C 
ENDROOT
BRANCH   1   2
HETATM    2  N2  UNL     1      27.784 -13.970  10.358  1.00  0.00    -0.378 N 
ATOM      3  H2  UNL     1      28.126 -13.336  11.081  1.00  0.00     0.157 HD
BRANCH   2   4
HETATM    4  C5  UNL     1      28.625 -15.048   9.850  1.00  0.00     0.172 C 
BRANCH   4   5
HETATM    5  C4  UNL     1      29.758 -14.392   9.137  1.00  0.00     0.240 C 
HETATM    6  N1  UNL     1      29.555 -13.551   8.011  1.00  0.00    -0.355 N 
ATOM      7  H1  UNL     1      28.616 -13.377   7.654  1.00  0.00     0.162 HD
HETATM    8  O1  UNL     1      30.929 -14.625   9.593  1.00  0.00    -0.271 OA
BRANCH   6   9
HETATM    9  C2  UNL     1      30.702 -12.947   7.385  1.00  0.00     0.076 C 
HETATM   10  C1  UNL     1      30.582 -11.482   7.096  1.00  0.00     0.032 C 
HETATM   11  C3  UNL     1      30.984 -13.627   6.042  1.00  0.00     0.032 C 
ENDBRANCH   6   9
ENDBRANCH   4   5
BRANCH   4  12
HETATM   12  C6  UNL     1      29.296 -15.675  11.103  1.00  0.00     0.039 C 
BRANCH  12  13
HETATM   13  C7  UNL     1      28.412 -16.710  11.693  1.00  0.00    -0.012 C 
HETATM   14  C8  UNL     1      29.057 -18.044  11.876  1.00  0.00     0.005 C 
HETATM   15  C9  UNL     1      28.847 -18.566  13.287  1.00  0.00     0.000 C 
HETATM   16  C10 UNL     1      29.458 -17.599  14.271  1.00  0.00     0.000 C 
HETATM   17  C11 UNL     1      28.820 -16.255  14.114  1.00  0.00     0.000 C 
HETATM   18  C12 UNL     1      27.810 -16.214  12.978  1.00  0.00     0.005 C 
ENDBRANCH  12  13
ENDBRANCH   4  12
ENDBRANCH   2   4
ENDBRANCH   1   2
BRANCH   1  19
HETATM   19  O2  UNL     1      26.301 -13.122   8.677  1.00  0.00    -0.370 OA
ATOM     20  H2  UNL     1      25.431 -12.822   8.440  1.00  0.00     0.212 HD
ENDBRANCH   1  19
BRANCH   1  21
HETATM   21  C14 UNL     1      25.509 -13.355  10.844  1.00  0.00     0.200 C 
HETATM   22  O3  UNL     1      25.872 -12.488  11.636  1.00  0.00    -0.291 OA
BRANCH  21  23
HETATM   23  C15 UNL     1      24.134 -13.889  10.916  1.00  0.00     0.314 C 
BRANCH  23  24
HETATM   24  N3  UNL     1      23.276 -13.004  10.077  1.00  0.00    -0.068 N 
ATOM     25  H32 UNL     1      22.623 -12.440  10.622  1.00  0.00     0.277 HD
ATOM     26  H31 UNL     1      23.788 -12.232   9.651  1.00  0.00     0.277 HD
BRANCH  24  27
HETATM   27  C16 UNL     1      22.618 -13.866   9.103  1.00  0.00     0.240 C 
BRANCH  27  28
HETATM   28  C17 UNL     1      23.201 -13.626   7.712  1.00  0.00     0.113 C 
BRANCH  28  29
HETATM   29  C18 UNL     1      22.896 -14.808   6.856  1.00  0.00     0.136 C 
HETATM   30  N4  UNL     1      21.949 -14.725   5.996  1.00  0.00    -0.251 N 
ATOM     31  H4  UNL     1      21.753 -15.544   5.420  1.00  0.00     0.196 HD
BRANCH  29  32
HETATM   32  O4  UNL     1      23.617 -15.964   6.966  1.00  0.00    -0.348 OA
ATOM     33  H4  UNL     1      23.185 -16.809   7.006  1.00  0.00     0.219 HD
ENDBRANCH  29  32
BRANCH  30  34
HETATM   34  O5  UNL     1      21.181 -13.602   5.802  1.00  0.00    -0.288 OA
ATOM     35  H5  UNL     1      21.512 -12.784   5.452  1.00  0.00     0.244 HD
ENDBRANCH  30  34
ENDBRANCH  28  29
ENDBRANCH  27  28
ENDBRANCH  24  27
ENDBRANCH  23  24
ENDBRANCH  21  23
ENDBRANCH   1  21
TORSDOF 15
ENDMDL
MODEL 2
REMARK VINA RESULT: -8.695094950      0.319      1.023
REMARK  15 active torsions:
REMARK  status: ('A' for Active; 'I' for Inactive)
REMARK    1  A    between atoms: C2_2  and  N1_4 
REMARK       I    between atoms: N1_4  and  C4_6 
REMARK    2  A    between atoms: C4_6  and  C5_8 
REMARK    3  A    between atoms: C5_8  and  C6_9 
REMARK    4  A    between atoms: C5_8  and  N2_16 
REMARK    5  A    between atoms: C6_9  and  C7_10 
REMARK    6  A    between atoms: N2_16  and  C13_18 
REMARK    7  A    between atoms: C13_18  and  O2_19 
REMARK    8  A    between atoms: C13_18  and  C14_21 
REMARK    9  A    between atoms: C14_21  and  C15_23 
REMARK   10  A    between atoms: C15_23  and  N3_24 
REMARK   11  A    between atoms: N3_24  and  C16_27 
REMARK   12  A    between atoms: C16_27  and  C17_28 
REMARK   13  A    between atoms: C17_28  and  C18_29 
REMARK   14  A    between atoms: C18_29  and  O4_30 
REMARK   15  A    between atoms: N4_32  and  O5_34 
ROOT
HETATM    1  C13 UNL     1      26.481 -13.797   9.709  1.00  0.00     0.287 C 
ENDROOT
BRANCH   1   2
HETATM    2  N2  UNL     1      27.742 -13.935  10.284  1.00  0.00    -0.378 N 
ATOM      3  H2  UNL     1      28.053 -13.298  11.017  1.00  0.00     0.157 HD
BRANCH   2   4
HETATM    4  C5  UNL     1      28.606 -15.012   9.813  1.00  0.00     0.172 C 
BRANCH   4   5
HETATM    5  C4  UNL     1      29.746 -14.356   9.112  1.00  0.00     0.240 C 
HETATM    6  N1  UNL     1      29.555 -13.533   7.969  1.00  0.00    -0.355 N 
ATOM      7  H1  UNL     1      28.621 -13.375   7.592  1.00  0.00     0.162 HD
HETATM    8  O1  UNL     1      30.910 -14.571   9.593  1.00  0.00    -0.271 OA
BRANCH   6   9
HETATM    9  C2  UNL     1      30.708 -12.928   7.355  1.00  0.00     0.076 C 
HETATM   10  C1  UNL     1      30.588 -11.464   7.062  1.00  0.00     0.032 C 
HETATM   11  C3  UNL     1      31.008 -13.610   6.017  1.00  0.00     0.032 C 
ENDBRANCH   6   9
ENDBRANCH   4   5
BRANCH   4  12
HETATM   12  C6  UNL     1      29.258 -15.607  11.091  1.00  0.00     0.039 C 
BRANCH  12  13
HETATM   13  C7  UNL     1      28.382 -16.656  11.671  1.00  0.00    -0.012 C 
HETATM   14  C8  UNL     1      29.037 -17.986  11.839  1.00  0.00     0.005 C 
HETATM   15  C9  UNL     1      28.834 -18.525  13.245  1.00  0.00     0.000 C 
HETATM   16  C10 UNL     1      29.439 -17.565  14.238  1.00  0.00     0.000 C 
HETATM   17  C11 UNL     1      28.791 -16.223  14.096  1.00  0.00     0.000 C 
HETATM   18  C12 UNL     1      27.779 -16.178  12.963  1.00  0.00     0.005 C 
ENDBRANCH  12  13
ENDBRANCH   4  12
ENDBRANCH   2   4
ENDBRANCH   1   2
BRANCH   1  19
HETATM   19  O2  UNL     1      26.324 -13.108   8.537  1.00  0.00    -0.370 OA
ATOM     20  H2  UNL     1      25.530 -13.203   8.024  1.00  0.00     0.212 HD
ENDBRANCH   1  19
BRANCH   1  21
HETATM   21  C14 UNL     1      25.450 -13.313  10.674  1.00  0.00     0.200 C 
HETATM   22  O3  UNL     1      25.766 -12.396  11.429  1.00  0.00    -0.291 OA
BRANCH  21  23
HETATM   23  C15 UNL     1      24.094 -13.892  10.746  1.00  0.00     0.314 C 
BRANCH  23  24
HETATM   24  N3  UNL     1      23.199 -13.014   9.940  1.00  0.00    -0.068 N 
ATOM     25  H32 UNL     1      22.497 -12.530  10.501  1.00  0.00     0.277 HD
ATOM     26  H31 UNL     1      23.668 -12.183   9.578  1.00  0.00     0.277 HD
BRANCH  24  27
HETATM   27  C16 UNL     1      22.623 -13.851   8.897  1.00  0.00     0.240 C 
BRANCH  27  28
HETATM   28  C17 UNL     1      23.315 -13.577   7.563  1.00  0.00     0.113 C 
BRANCH  28  29
HETATM   29  C18 UNL     1      22.553 -14.263   6.480  1.00  0.00     0.136 C 
HETATM   30  N4  UNL     1      22.937 -15.421   6.087  1.00  0.00    -0.251 N 
ATOM     31  H4  UNL     1      22.406 -15.875   5.345  1.00  0.00     0.196 HD
BRANCH  29  32
HETATM   32  O4  UNL     1      21.451 -13.683   5.916  1.00  0.00    -0.348 OA
ATOM     33  H4  UNL     1      21.460 -12.772   5.646  1.00  0.00     0.219 HD
ENDBRANCH  29  32
BRANCH  30  34
HETATM   34  O5  UNL     1      24.022 -16.089   6.604  1.00  0.00    -0.288 OA
ATOM     35  H5  UNL     1      24.515 -16.750   6.132  1.00  0.00     0.244 HD
ENDBRANCH  30  34
ENDBRANCH  28  29
ENDBRANCH  27  28
ENDBRANCH  24  27
ENDBRANCH  23  24
ENDBRANCH  21  23
ENDBRANCH   1  21
TORSDOF 15
ENDMDL
MODEL 3
REMARK VINA RESULT: -8.640732125      1.403      1.935
REMARK  15 active torsions:
REMARK  status: ('A' for Active; 'I' for Inactive)
REMARK    1  A    between atoms: C2_2  and  N1_4 
REMARK       I    between atoms: N1_4  and  C4_6 
REMARK    2  A    between atoms: C4_6  and  C5_8 
REMARK    3  A    between atoms: C5_8  and  C6_9 
REMARK    4  A    between atoms: C5_8  and  N2_16 
REMARK    5  A    between atoms: C6_9  and  C7_10 
REMARK    6  A    between atoms: N2_16  and  C13_18 
REMARK    7  A    between atoms: C13_18  and  O2_19 
REMARK    8  A    between atoms: C13_18  and  C14_21 
REMARK    9  A    between atoms: C14_21  and  C15_23 
REMARK   10  A    between atoms: C15_23  and  N3_24 
REMARK   11  A    between atoms: N3_24  and  C16_27 
REMARK   12  A    between atoms: C16_27  and  C17_28 
REMARK   13  A    between atoms: C17_28  and  C18_29 
REMARK   14  A    between atoms: C18_29  and  O4_30 
REMARK   15  A    between atoms: N4_32  and  O5_34 
ROOT
HETATM    1  C13 UNL     1      25.523 -13.910  11.162  1.00  0.00     0.287 C 
ENDROOT
BRANCH   1   2
HETATM    2  N2  UNL     1      26.559 -13.616  10.281  1.00  0.00    -0.378 N 
ATOM      3  H2  UNL     1      26.804 -12.649  10.067  1.00  0.00     0.157 HD
BRANCH   2   4
HETATM    4  C5  UNL     1      27.288 -14.723   9.671  1.00  0.00     0.172 C 
BRANCH   4   5
HETATM    5  C4  UNL     1      27.924 -14.175   8.439  1.00  0.00     0.240 C 
HETATM    6  N1  UNL     1      29.179 -13.510   8.470  1.00  0.00    -0.355 N 
ATOM      7  H1  UNL     1      29.679 -13.382   9.350  1.00  0.00     0.162 HD
HETATM    8  O1  UNL     1      27.281 -14.337   7.346  1.00  0.00    -0.271 OA
BRANCH   6   9
HETATM    9  C2  UNL     1      29.730 -13.019   7.234  1.00  0.00     0.076 C 
HETATM   10  C1  UNL     1      30.615 -13.977   6.498  1.00  0.00     0.032 C 
HETATM   11  C3  UNL     1      30.575 -11.769   7.497  1.00  0.00     0.032 C 
ENDBRANCH   6   9
ENDBRANCH   4   5
BRANCH   4  12
HETATM   12  C6  UNL     1      28.492 -14.995  10.613  1.00  0.00     0.039 C 
BRANCH  12  13
HETATM   13  C7  UNL     1      28.368 -16.341  11.225  1.00  0.00    -0.012 C 
HETATM   14  C8  UNL     1      29.639 -17.123  11.263  1.00  0.00     0.005 C 
HETATM   15  C9  UNL     1      29.904 -17.673  12.655  1.00  0.00     0.000 C 
HETATM   16  C10 UNL     1      30.017 -16.527  13.630  1.00  0.00     0.000 C 
HETATM   17  C11 UNL     1      28.749 -15.732  13.617  1.00  0.00     0.000 C 
HETATM   18  C12 UNL     1      27.749 -16.241  12.591  1.00  0.00     0.005 C 
ENDBRANCH  12  13
ENDBRANCH   4  12
ENDBRANCH   2   4
ENDBRANCH   1   2
BRANCH   1  19
HETATM   19  O2  UNL     1      24.986 -15.169  11.208  1.00  0.00    -0.370 OA
ATOM     20  H2  UNL     1      24.999 -15.670  12.015  1.00  0.00     0.212 HD
ENDBRANCH   1  19
BRANCH   1  21
HETATM   21  C14 UNL     1      24.401 -12.928  11.092  1.00  0.00     0.200 C 
HETATM   22  O3  UNL     1      24.647 -11.763  11.397  1.00  0.00    -0.291 OA
BRANCH  21  23
HETATM   23  C15 UNL     1      23.037 -13.307  10.676  1.00  0.00     0.314 C 
BRANCH  23  24
HETATM   24  N3  UNL     1      23.163 -14.065   9.398  1.00  0.00    -0.068 N 
ATOM     25  H32 UNL     1      24.125 -14.317   9.172  1.00  0.00     0.277 HD
ATOM     26  H31 UNL     1      22.791 -15.014   9.454  1.00  0.00     0.277 HD
BRANCH  24  27
HETATM   27  C16 UNL     1      22.523 -13.256   8.370  1.00  0.00     0.240 C 
BRANCH  27  28
HETATM   28  C17 UNL     1      23.269 -13.403   7.046  1.00  0.00     0.113 C 
BRANCH  28  29
HETATM   29  C18 UNL     1      22.797 -14.643   6.366  1.00  0.00     0.136 C 
HETATM   30  N4  UNL     1      23.488 -15.716   6.480  1.00  0.00    -0.251 N 
ATOM     31  H4  UNL     1      23.151 -16.555   6.008  1.00  0.00     0.196 HD
BRANCH  29  32
HETATM   32  O4  UNL     1      21.638 -14.653   5.641  1.00  0.00    -0.348 OA
ATOM     33  H4  UNL     1      21.519 -15.254   4.914  1.00  0.00     0.219 HD
ENDBRANCH  29  32
BRANCH  30  34
HETATM   34  O5  UNL     1      24.656 -15.808   7.199  1.00  0.00    -0.288 OA
ATOM     35  H5  UNL     1      25.457 -16.196   6.868  1.00  0.00     0.244 HD
ENDBRANCH  30  34
ENDBRANCH  28  29
ENDBRANCH  27  28
ENDBRANCH  24  27
ENDBRANCH  23  24
ENDBRANCH  21  23
ENDBRANCH   1  21
TORSDOF 15
ENDMDL
MODEL 4
REMARK VINA RESULT: -8.505216604      1.764      2.551
REMARK  15 active torsions:
REMARK  status: ('A' for Active; 'I' for Inactive)
REMARK    1  A    between atoms: C2_2  and  N1_4 
REMARK       I    between atoms: N1_4  and  C4_6 
REMARK    2  A    between atoms: C4_6  and  C5_8 
REMARK    3  A    between atoms: C5_8  and  C6_9 
REMARK    4  A    between atoms: C5_8  and  N2_16 
REMARK    5  A    between atoms: C6_9  and  C7_10 
REMARK    6  A    between atoms: N2_16  and  C13_18 
REMARK    7  A    between atoms: C13_18  and  O2_19 
REMARK    8  A    between atoms: C13_18  and  C14_21 
REMARK    9  A    between atoms: C14_21  and  C15_23 
REMARK   10  A    between atoms: C15_23  and  N3_24 
REMARK   11  A    between atoms: N3_24  and  C16_27 
REMARK   12  A    between atoms: C16_27  and  C17_28 
REMARK   13  A    between atoms: C17_28  and  C18_29 
REMARK   14  A    between atoms: C18_29  and  O4_30 
REMARK   15  A    between atoms: N4_32  and  O5_34 
ROOT
HETATM    1  C13 UNL     1      25.252 -13.452  11.001  1.00  0.00     0.287 C 
ENDROOT
BRANCH   1   2
HETATM    2  N2  UNL     1      25.792 -14.478  11.771  1.00  0.00    -0.378 N 
ATOM      3  H2  UNL     1      25.318 -14.802  12.615  1.00  0.00     0.157 HD
BRANCH   2   4
HETATM    4  C5  UNL     1      27.049 -15.080  11.344  1.00  0.00     0.172 C 
BRANCH   4   5
HETATM    5  C4  UNL     1      28.047 -13.974  11.297  1.00  0.00     0.240 C 
HETATM    6  N1  UNL     1      28.797 -13.683  10.127  1.00  0.00    -0.355 N 
ATOM      7  H1  UNL     1      28.674 -14.237   9.279  1.00  0.00     0.162 HD
HETATM    8  O1  UNL     1      28.195 -13.295  12.370  1.00  0.00    -0.271 OA
BRANCH   6   9
HETATM    9  C2  UNL     1      29.734 -12.591  10.161  1.00  0.00     0.076 C 
HETATM   10  C1  UNL     1      30.064 -11.983   8.831  1.00  0.00     0.032 C 
HETATM   11  C3  UNL     1      31.063 -13.059  10.760  1.00  0.00     0.032 C 
ENDBRANCH   6   9
ENDBRANCH   4   5
BRANCH   4  12
HETATM   12  C6  UNL     1      27.522 -15.948  12.542  1.00  0.00     0.039 C 
BRANCH  12  13
HETATM   13  C7  UNL     1      28.887 -16.471  12.288  1.00  0.00    -0.012 C 
HETATM   14  C8  UNL     1      29.832 -16.317  13.434  1.00  0.00     0.005 C 
HETATM   15  C9  UNL     1      30.530 -17.629  13.751  1.00  0.00     0.000 C 
HETATM   16  C10 UNL     1      29.497 -18.666  14.117  1.00  0.00     0.000 C 
HETATM   17  C11 UNL     1      28.542 -18.846  12.979  1.00  0.00     0.000 C 
HETATM   18  C12 UNL     1      28.823 -17.899  11.823  1.00  0.00     0.005 C 
ENDBRANCH  12  13
ENDBRANCH   4  12
ENDBRANCH   2   4
ENDBRANCH   1   2
BRANCH   1  19
HETATM   19  O2  UNL     1      25.482 -12.143  11.331  1.00  0.00    -0.370 OA
ATOM     20  H2  UNL     1      26.227 -11.906  11.870  1.00  0.00     0.212 HD
ENDBRANCH   1  19
BRANCH   1  21
HETATM   21  C14 UNL     1      23.790 -13.618  10.750  1.00  0.00     0.200 C 
HETATM   22  O3  UNL     1      23.099 -14.036  11.676  1.00  0.00    -0.291 OA
BRANCH  21  23
HETATM   23  C15 UNL     1      23.166 -13.302   9.450  1.00  0.00     0.314 C 
BRANCH  23  24
HETATM   24  N3  UNL     1      22.036 -14.257   9.263  1.00  0.00    -0.068 N 
ATOM     25  H32 UNL     1      22.158 -15.131   9.775  1.00  0.00     0.277 HD
ATOM     26  H31 UNL     1      21.175 -13.958   9.722  1.00  0.00     0.277 HD
BRANCH  24  27
HETATM   27  C16 UNL     1      21.886 -14.448   7.826  1.00  0.00     0.240 C 
BRANCH  27  28
HETATM   28  C17 UNL     1      23.194 -14.112   7.113  1.00  0.00     0.113 C 
BRANCH  28  29
HETATM   29  C18 UNL     1      23.252 -14.878   5.835  1.00  0.00     0.136 C 
HETATM   30  N4  UNL     1      23.701 -16.079   5.849  1.00  0.00    -0.251 N 
ATOM     31  H4  UNL     1      23.734 -16.588   4.966  1.00  0.00     0.196 HD
BRANCH  29  32
HETATM   32  O4  UNL     1      22.823 -14.325   4.661  1.00  0.00    -0.348 OA
ATOM     33  H4  UNL     1      23.436 -14.105   3.969  1.00  0.00     0.219 HD
ENDBRANCH  29  32
BRANCH  30  34
HETATM   34  O5  UNL     1      24.140 -16.723   6.981  1.00  0.00    -0.288 OA
ATOM     35  H5  UNL     1      24.663 -16.312   7.659  1.00  0.00     0.244 HD
ENDBRANCH  30  34
ENDBRANCH  28  29
ENDBRANCH  27  28
ENDBRANCH  24  27
ENDBRANCH  23  24
ENDBRANCH  21  23
ENDBRANCH   1  21
TORSDOF 15
ENDMDL
MODEL 5
REMARK VINA RESULT: -8.453810302      1.680      4.730
REMARK  15 active torsions:
REMARK  status: ('A' for Active; 'I' for Inactive)
REMARK    1  A    between atoms: C2_2  and  N1_4 
REMARK       I    between atoms: N1_4  and  C4_6 
REMARK    2  A    between atoms: C4_6  and  C5_8 
REMARK    3  A    between atoms: C5_8  and  C6_9 
REMARK    4  A    between atoms: C5_8  and  N2_16 
REMARK    5  A    between atoms: C6_9  and  C7_10 
REMARK    6  A    between atoms: N2_16  and  C13_18 
REMARK    7  A    between atoms: C13_18  and  O2_19 
REMARK    8  A    between atoms: C13_18  and  C14_21 
REMARK    9  A    between atoms: C14_21  and  C15_23 
REMARK   10  A    between atoms: C15_23  and  N3_24 
REMARK   11  A    between atoms: N3_24  and  C16_27 
REMARK   12  A    between atoms: C16_27  and  C17_28 
REMARK   13  A    between atoms: C17_28  and  C18_29 
REMARK   14  A    between atoms: C18_29  and  O4_30 
REMARK   15  A    between atoms: N4_32  and  O5_34 
ROOT
HETATM    1  C13 UNL     1      25.860 -14.439  12.069  1.00  0.00     0.287 C 
ENDROOT
BRANCH   1   2
HETATM    2  N2  UNL     1      26.632 -15.384  11.400  1.00  0.00    -0.378 N 
ATOM      3  H2  UNL     1      26.249 -16.302  11.170  1.00  0.00     0.157 HD
BRANCH   2   4
HETATM    4  C5  UNL     1      28.000 -15.033  11.035  1.00  0.00     0.172 C 
BRANCH   4   5
HETATM    5  C4  UNL     1      28.854 -16.175  11.469  1.00  0.00     0.240 C 
HETATM    6  N1  UNL     1      28.422 -17.112  12.446  1.00  0.00    -0.355 N 
ATOM      7  H1  UNL     1      27.507 -17.020  12.886  1.00  0.00     0.162 HD
HETATM    8  O1  UNL     1      30.001 -16.272  10.913  1.00  0.00    -0.271 OA
BRANCH   6   9
HETATM    9  C2  UNL     1      29.303 -18.193  12.802  1.00  0.00     0.076 C 
HETATM   10  C1  UNL     1      28.629 -19.445  13.274  1.00  0.00     0.032 C 
HETATM   11  C3  UNL     1      30.237 -17.756  13.934  1.00  0.00     0.032 C 
ENDBRANCH   6   9
ENDBRANCH   4   5
BRANCH   4  12
HETATM   12  C6  UNL     1      28.048 -15.110   9.485  1.00  0.00     0.039 C 
BRANCH  12  13
HETATM   13  C7  UNL     1      28.224 -13.753   8.911  1.00  0.00    -0.012 C 
HETATM   14  C8  UNL     1      28.712 -12.729   9.881  1.00  0.00     0.005 C 
HETATM   15  C9  UNL     1      29.906 -11.971   9.325  1.00  0.00     0.000 C 
HETATM   16  C10 UNL     1      31.027 -12.942   9.047  1.00  0.00     0.000 C 
HETATM   17  C11 UNL     1      30.565 -13.974   8.069  1.00  0.00     0.000 C 
HETATM   18  C12 UNL     1      29.101 -13.811   7.691  1.00  0.00     0.005 C 
ENDBRANCH  12  13
ENDBRANCH   4  12
ENDBRANCH   2   4
ENDBRANCH   1   2
BRANCH   1  19
HETATM   19  O2  UNL     1      24.978 -14.826  13.042  1.00  0.00    -0.370 OA
ATOM     20  H2  UNL     1      24.050 -14.648  12.950  1.00  0.00     0.212 HD
ENDBRANCH   1  19
BRANCH   1  21
HETATM   21  C14 UNL     1      25.153 -13.503  11.146  1.00  0.00     0.200 C 
HETATM   22  O3  UNL     1      25.201 -12.304  11.408  1.00  0.00    -0.291 OA
BRANCH  21  23
HETATM   23  C15 UNL     1      24.415 -13.968   9.955  1.00  0.00     0.314 C 
BRANCH  23  24
HETATM   24  N3  UNL     1      22.970 -13.698  10.202  1.00  0.00    -0.068 N 
ATOM     25  H32 UNL     1      22.595 -14.209  11.001  1.00  0.00     0.277 HD
ATOM     26  H31 UNL     1      22.790 -12.758  10.555  1.00  0.00     0.277 HD
BRANCH  24  27
HETATM   27  C16 UNL     1      22.273 -13.988   8.955  1.00  0.00     0.240 C 
BRANCH  27  28
HETATM   28  C17 UNL     1      23.195 -13.725   7.766  1.00  0.00     0.113 C 
BRANCH  28  29
HETATM   29  C18 UNL     1      22.564 -14.290   6.539  1.00  0.00     0.136 C 
HETATM   30  N4  UNL     1      23.003 -15.399   6.069  1.00  0.00    -0.251 N 
ATOM     31  H4  UNL     1      22.561 -15.771   5.229  1.00  0.00     0.196 HD
BRANCH  29  32
HETATM   32  O4  UNL     1      21.524 -13.653   5.922  1.00  0.00    -0.348 OA
ATOM     33  H4  UNL     1      21.631 -12.786   5.551  1.00  0.00     0.219 HD
ENDBRANCH  29  32
BRANCH  30  34
HETATM   34  O5  UNL     1      24.033 -16.119   6.628  1.00  0.00    -0.288 OA
ATOM     35  H5  UNL     1      23.936 -16.990   6.995  1.00  0.00     0.244 HD
ENDBRANCH  30  34
ENDBRANCH  28  29
ENDBRANCH  27  28
ENDBRANCH  24  27
ENDBRANCH  23  24
ENDBRANCH  21  23
ENDBRANCH   1  21
TORSDOF 15
ENDMDL
