MODEL 1
REMARK VINA RESULT: -8.271058628      0.000      0.000
REMARK  14 active torsions:
REMARK  status: ('A' for Active; 'I' for Inactive)
REMARK    1  A    between atoms: C2_2  and  C3_3 
REMARK    2  A    between atoms: C3_3  and  C5_5 
REMARK    3  A    between atoms: C5_5  and  N1_6 
REMARK    4  A    between atoms: C5_5  and  C17_32 
REMARK       I    between atoms: N1_6  and  C6_8 
REMARK    5  A    between atoms: C6_8  and  C7_10 
REMARK    6  A    between atoms: C7_10  and  O2_11 
REMARK    7  A    between atoms: C7_10  and  N2_13 
REMARK    8  A    between atoms: N2_13  and  C8_16 
REMARK    9  A    between atoms: C8_16  and  C9_17 
REMARK   10  A    between atoms: C8_16  and  C16_25 
REMARK   11  A    between atoms: C9_17  and  O3_18 
REMARK   12  A    between atoms: O3_18  and  C10_19 
REMARK   13  A    between atoms: C16_25  and  O4_26 
REMARK   14  A    between atoms: N3_28  and  O5_30 
ROOT
HETATM    1  N2  UNL     1      27.763 -12.941   8.986  1.00  0.00    -0.026 N 
ATOM      2  H21 UNL     1      26.950 -12.951   8.370  1.00  0.00     0.281 HD
ATOM      3  H22 UNL     1      27.842 -11.939   9.158  1.00  0.00     0.281 HD
ENDROOT
BRANCH   1   4
HETATM    4  C7  UNL     1      28.904 -13.412   8.300  1.00  0.00     0.412 C 
BRANCH   4   5
HETATM    5  C6  UNL     1      29.890 -12.416   7.847  1.00  0.00     0.275 C 
HETATM    6  N1  UNL     1      30.485 -12.540   6.571  1.00  0.00    -0.343 N 
ATOM      7  H1  UNL     1      30.229 -13.326   5.973  1.00  0.00     0.163 HD
HETATM    8  O1  UNL     1      30.229 -11.448   8.559  1.00  0.00    -0.269 OA
BRANCH   6   9
HETATM    9  C5  UNL     1      31.452 -11.568   6.098  1.00  0.00     0.189 C 
BRANCH   9  10
HETATM   10  C3  UNL     1      31.093 -11.120   4.720  1.00  0.00     0.014 C 
HETATM   11  C4  UNL     1      30.052 -10.012   4.873  1.00  0.00     0.012 C 
BRANCH  10  12
HETATM   12  C2  UNL     1      30.443 -12.301   4.000  1.00  0.00     0.002 C 
HETATM   13  C1  UNL     1      29.684 -11.827   2.781  1.00  0.00     0.005 C 
ENDBRANCH  10  12
ENDBRANCH   9  10
BRANCH   9  14
HETATM   14  C17 UNL     1      32.814 -12.257   6.086  1.00  0.00     0.197 C 
HETATM   15  O6  UNL     1      32.944 -13.315   6.796  1.00  0.00    -0.646 OA
HETATM   16  O7  UNL     1      33.820 -11.734   5.334  1.00  0.00    -0.646 OA
ENDBRANCH   9  14
ENDBRANCH   6   9
ENDBRANCH   4   5
BRANCH   4  17
HETATM   17  O2  UNL     1      28.559 -14.267   7.243  1.00  0.00    -0.363 OA
ATOM     18  H2  UNL     1      27.737 -14.704   7.431  1.00  0.00     0.212 HD
ENDBRANCH   4  17
ENDBRANCH   1   4
BRANCH   1  19
HETATM   19  C8  UNL     1      27.475 -13.626  10.192  1.00  0.00     0.288 C 
BRANCH  19  20
HETATM   20  C9  UNL     1      28.779 -14.118  10.829  1.00  0.00     0.209 C 
BRANCH  20  21
HETATM   21  O3  UNL     1      28.519 -14.623  12.091  1.00  0.00    -0.383 OA
BRANCH  21  22
HETATM   22  C10 UNL     1      29.514 -15.519  12.464  1.00  0.00     0.121 C 
HETATM   23  C11 UNL     1      29.105 -16.061  13.802  1.00  0.00     0.032 C 
HETATM   24  C12 UNL     1      29.265 -17.524  13.997  1.00  0.00     0.002 C 
HETATM   25  C13 UNL     1      28.786 -18.388  12.874  1.00  0.00     0.000 C 
HETATM   26  C14 UNL     1      28.843 -17.768  11.522  1.00  0.00     0.002 C 
HETATM   27  C15 UNL     1      29.727 -16.580  11.403  1.00  0.00     0.032 C 
ENDBRANCH  21  22
ENDBRANCH  20  21
ENDBRANCH  19  20
BRANCH  19  28
HETATM   28  C16 UNL     1      26.494 -14.736  10.070  1.00  0.00     0.169 C 
HETATM   29  N3  UNL     1      25.756 -15.093  11.041  1.00  0.00    -0.249 N 
ATOM     30  H3  UNL     1      25.109 -15.865  10.882  1.00  0.00     0.196 HD
BRANCH  28  31
HETATM   31  O4  UNL     1      26.367 -15.415   8.859  1.00  0.00    -0.346 OA
ATOM     32  H4  UNL     1      26.208 -14.925   8.060  1.00  0.00     0.219 HD
ENDBRANCH  28  31
BRANCH  29  33
HETATM   33  O5  UNL     1      25.764 -14.520  12.288  1.00  0.00    -0.288 OA
ATOM     34  H5  UNL     1      25.494 -14.954  13.089  1.00  0.00     0.244 HD
ENDBRANCH  29  33
ENDBRANCH  19  28
ENDBRANCH   1  19
TORSDOF 14
ENDMDL
MODEL 2
REMARK VINA RESULT: -8.232520866      1.464      2.489
REMARK  14 active torsions:
REMARK  status: ('A' for Active; 'I' for Inactive)
REMARK    1  A    between atoms: C2_2  and  C3_3 
REMARK    2  A    between atoms: C3_3  and  C5_5 
REMARK    3  A    between atoms: C5_5  and  N1_6 
REMARK    4  A    between atoms: C5_5  and  C17_32 
REMARK       I    between atoms: N1_6  and  C6_8 
REMARK    5  A    between atoms: C6_8  and  C7_10 
REMARK    6  A    between atoms: C7_10  and  O2_11 
REMARK    7  A    between atoms: C7_10  and  N2_13 
REMARK    8  A    between atoms: N2_13  and  C8_16 
REMARK    9  A    between atoms: C8_16  and  C9_17 
REMARK   10  A    between atoms: C8_16  and  C16_25 
REMARK   11  A    between atoms: C9_17  and  O3_18 
REMARK   12  A    between atoms: O3_18  and  C10_19 
REMARK   13  A    between atoms: C16_25  and  O4_26 
REMARK   14  A    between atoms: N3_28  and  O5_30 
ROOT
HETATM    1  N2  UNL     1      28.591 -14.186   9.421  1.00  0.00    -0.026 N 
ATOM      2  H21 UNL     1      27.811 -14.833   9.537  1.00  0.00     0.281 HD
ATOM      3  H22 UNL     1      28.147 -13.319   9.725  1.00  0.00     0.281 HD
ENDROOT
BRANCH   1   4
HETATM    4  C7  UNL     1      28.958 -14.098   8.061  1.00  0.00     0.412 C 
BRANCH   4   5
HETATM    5  C6  UNL     1      29.770 -12.942   7.644  1.00  0.00     0.275 C 
HETATM    6  N1  UNL     1      30.450 -12.965   6.406  1.00  0.00    -0.343 N 
ATOM      7  H1  UNL     1      30.378 -13.789   5.809  1.00  0.00     0.163 HD
HETATM    8  O1  UNL     1      29.885 -11.921   8.355  1.00  0.00    -0.269 OA
BRANCH   6   9
HETATM    9  C5  UNL     1      31.250 -11.835   5.969  1.00  0.00     0.189 C 
BRANCH   9  10
HETATM   10  C3  UNL     1      30.928 -11.501   4.550  1.00  0.00     0.014 C 
HETATM   11  C4  UNL     1      29.985 -10.300   4.583  1.00  0.00     0.012 C 
BRANCH  10  12
HETATM   12  C2  UNL     1      30.180 -12.690   3.949  1.00  0.00     0.002 C 
HETATM   13  C1  UNL     1      29.597 -12.325   2.602  1.00  0.00     0.005 C 
ENDBRANCH  10  12
ENDBRANCH   9  10
BRANCH   9  14
HETATM   14  C17 UNL     1      32.714 -12.247   6.091  1.00  0.00     0.197 C 
HETATM   15  O6  UNL     1      32.982 -13.256   6.832  1.00  0.00    -0.646 OA
HETATM   16  O7  UNL     1      33.664 -11.542   5.419  1.00  0.00    -0.646 OA
ENDBRANCH   9  14
ENDBRANCH   6   9
ENDBRANCH   4   5
BRANCH   4  17
HETATM   17  O2  UNL     1      27.850 -14.240   7.213  1.00  0.00    -0.363 OA
ATOM     18  H2  UNL     1      27.049 -14.261   7.722  1.00  0.00     0.212 HD
ENDBRANCH   4  17
ENDBRANCH   1   4
BRANCH   1  19
HETATM   19  C8  UNL     1      29.649 -14.530  10.297  1.00  0.00     0.288 C 
BRANCH  19  20
HETATM   20  C9  UNL     1      29.487 -15.984  10.754  1.00  0.00     0.209 C 
BRANCH  20  21
HETATM   21  O3  UNL     1      29.716 -16.072  12.116  1.00  0.00    -0.383 OA
BRANCH  21  22
HETATM   22  C10 UNL     1      28.691 -16.784  12.729  1.00  0.00     0.121 C 
HETATM   23  C11 UNL     1      28.783 -18.184  12.198  1.00  0.00     0.032 C 
HETATM   24  C12 UNL     1      28.631 -19.276  13.191  1.00  0.00     0.002 C 
HETATM   25  C13 UNL     1      29.395 -19.111  14.466  1.00  0.00     0.000 C 
HETATM   26  C14 UNL     1      29.645 -17.703  14.883  1.00  0.00     0.002 C 
HETATM   27  C15 UNL     1      28.777 -16.685  14.238  1.00  0.00     0.032 C 
ENDBRANCH  21  22
ENDBRANCH  20  21
ENDBRANCH  19  20
BRANCH  19  28
HETATM   28  C16 UNL     1      29.825 -13.625  11.464  1.00  0.00     0.169 C 
HETATM   29  N3  UNL     1      30.931 -13.050  11.709  1.00  0.00    -0.249 N 
ATOM     30  H3  UNL     1      30.975 -12.445  12.529  1.00  0.00     0.196 HD
BRANCH  28  31
HETATM   31  O4  UNL     1      28.753 -13.391  12.322  1.00  0.00    -0.346 OA
ATOM     32  H4  UNL     1      28.832 -13.609  13.244  1.00  0.00     0.219 HD
ENDBRANCH  28  31
BRANCH  29  33
HETATM   33  O5  UNL     1      32.070 -13.179  10.955  1.00  0.00    -0.288 OA
ATOM     34  H5  UNL     1      32.759 -12.528  10.892  1.00  0.00     0.244 HD
ENDBRANCH  29  33
ENDBRANCH  19  28
ENDBRANCH   1  19
TORSDOF 14
ENDMDL
MODEL 3
REMARK VINA RESULT: -8.211694565      2.180      2.966
REMARK  14 active torsions:
REMARK  status: ('A' for Active; 'I' for Inactive)
REMARK    1  A    between atoms: C2_2  and  C3_3 
REMARK    2  A    between atoms: C3_3  and  C5_5 
REMARK    3  A    between atoms: C5_5  and  N1_6 
REMARK    4  A    between atoms: C5_5  and  C17_32 
REMARK       I    between atoms: N1_6  and  C6_8 
REMARK    5  A    between atoms: C6_8  and  C7_10 
REMARK    6  A    between atoms: C7_10  and  O2_11 
REMARK    7  A    between atoms: C7_10  and  N2_13 
REMARK    8  A    between atoms: N2_13  and  C8_16 
REMARK    9  A    between atoms: C8_16  and  C9_17 
REMARK   10  A    between atoms: C8_16  and  C16_25 
REMARK   11  A    between atoms: C9_17  and  O3_18 
REMARK   12  A    between atoms: O3_18  and  C10_19 
REMARK   13  A    between atoms: C16_25  and  O4_26 
REMARK   14  A    between atoms: N3_28  and  O5_30 
ROOT
HETATM    1  N2  UNL     1      29.563 -13.443   8.837  1.00  0.00    -0.026 N 
ATOM      2  H21 UNL     1      28.637 -13.289   9.237  1.00  0.00     0.281 HD
ATOM      3  H22 UNL     1      29.871 -12.477   8.729  1.00  0.00     0.281 HD
ENDROOT
BRANCH   1   4
HETATM    4  C7  UNL     1      29.454 -14.067   7.575  1.00  0.00     0.412 C 
BRANCH   4   5
HETATM    5  C6  UNL     1      30.183 -13.462   6.447  1.00  0.00     0.275 C 
HETATM    6  N1  UNL     1      31.133 -14.223   5.729  1.00  0.00    -0.343 N 
ATOM      7  H1  UNL     1      31.312 -15.190   6.003  1.00  0.00     0.163 HD
HETATM    8  O1  UNL     1      29.993 -12.280   6.092  1.00  0.00    -0.269 OA
BRANCH   6   9
HETATM    9  C5  UNL     1      31.858 -13.653   4.609  1.00  0.00     0.189 C 
BRANCH   9  10
HETATM   10  C3  UNL     1      31.965 -14.656   3.508  1.00  0.00     0.014 C 
HETATM   11  C4  UNL     1      32.865 -14.041   2.437  1.00  0.00     0.012 C 
BRANCH  10  12
HETATM   12  C2  UNL     1      30.569 -14.850   2.917  1.00  0.00     0.002 C 
HETATM   13  C1  UNL     1      30.015 -13.534   2.421  1.00  0.00     0.005 C 
ENDBRANCH  10  12
ENDBRANCH   9  10
BRANCH   9  14
HETATM   14  C17 UNL     1      33.249 -13.282   5.116  1.00  0.00     0.197 C 
HETATM   15  O6  UNL     1      33.551 -12.039   5.147  1.00  0.00    -0.646 OA
HETATM   16  O7  UNL     1      34.100 -14.268   5.511  1.00  0.00    -0.646 OA
ENDBRANCH   9  14
ENDBRANCH   6   9
ENDBRANCH   4   5
BRANCH   4  17
HETATM   17  O2  UNL     1      28.116 -14.292   7.220  1.00  0.00    -0.363 OA
ATOM     18  H2  UNL     1      27.858 -15.174   7.462  1.00  0.00     0.212 HD
ENDBRANCH   4  17
ENDBRANCH   1   4
BRANCH   1  19
HETATM   19  C8  UNL     1      30.392 -14.123   9.763  1.00  0.00     0.288 C 
BRANCH  19  20
HETATM   20  C9  UNL     1      29.745 -15.459  10.147  1.00  0.00     0.209 C 
BRANCH  20  21
HETATM   21  O3  UNL     1      29.967 -15.714  11.489  1.00  0.00    -0.383 OA
BRANCH  21  22
HETATM   22  C10 UNL     1      28.861 -16.345  12.046  1.00  0.00     0.121 C 
HETATM   23  C11 UNL     1      28.995 -17.798  11.700  1.00  0.00     0.032 C 
HETATM   24  C12 UNL     1      28.699 -18.764  12.788  1.00  0.00     0.002 C 
HETATM   25  C13 UNL     1      29.299 -18.449  14.121  1.00  0.00     0.000 C 
HETATM   26  C14 UNL     1      29.519 -17.003  14.397  1.00  0.00     0.002 C 
HETATM   27  C15 UNL     1      28.757 -16.067  13.531  1.00  0.00     0.032 C 
ENDBRANCH  21  22
ENDBRANCH  20  21
ENDBRANCH  19  20
BRANCH  19  28
HETATM   28  C16 UNL     1      30.759 -13.345  10.974  1.00  0.00     0.169 C 
HETATM   29  N3  UNL     1      29.881 -12.833  11.737  1.00  0.00    -0.249 N 
ATOM     30  H3  UNL     1      30.210 -12.310  12.549  1.00  0.00     0.196 HD
BRANCH  28  31
HETATM   31  O4  UNL     1      32.102 -13.163  11.297  1.00  0.00    -0.346 OA
ATOM     32  H4  UNL     1      32.489 -13.668  12.003  1.00  0.00     0.219 HD
ENDBRANCH  28  31
BRANCH  29  33
HETATM   33  O5  UNL     1      28.525 -12.929  11.553  1.00  0.00    -0.288 OA
ATOM     34  H5  UNL     1      27.873 -12.836  12.238  1.00  0.00     0.244 HD
ENDBRANCH  29  33
ENDBRANCH  19  28
ENDBRANCH   1  19
TORSDOF 14
ENDMDL
MODEL 4
REMARK VINA RESULT: -8.188020358      0.563      1.379
REMARK  14 active torsions:
REMARK  status: ('A' for Active; 'I' for Inactive)
REMARK    1  A    between atoms: C2_2  and  C3_3 
REMARK    2  A    between atoms: C3_3  and  C5_5 
REMARK    3  A    between atoms: C5_5  and  N1_6 
REMARK    4  A    between atoms: C5_5  and  C17_32 
REMARK       I    between atoms: N1_6  and  C6_8 
REMARK    5  A    between atoms: C6_8  and  C7_10 
REMARK    6  A    between atoms: C7_10  and  O2_11 
REMARK    7  A    between atoms: C7_10  and  N2_13 
REMARK    8  A    between atoms: N2_13  and  C8_16 
REMARK    9  A    between atoms: C8_16  and  C9_17 
REMARK   10  A    between atoms: C8_16  and  C16_25 
REMARK   11  A    between atoms: C9_17  and  O3_18 
REMARK   12  A    between atoms: O3_18  and  C10_19 
REMARK   13  A    between atoms: C16_25  and  O4_26 
REMARK   14  A    between atoms: N3_28  and  O5_30 
ROOT
HETATM    1  N2  UNL     1      27.803 -13.020   9.084  1.00  0.00    -0.026 N 
ATOM      2  H21 UNL     1      26.923 -13.226   8.611  1.00  0.00     0.281 HD
ATOM      3  H22 UNL     1      27.759 -12.002   9.102  1.00  0.00     0.281 HD
ENDROOT
BRANCH   1   4
HETATM    4  C7  UNL     1      28.894 -13.451   8.298  1.00  0.00     0.412 C 
BRANCH   4   5
HETATM    5  C6  UNL     1      29.860 -12.433   7.850  1.00  0.00     0.275 C 
HETATM    6  N1  UNL     1      30.412 -12.505   6.552  1.00  0.00    -0.343 N 
ATOM      7  H1  UNL     1      30.141 -13.269   5.933  1.00  0.00     0.163 HD
HETATM    8  O1  UNL     1      30.217 -11.490   8.587  1.00  0.00    -0.269 OA
BRANCH   6   9
HETATM    9  C5  UNL     1      31.359 -11.509   6.084  1.00  0.00     0.189 C 
BRANCH   9  10
HETATM   10  C3  UNL     1      30.998 -11.072   4.703  1.00  0.00     0.014 C 
HETATM   11  C4  UNL     1      29.983  -9.939   4.850  1.00  0.00     0.012 C 
BRANCH  10  12
HETATM   12  C2  UNL     1      30.316 -12.247   4.005  1.00  0.00     0.002 C 
HETATM   13  C1  UNL     1      29.679 -11.798   2.709  1.00  0.00     0.005 C 
ENDBRANCH  10  12
ENDBRANCH   9  10
BRANCH   9  14
HETATM   14  C17 UNL     1      32.737 -12.165   6.083  1.00  0.00     0.197 C 
HETATM   15  O6  UNL     1      33.651 -11.610   5.380  1.00  0.00    -0.646 OA
HETATM   16  O7  UNL     1      32.939 -13.294   6.816  1.00  0.00    -0.646 OA
ENDBRANCH   9  14
ENDBRANCH   6   9
ENDBRANCH   4   5
BRANCH   4  17
HETATM   17  O2  UNL     1      28.476 -14.231   7.210  1.00  0.00    -0.363 OA
ATOM     18  H2  UNL     1      29.187 -14.334   6.589  1.00  0.00     0.212 HD
ENDBRANCH   4  17
ENDBRANCH   1   4
BRANCH   1  19
HETATM   19  C8  UNL     1      27.785 -13.537  10.403  1.00  0.00     0.288 C 
BRANCH  19  20
HETATM   20  C9  UNL     1      28.930 -14.541  10.578  1.00  0.00     0.209 C 
BRANCH  20  21
HETATM   21  O3  UNL     1      28.447 -15.700  11.161  1.00  0.00    -0.383 OA
BRANCH  21  22
HETATM   22  C10 UNL     1      29.499 -16.549  11.483  1.00  0.00     0.121 C 
HETATM   23  C11 UNL     1      29.955 -16.142  12.853  1.00  0.00     0.032 C 
HETATM   24  C12 UNL     1      30.241 -17.244  13.806  1.00  0.00     0.002 C 
HETATM   25  C13 UNL     1      29.225 -18.341  13.858  1.00  0.00     0.000 C 
HETATM   26  C14 UNL     1      28.472 -18.574  12.595  1.00  0.00     0.002 C 
HETATM   27  C15 UNL     1      29.089 -18.002  11.371  1.00  0.00     0.032 C 
ENDBRANCH  21  22
ENDBRANCH  20  21
ENDBRANCH  19  20
BRANCH  19  28
HETATM   28  C16 UNL     1      26.491 -14.129  10.833  1.00  0.00     0.169 C 
HETATM   29  N3  UNL     1      25.840 -14.932  10.095  1.00  0.00    -0.249 N 
ATOM     30  H3  UNL     1      24.958 -15.295  10.457  1.00  0.00     0.196 HD
BRANCH  28  31
HETATM   31  O4  UNL     1      25.964 -13.802  12.081  1.00  0.00    -0.346 OA
ATOM     32  H4  UNL     1      25.038 -13.935  12.249  1.00  0.00     0.219 HD
ENDBRANCH  28  31
BRANCH  29  33
HETATM   33  O5  UNL     1      26.232 -15.349   8.848  1.00  0.00    -0.288 OA
ATOM     34  H5  UNL     1      25.642 -15.580   8.139  1.00  0.00     0.244 HD
ENDBRANCH  29  33
ENDBRANCH  19  28
ENDBRANCH   1  19
TORSDOF 14
ENDMDL
MODEL 5
REMARK VINA RESULT: -8.186656884      1.428      2.221
REMARK  14 active torsions:
REMARK  status: ('A' for Active; 'I' for Inactive)
REMARK    1  A    between atoms: C2_2  and  C3_3 
REMARK    2  A    between atoms: C3_3  and  C5_5 
REMARK    3  A    between atoms: C5_5  and  N1_6 
REMARK    4  A    between atoms: C5_5  and  C17_32 
REMARK       I    between atoms: N1_6  and  C6_8 
REMARK    5  A    between atoms: C6_8  and  C7_10 
REMARK    6  A    between atoms: C7_10  and  O2_11 
REMARK    7  A    between atoms: C7_10  and  N2_13 
REMARK    8  A    between atoms: N2_13  and  C8_16 
REMARK    9  A    between atoms: C8_16  and  C9_17 
REMARK   10  A    between atoms: C8_16  and  C16_25 
REMARK   11  A    between atoms: C9_17  and  O3_18 
REMARK   12  A    between atoms: O3_18  and  C10_19 
REMARK   13  A    between atoms: C16_25  and  O4_26 
REMARK   14  A    between atoms: N3_28  and  O5_30 
ROOT
HETATM    1  N2  UNL     1      28.682 -14.209   9.474  1.00  0.00    -0.026 N 
ATOM      2  H21 UNL     1      27.884 -14.830   9.604  1.00  0.00     0.281 HD
ATOM      3  H22 UNL     1      28.281 -13.334   9.810  1.00  0.00     0.281 HD
ENDROOT
BRANCH   1   4
HETATM    4  C7  UNL     1      29.005 -14.105   8.103  1.00  0.00     0.412 C 
BRANCH   4   5
HETATM    5  C6  UNL     1      29.801 -12.942   7.673  1.00  0.00     0.275 C 
HETATM    6  N1  UNL     1      30.487 -12.973   6.438  1.00  0.00    -0.343 N 
ATOM      7  H1  UNL     1      30.431 -13.807   5.853  1.00  0.00     0.163 HD
HETATM    8  O1  UNL     1      29.896 -11.910   8.370  1.00  0.00    -0.269 OA
BRANCH   6   9
HETATM    9  C5  UNL     1      31.271 -11.837   5.989  1.00  0.00     0.189 C 
BRANCH   9  10
HETATM   10  C3  UNL     1      30.935 -11.517   4.570  1.00  0.00     0.014 C 
HETATM   11  C4  UNL     1      29.985 -10.320   4.601  1.00  0.00     0.012 C 
BRANCH  10  12
HETATM   12  C2  UNL     1      30.189 -12.715   3.984  1.00  0.00     0.002 C 
HETATM   13  C1  UNL     1      29.581 -12.359   2.646  1.00  0.00     0.005 C 
ENDBRANCH  10  12
ENDBRANCH   9  10
BRANCH   9  14
HETATM   14  C17 UNL     1      32.741 -12.232   6.103  1.00  0.00     0.197 C 
HETATM   15  O6  UNL     1      33.026 -13.228   6.855  1.00  0.00    -0.646 OA
HETATM   16  O7  UNL     1      33.677 -11.525   5.413  1.00  0.00    -0.646 OA
ENDBRANCH   9  14
ENDBRANCH   6   9
ENDBRANCH   4   5
BRANCH   4  17
HETATM   17  O2  UNL     1      27.871 -14.241   7.289  1.00  0.00    -0.363 OA
ATOM     18  H2  UNL     1      28.012 -14.925   6.645  1.00  0.00     0.212 HD
ENDBRANCH   4  17
ENDBRANCH   1   4
BRANCH   1  19
HETATM   19  C8  UNL     1      29.757 -14.609  10.305  1.00  0.00     0.288 C 
BRANCH  19  20
HETATM   20  C9  UNL     1      29.516 -16.037  10.807  1.00  0.00     0.209 C 
BRANCH  20  21
HETATM   21  O3  UNL     1      29.716 -16.089  12.175  1.00  0.00    -0.383 OA
BRANCH  21  22
HETATM   22  C10 UNL     1      28.692 -16.807  12.783  1.00  0.00     0.121 C 
HETATM   23  C11 UNL     1      28.781 -18.201  12.234  1.00  0.00     0.032 C 
HETATM   24  C12 UNL     1      28.629 -19.305  13.215  1.00  0.00     0.002 C 
HETATM   25  C13 UNL     1      29.398 -19.155  14.490  1.00  0.00     0.000 C 
HETATM   26  C14 UNL     1      29.651 -17.753  14.922  1.00  0.00     0.002 C 
HETATM   27  C15 UNL     1      28.782 -16.726  14.292  1.00  0.00     0.032 C 
ENDBRANCH  21  22
ENDBRANCH  20  21
ENDBRANCH  19  20
BRANCH  19  28
HETATM   28  C16 UNL     1      30.055 -13.693  11.438  1.00  0.00     0.169 C 
HETATM   29  N3  UNL     1      29.138 -13.213  12.175  1.00  0.00    -0.249 N 
ATOM     30  H3  UNL     1      29.420 -12.589  12.931  1.00  0.00     0.196 HD
BRANCH  28  31
HETATM   31  O4  UNL     1      31.375 -13.343  11.712  1.00  0.00    -0.346 OA
ATOM     32  H4  UNL     1      31.751 -12.569  11.305  1.00  0.00     0.219 HD
ENDBRANCH  28  31
BRANCH  29  33
HETATM   33  O5  UNL     1      27.798 -13.469  12.031  1.00  0.00    -0.288 OA
ATOM     34  H5  UNL     1      27.178 -13.548  12.747  1.00  0.00     0.244 HD
ENDBRANCH  29  33
ENDBRANCH  19  28
ENDBRANCH   1  19
TORSDOF 14
ENDMDL
