MODEL 1
REMARK VINA RESULT: -8.353806270      0.000      0.000
REMARK  15 active torsions:
REMARK  status: ('A' for Active; 'I' for Inactive)
REMARK    1  A    between atoms: C2_2  and  C14_16 
REMARK    2  A    between atoms: C3_3  and  C4_4 
REMARK    3  A    between atoms: C4_4  and  C5_5 
REMARK    4  A    between atoms: C5_5  and  C6_6 
REMARK    5  A    between atoms: C5_5  and  C8_10 
REMARK    6  A    between atoms: C6_6  and  C7_7 
REMARK    7  A    between atoms: C14_16  and  O3_17 
REMARK    8  A    between atoms: C14_16  and  C16_27 
REMARK    9  A    between atoms: O3_17  and  C15_18 
REMARK   10  A    between atoms: C15_18  and  N2_22 
REMARK   11  A    between atoms: N2_22  and  N3_24 
REMARK   12  A    between atoms: C16_27  and  O5_29 
REMARK   13  A    between atoms: O5_29  and  C17_30 
REMARK   14  A    between atoms: C17_30  and  C18_31 
REMARK   15  A    between atoms: C18_31  and  O6_32 
ROOT
HETATM    1  C14 UNL     1      25.082 -13.675   8.939  1.00  0.00     0.260 C 
ENDROOT
BRANCH   1   2
HETATM    2  C2  UNL     1      26.152 -13.840   9.975  1.00  0.00    -0.049 C 
HETATM    3  C1  UNL     1      25.875 -14.694  11.143  1.00  0.00     0.046 C 
HETATM    4  C3  UNL     1      27.310 -13.256   9.823  1.00  0.00    -0.021 C 
BRANCH   4   5
HETATM    5  C4  UNL     1      28.495 -13.310  10.698  1.00  0.00     0.033 C 
BRANCH   5   6
HETATM    6  C5  UNL     1      29.432 -14.459  10.303  1.00  0.00     0.003 C 
BRANCH   6   7
HETATM    7  C6  UNL     1      30.683 -13.784   9.834  1.00  0.00     0.118 C 
BRANCH   7   8
HETATM    8  C7  UNL     1      30.828 -13.570   8.408  1.00  0.00     0.172 C 
HETATM    9  O1  UNL     1      29.947 -13.903   7.597  1.00  0.00    -0.648 OA
HETATM   10  O2  UNL     1      31.993 -12.971   7.943  1.00  0.00    -0.648 OA
ENDBRANCH   7   8
ENDBRANCH   6   7
BRANCH   6  11
HETATM   11  C8  UNL     1      29.591 -15.426  11.437  1.00  0.00    -0.010 C 
HETATM   12  C9  UNL     1      29.207 -14.894  12.773  1.00  0.00     0.005 C 
HETATM   13  C10 UNL     1      28.814 -15.982  13.753  1.00  0.00     0.000 C 
HETATM   14  C11 UNL     1      29.538 -17.277  13.482  1.00  0.00     0.000 C 
HETATM   15  C12 UNL     1      29.261 -17.803  12.098  1.00  0.00     0.000 C 
HETATM   16  C13 UNL     1      28.806 -16.721  11.148  1.00  0.00     0.005 C 
ENDBRANCH   6  11
ENDBRANCH   5   6
ENDBRANCH   4   5
ENDBRANCH   1   2
BRANCH   1  17
HETATM   17  O3  UNL     1      23.862 -14.114   9.461  1.00  0.00    -0.301 OA
BRANCH  17  18
HETATM   18  C15 UNL     1      22.634 -13.716   9.045  1.00  0.00     0.232 C 
HETATM   19  N1  UNL     1      22.575 -12.565   8.443  1.00  0.00    -0.364 N 
ATOM     20  H12 UNL     1      23.446 -12.045   8.328  1.00  0.00     0.159 HD
ATOM     21  H11 UNL     1      21.652 -12.266   8.130  1.00  0.00     0.159 HD
BRANCH  18  22
HETATM   22  N2  UNL     1      21.431 -14.434   9.203  1.00  0.00    -0.272 N 
ATOM     23  H2  UNL     1      21.119 -15.049   8.452  1.00  0.00     0.190 HD
BRANCH  22  24
HETATM   24  N3  UNL     1      20.660 -14.329  10.351  1.00  0.00    -0.342 N 
ATOM     25  H32 UNL     1      20.922 -14.895  11.157  1.00  0.00     0.176 HD
ATOM     26  H31 UNL     1      19.851 -13.709  10.402  1.00  0.00     0.176 HD
ENDBRANCH  22  24
ENDBRANCH  18  22
ENDBRANCH  17  18
ENDBRANCH   1  17
BRANCH   1  27
HETATM   27  C16 UNL     1      25.408 -14.531   7.736  1.00  0.00     0.293 C 
HETATM   28  O4  UNL     1      26.529 -14.422   7.212  1.00  0.00    -0.262 OA
BRANCH  27  29
HETATM   29  O5  UNL     1      24.487 -15.406   7.239  1.00  0.00    -0.317 OA
BRANCH  29  30
HETATM   30  C17 UNL     1      24.083 -15.495   5.905  1.00  0.00     0.205 C 
BRANCH  30  31
HETATM   31  C18 UNL     1      23.063 -14.476   5.518  1.00  0.00     0.191 C 
BRANCH  31  32
HETATM   32  O6  UNL     1      21.865 -14.821   6.169  1.00  0.00    -0.399 OA
ATOM     33  H6  UNL     1      21.504 -14.021   6.533  1.00  0.00     0.209 HD
ENDBRANCH  31  32
ENDBRANCH  30  31
ENDBRANCH  29  30
ENDBRANCH  27  29
ENDBRANCH   1  27
TORSDOF 15
ENDMDL
MODEL 2
REMARK VINA RESULT: -8.331280173      1.086      1.176
REMARK  15 active torsions:
REMARK  status: ('A' for Active; 'I' for Inactive)
REMARK    1  A    between atoms: C2_2  and  C14_16 
REMARK    2  A    between atoms: C3_3  and  C4_4 
REMARK    3  A    between atoms: C4_4  and  C5_5 
REMARK    4  A    between atoms: C5_5  and  C6_6 
REMARK    5  A    between atoms: C5_5  and  C8_10 
REMARK    6  A    between atoms: C6_6  and  C7_7 
REMARK    7  A    between atoms: C14_16  and  O3_17 
REMARK    8  A    between atoms: C14_16  and  C16_27 
REMARK    9  A    between atoms: O3_17  and  C15_18 
REMARK   10  A    between atoms: C15_18  and  N2_22 
REMARK   11  A    between atoms: N2_22  and  N3_24 
REMARK   12  A    between atoms: C16_27  and  O5_29 
REMARK   13  A    between atoms: O5_29  and  C17_30 
REMARK   14  A    between atoms: C17_30  and  C18_31 
REMARK   15  A    between atoms: C18_31  and  O6_32 
ROOT
HETATM    1  C14 UNL     1      25.319 -13.686   9.305  1.00  0.00     0.260 C 
ENDROOT
BRANCH   1   2
HETATM    2  C2  UNL     1      26.342 -13.921  10.373  1.00  0.00    -0.049 C 
HETATM    3  C1  UNL     1      26.199 -15.106  11.237  1.00  0.00     0.046 C 
HETATM    4  C3  UNL     1      27.349 -13.102  10.511  1.00  0.00    -0.021 C 
BRANCH   4   5
HETATM    5  C4  UNL     1      28.469 -13.164  11.467  1.00  0.00     0.033 C 
BRANCH   5   6
HETATM    6  C5  UNL     1      29.578 -14.102  10.972  1.00  0.00     0.003 C 
BRANCH   6   7
HETATM    7  C6  UNL     1      30.732 -13.198  10.669  1.00  0.00     0.118 C 
BRANCH   7   8
HETATM    8  C7  UNL     1      30.942 -12.831   9.283  1.00  0.00     0.172 C 
HETATM    9  O1  UNL     1      31.782 -13.404   8.568  1.00  0.00    -0.648 OA
HETATM   10  O2  UNL     1      30.175 -11.803   8.746  1.00  0.00    -0.648 OA
ENDBRANCH   7   8
ENDBRANCH   6   7
BRANCH   6  11
HETATM   11  C8  UNL     1      29.838 -15.188  11.971  1.00  0.00    -0.010 C 
HETATM   12  C9  UNL     1      29.146 -15.017  13.278  1.00  0.00     0.005 C 
HETATM   13  C10 UNL     1      28.934 -16.326  14.012  1.00  0.00     0.000 C 
HETATM   14  C11 UNL     1      30.012 -17.333  13.698  1.00  0.00     0.000 C 
HETATM   15  C12 UNL     1      30.078 -17.652  12.227  1.00  0.00     0.000 C 
HETATM   16  C13 UNL     1      29.481 -16.563  11.371  1.00  0.00     0.005 C 
ENDBRANCH   6  11
ENDBRANCH   5   6
ENDBRANCH   4   5
ENDBRANCH   1   2
BRANCH   1  17
HETATM   17  O3  UNL     1      24.080 -14.170   9.737  1.00  0.00    -0.301 OA
BRANCH  17  18
HETATM   18  C15 UNL     1      23.225 -13.526  10.570  1.00  0.00     0.232 C 
HETATM   19  N1  UNL     1      23.606 -12.357  10.993  1.00  0.00    -0.364 N 
ATOM     20  H12 UNL     1      24.511 -12.009  10.676  1.00  0.00     0.159 HD
ATOM     21  H11 UNL     1      22.964 -11.873  11.620  1.00  0.00     0.159 HD
BRANCH  18  22
HETATM   22  N2  UNL     1      21.975 -14.006  11.009  1.00  0.00    -0.272 N 
ATOM     23  H2  UNL     1      21.817 -14.133  12.009  1.00  0.00     0.190 HD
BRANCH  22  24
HETATM   24  N3  UNL     1      20.954 -14.311  10.123  1.00  0.00    -0.342 N 
ATOM     25  H32 UNL     1      20.715 -13.621   9.411  1.00  0.00     0.176 HD
ATOM     26  H31 UNL     1      20.446 -15.195  10.169  1.00  0.00     0.176 HD
ENDBRANCH  22  24
ENDBRANCH  18  22
ENDBRANCH  17  18
ENDBRANCH   1  17
BRANCH   1  27
HETATM   27  C16 UNL     1      25.706 -14.450   8.058  1.00  0.00     0.293 C 
HETATM   28  O4  UNL     1      26.848 -14.296   7.595  1.00  0.00    -0.262 OA
BRANCH  27  29
HETATM   29  O5  UNL     1      24.817 -15.292   7.457  1.00  0.00    -0.317 OA
BRANCH  29  30
HETATM   30  C17 UNL     1      24.019 -14.983   6.353  1.00  0.00     0.205 C 
BRANCH  30  31
HETATM   31  C18 UNL     1      22.610 -14.643   6.708  1.00  0.00     0.191 C 
BRANCH  31  32
HETATM   32  O6  UNL     1      22.255 -15.445   7.807  1.00  0.00    -0.399 OA
ATOM     33  H6  UNL     1      23.061 -15.702   8.238  1.00  0.00     0.209 HD
ENDBRANCH  31  32
ENDBRANCH  30  31
ENDBRANCH  29  30
ENDBRANCH  27  29
ENDBRANCH   1  27
TORSDOF 15
ENDMDL
MODEL 3
REMARK VINA RESULT: -8.222096038      1.282      1.510
REMARK  15 active torsions:
REMARK  status: ('A' for Active; 'I' for Inactive)
REMARK    1  A    between atoms: C2_2  and  C14_16 
REMARK    2  A    between atoms: C3_3  and  C4_4 
REMARK    3  A    between atoms: C4_4  and  C5_5 
REMARK    4  A    between atoms: C5_5  and  C6_6 
REMARK    5  A    between atoms: C5_5  and  C8_10 
REMARK    6  A    between atoms: C6_6  and  C7_7 
REMARK    7  A    between atoms: C14_16  and  O3_17 
REMARK    8  A    between atoms: C14_16  and  C16_27 
REMARK    9  A    between atoms: O3_17  and  C15_18 
REMARK   10  A    between atoms: C15_18  and  N2_22 
REMARK   11  A    between atoms: N2_22  and  N3_24 
REMARK   12  A    between atoms: C16_27  and  O5_29 
REMARK   13  A    between atoms: O5_29  and  C17_30 
REMARK   14  A    between atoms: C17_30  and  C18_31 
REMARK   15  A    between atoms: C18_31  and  O6_32 
ROOT
HETATM    1  C14 UNL     1      25.339 -13.697   9.323  1.00  0.00     0.260 C 
ENDROOT
BRANCH   1   2
HETATM    2  C2  UNL     1      26.379 -13.919  10.378  1.00  0.00    -0.049 C 
HETATM    3  C1  UNL     1      26.259 -15.103  11.247  1.00  0.00     0.046 C 
HETATM    4  C3  UNL     1      27.381 -13.090  10.498  1.00  0.00    -0.021 C 
BRANCH   4   5
HETATM    5  C4  UNL     1      28.514 -13.139  11.439  1.00  0.00     0.033 C 
BRANCH   5   6
HETATM    6  C5  UNL     1      29.613 -14.090  10.945  1.00  0.00     0.003 C 
BRANCH   6   7
HETATM    7  C6  UNL     1      30.773 -13.198  10.634  1.00  0.00     0.118 C 
BRANCH   7   8
HETATM    8  C7  UNL     1      30.915 -12.744   9.264  1.00  0.00     0.172 C 
HETATM    9  O1  UNL     1      30.217 -11.827   8.797  1.00  0.00    -0.648 OA
HETATM   10  O2  UNL     1      31.863 -13.359   8.456  1.00  0.00    -0.648 OA
ENDBRANCH   7   8
ENDBRANCH   6   7
BRANCH   6  11
HETATM   11  C8  UNL     1      29.867 -15.173  11.948  1.00  0.00    -0.010 C 
HETATM   12  C9  UNL     1      29.179 -14.991  13.256  1.00  0.00     0.005 C 
HETATM   13  C10 UNL     1      28.958 -16.296  13.996  1.00  0.00     0.000 C 
HETATM   14  C11 UNL     1      30.028 -17.313  13.683  1.00  0.00     0.000 C 
HETATM   15  C12 UNL     1      30.089 -17.638  12.214  1.00  0.00     0.000 C 
HETATM   16  C13 UNL     1      29.498 -16.548  11.354  1.00  0.00     0.005 C 
ENDBRANCH   6  11
ENDBRANCH   5   6
ENDBRANCH   4   5
ENDBRANCH   1   2
BRANCH   1  17
HETATM   17  O3  UNL     1      24.115 -14.209   9.765  1.00  0.00    -0.301 OA
BRANCH  17  18
HETATM   18  C15 UNL     1      23.251 -13.584  10.602  1.00  0.00     0.232 C 
HETATM   19  N1  UNL     1      22.015 -13.989  10.560  1.00  0.00    -0.364 N 
ATOM     20  H12 UNL     1      21.783 -14.737   9.906  1.00  0.00     0.159 HD
ATOM     21  H11 UNL     1      21.365 -13.519  11.190  1.00  0.00     0.159 HD
BRANCH  18  22
HETATM   22  N2  UNL     1      23.571 -12.550  11.505  1.00  0.00    -0.272 N 
ATOM     23  H2  UNL     1      23.827 -12.791  12.463  1.00  0.00     0.190 HD
BRANCH  22  24
HETATM   24  N3  UNL     1      23.548 -11.216  11.130  1.00  0.00    -0.342 N 
ATOM     25  H32 UNL     1      23.191 -10.536  11.802  1.00  0.00     0.176 HD
ATOM     26  H31 UNL     1      23.875 -10.907  10.215  1.00  0.00     0.176 HD
ENDBRANCH  22  24
ENDBRANCH  18  22
ENDBRANCH  17  18
ENDBRANCH   1  17
BRANCH   1  27
HETATM   27  C16 UNL     1      25.727 -14.443   8.066  1.00  0.00     0.293 C 
HETATM   28  O4  UNL     1      26.854 -14.249   7.581  1.00  0.00    -0.262 OA
BRANCH  27  29
HETATM   29  O5  UNL     1      24.855 -15.313   7.479  1.00  0.00    -0.317 OA
BRANCH  29  30
HETATM   30  C17 UNL     1      24.020 -15.026   6.397  1.00  0.00     0.205 C 
BRANCH  30  31
HETATM   31  C18 UNL     1      22.659 -14.562   6.798  1.00  0.00     0.191 C 
BRANCH  31  32
HETATM   32  O6  UNL     1      22.225 -15.401   7.840  1.00  0.00    -0.399 OA
ATOM     33  H6  UNL     1      21.793 -14.850   8.482  1.00  0.00     0.209 HD
ENDBRANCH  31  32
ENDBRANCH  30  31
ENDBRANCH  29  30
ENDBRANCH  27  29
ENDBRANCH   1  27
TORSDOF 15
ENDMDL
MODEL 4
REMARK VINA RESULT: -8.221622365      2.489      3.887
REMARK  15 active torsions:
REMARK  status: ('A' for Active; 'I' for Inactive)
REMARK    1  A    between atoms: C2_2  and  C14_16 
REMARK    2  A    between atoms: C3_3  and  C4_4 
REMARK    3  A    between atoms: C4_4  and  C5_5 
REMARK    4  A    between atoms: C5_5  and  C6_6 
REMARK    5  A    between atoms: C5_5  and  C8_10 
REMARK    6  A    between atoms: C6_6  and  C7_7 
REMARK    7  A    between atoms: C14_16  and  O3_17 
REMARK    8  A    between atoms: C14_16  and  C16_27 
REMARK    9  A    between atoms: O3_17  and  C15_18 
REMARK   10  A    between atoms: C15_18  and  N2_22 
REMARK   11  A    between atoms: N2_22  and  N3_24 
REMARK   12  A    between atoms: C16_27  and  O5_29 
REMARK   13  A    between atoms: O5_29  and  C17_30 
REMARK   14  A    between atoms: C17_30  and  C18_31 
REMARK   15  A    between atoms: C18_31  and  O6_32 
ROOT
HETATM    1  C14 UNL     1      24.109 -13.614  11.129  1.00  0.00     0.260 C 
ENDROOT
BRANCH   1   2
HETATM    2  C2  UNL     1      25.550 -13.863  11.455  1.00  0.00    -0.049 C 
HETATM    3  C1  UNL     1      25.874 -14.805  12.541  1.00  0.00     0.046 C 
HETATM    4  C3  UNL     1      26.492 -13.273  10.768  1.00  0.00    -0.021 C 
BRANCH   4   5
HETATM    5  C4  UNL     1      27.953 -13.399  10.905  1.00  0.00     0.033 C 
BRANCH   5   6
HETATM    6  C5  UNL     1      28.485 -14.622  10.146  1.00  0.00     0.003 C 
BRANCH   6   7
HETATM    7  C6  UNL     1      29.294 -14.050   9.024  1.00  0.00     0.118 C 
BRANCH   7   8
HETATM    8  C7  UNL     1      28.704 -14.071   7.700  1.00  0.00     0.172 C 
HETATM    9  O1  UNL     1      27.534 -14.444   7.504  1.00  0.00    -0.648 OA
HETATM   10  O2  UNL     1      29.478 -13.658   6.622  1.00  0.00    -0.648 OA
ENDBRANCH   7   8
ENDBRANCH   6   7
BRANCH   6  11
HETATM   11  C8  UNL     1      29.209 -15.549  11.074  1.00  0.00    -0.010 C 
HETATM   12  C9  UNL     1      29.466 -14.999  12.434  1.00  0.00     0.005 C 
HETATM   13  C10 UNL     1      29.638 -16.078  13.485  1.00  0.00     0.000 C 
HETATM   14  C11 UNL     1      30.222 -17.344  12.908  1.00  0.00     0.000 C 
HETATM   15  C12 UNL     1      29.360 -17.920  11.816  1.00  0.00     0.000 C 
HETATM   16  C13 UNL     1      28.454 -16.888  11.188  1.00  0.00     0.005 C 
ENDBRANCH   6  11
ENDBRANCH   5   6
ENDBRANCH   4   5
ENDBRANCH   1   2
BRANCH   1  17
HETATM   17  O3  UNL     1      23.941 -13.623   9.741  1.00  0.00    -0.301 OA
BRANCH  17  18
HETATM   18  C15 UNL     1      22.753 -13.635   9.087  1.00  0.00     0.232 C 
HETATM   19  N1  UNL     1      22.589 -12.719   8.178  1.00  0.00    -0.364 N 
ATOM     20  H12 UNL     1      23.353 -12.062   8.023  1.00  0.00     0.159 HD
ATOM     21  H11 UNL     1      21.696 -12.728   7.685  1.00  0.00     0.159 HD
BRANCH  18  22
HETATM   22  N2  UNL     1      21.697 -14.542   9.301  1.00  0.00    -0.272 N 
ATOM     23  H2  UNL     1      21.643 -15.384   8.727  1.00  0.00     0.190 HD
BRANCH  22  24
HETATM   24  N3  UNL     1      20.728 -14.325  10.268  1.00  0.00    -0.342 N 
ATOM     25  H32 UNL     1      20.365 -13.378  10.378  1.00  0.00     0.176 HD
ATOM     26  H31 UNL     1      20.378 -15.079  10.860  1.00  0.00     0.176 HD
ENDBRANCH  22  24
ENDBRANCH  18  22
ENDBRANCH  17  18
ENDBRANCH   1  17
BRANCH   1  27
HETATM   27  C16 UNL     1      23.706 -12.247  11.636  1.00  0.00     0.293 C 
HETATM   28  O4  UNL     1      24.174 -11.241  11.076  1.00  0.00    -0.262 OA
BRANCH  27  29
HETATM   29  O5  UNL     1      22.844 -12.124  12.686  1.00  0.00    -0.317 OA
BRANCH  29  30
HETATM   30  C17 UNL     1      22.251 -10.937  13.120  1.00  0.00     0.205 C 
BRANCH  30  31
HETATM   31  C18 UNL     1      22.542 -10.609  14.547  1.00  0.00     0.191 C 
BRANCH  31  32
HETATM   32  O6  UNL     1      23.635  -9.723  14.554  1.00  0.00    -0.399 OA
ATOM     33  H6  UNL     1      23.510  -9.130  15.284  1.00  0.00     0.209 HD
ENDBRANCH  31  32
ENDBRANCH  30  31
ENDBRANCH  29  30
ENDBRANCH  27  29
ENDBRANCH   1  27
TORSDOF 15
ENDMDL
MODEL 5
REMARK VINA RESULT: -8.136284281      3.183      3.816
REMARK  15 active torsions:
REMARK  status: ('A' for Active; 'I' for Inactive)
REMARK    1  A    between atoms: C2_2  and  C14_16 
REMARK    2  A    between atoms: C3_3  and  C4_4 
REMARK    3  A    between atoms: C4_4  and  C5_5 
REMARK    4  A    between atoms: C5_5  and  C6_6 
REMARK    5  A    between atoms: C5_5  and  C8_10 
REMARK    6  A    between atoms: C6_6  and  C7_7 
REMARK    7  A    between atoms: C14_16  and  O3_17 
REMARK    8  A    between atoms: C14_16  and  C16_27 
REMARK    9  A    between atoms: O3_17  and  C15_18 
REMARK   10  A    between atoms: C15_18  and  N2_22 
REMARK   11  A    between atoms: N2_22  and  N3_24 
REMARK   12  A    between atoms: C16_27  and  O5_29 
REMARK   13  A    between atoms: O5_29  and  C17_30 
REMARK   14  A    between atoms: C17_30  and  C18_31 
REMARK   15  A    between atoms: C18_31  and  O6_32 
ROOT
HETATM    1  C14 UNL     1      26.998 -14.459   8.137  1.00  0.00     0.260 C 
ENDROOT
BRANCH   1   2
HETATM    2  C2  UNL     1      27.003 -14.767   9.602  1.00  0.00    -0.049 C 
HETATM    3  C1  UNL     1      26.098 -14.010  10.485  1.00  0.00     0.046 C 
HETATM    4  C3  UNL     1      27.777 -15.707  10.074  1.00  0.00    -0.021 C 
BRANCH   4   5
HETATM    5  C4  UNL     1      27.913 -16.184  11.462  1.00  0.00     0.033 C 
BRANCH   5   6
HETATM    6  C5  UNL     1      29.388 -16.329  11.863  1.00  0.00     0.003 C 
BRANCH   6   7
HETATM    7  C6  UNL     1      29.797 -14.959  12.305  1.00  0.00     0.118 C 
BRANCH   7   8
HETATM    8  C7  UNL     1      30.654 -14.202  11.415  1.00  0.00     0.172 C 
HETATM    9  O1  UNL     1      30.819 -14.522  10.225  1.00  0.00    -0.648 OA
HETATM   10  O2  UNL     1      31.309 -13.083  11.917  1.00  0.00    -0.648 OA
ENDBRANCH   7   8
ENDBRANCH   6   7
BRANCH   6  11
HETATM   11  C8  UNL     1      29.557 -17.424  12.872  1.00  0.00    -0.010 C 
HETATM   12  C9  UNL     1      29.685 -16.963  14.282  1.00  0.00     0.005 C 
HETATM   13  C10 UNL     1      29.270 -18.017  15.289  1.00  0.00     0.000 C 
HETATM   14  C11 UNL     1      29.517 -19.416  14.781  1.00  0.00     0.000 C 
HETATM   15  C12 UNL     1      28.765 -19.697  13.506  1.00  0.00     0.000 C 
HETATM   16  C13 UNL     1      28.400 -18.437  12.759  1.00  0.00     0.005 C 
ENDBRANCH   6  11
ENDBRANCH   5   6
ENDBRANCH   4   5
ENDBRANCH   1   2
BRANCH   1  17
HETATM   17  O3  UNL     1      27.679 -13.258   7.915  1.00  0.00    -0.301 OA
BRANCH  17  18
HETATM   18  C15 UNL     1      29.023 -13.089   7.963  1.00  0.00     0.232 C 
HETATM   19  N1  UNL     1      29.738 -13.993   7.360  1.00  0.00    -0.364 N 
ATOM     20  H12 UNL     1      29.245 -14.758   6.900  1.00  0.00     0.159 HD
ATOM     21  H11 UNL     1      30.750 -13.866   7.396  1.00  0.00     0.159 HD
BRANCH  18  22
HETATM   22  N2  UNL     1      29.705 -12.032   8.599  1.00  0.00    -0.272 N 
ATOM     23  H2  UNL     1      30.427 -11.527   8.084  1.00  0.00     0.190 HD
BRANCH  22  24
HETATM   24  N3  UNL     1      29.424 -11.658   9.904  1.00  0.00    -0.342 N 
ATOM     25  H32 UNL     1      30.082 -11.038  10.377  1.00  0.00     0.176 HD
ATOM     26  H31 UNL     1      28.589 -11.983  10.391  1.00  0.00     0.176 HD
ENDBRANCH  22  24
ENDBRANCH  18  22
ENDBRANCH  17  18
ENDBRANCH   1  17
BRANCH   1  27
HETATM   27  C16 UNL     1      25.573 -14.278   7.663  1.00  0.00     0.293 C 
HETATM   28  O4  UNL     1      25.088 -13.135   7.655  1.00  0.00    -0.262 OA
BRANCH  27  29
HETATM   29  O5  UNL     1      24.838 -15.352   7.254  1.00  0.00    -0.317 OA
BRANCH  29  30
HETATM   30  C17 UNL     1      23.694 -15.300   6.455  1.00  0.00     0.205 C 
BRANCH  30  31
HETATM   31  C18 UNL     1      23.952 -15.608   5.017  1.00  0.00     0.191 C 
BRANCH  31  32
HETATM   32  O6  UNL     1      22.728 -15.473   4.338  1.00  0.00    -0.399 OA
ATOM     33  H6  UNL     1      22.810 -15.943   3.517  1.00  0.00     0.209 HD
ENDBRANCH  31  32
ENDBRANCH  30  31
ENDBRANCH  29  30
ENDBRANCH  27  29
ENDBRANCH   1  27
TORSDOF 15
ENDMDL
