MODEL 1
REMARK VINA RESULT: -7.432474397      0.000      0.000
REMARK  8 active torsions:
REMARK  status: ('A' for Active; 'I' for Inactive)
REMARK    1  A    between atoms: C3_6  and  C4_7 
REMARK    2  A    between atoms: C4_7  and  C5_8 
REMARK    3  A    between atoms: C5_8  and  O2_9 
REMARK    4  A    between atoms: N2_11  and  C6_12 
REMARK    5  A    between atoms: C6_12  and  C7_13 
REMARK    6  A    between atoms: C7_13  and  C8_14 
REMARK    7  A    between atoms: C14_20  and  C15_21 
REMARK    8  A    between atoms: C15_21  and  C16_22 
ROOT
HETATM    1  O1  UNL     1      -1.366  -4.397  -0.408  1.00  0.00    -0.267 OA
HETATM    2  C1  UNL     1      -0.905  -3.880  -1.455  1.00  0.00     0.258 C 
HETATM    3  N1  UNL     1      -0.066  -2.736  -1.390  1.00  0.00    -0.355 N 
ATOM      4  H1  UNL     1       0.443  -2.533  -0.530  1.00  0.00     0.162 HD
HETATM    5  C2  UNL     1       0.079  -1.839  -2.549  1.00  0.00     0.143 C 
HETATM    6  C3  UNL     1      -0.977  -2.174  -3.561  1.00  0.00     0.083 C 
HETATM    7  N2  UNL     1      -1.131  -3.543  -3.887  1.00  0.00    -0.276 NA
HETATM    8  C14 UNL     1      -1.211  -4.434  -2.797  1.00  0.00     0.057 C 
ENDROOT
BRANCH   7   9
HETATM    9  C6  UNL     1      -2.080  -3.772  -4.912  1.00  0.00     0.096 C 
BRANCH   9  10
HETATM   10  C7  UNL     1      -1.666  -4.725  -6.003  1.00  0.00     0.019 C 
BRANCH  10  11
HETATM   11  C8  UNL     1      -2.859  -5.161  -6.813  1.00  0.00    -0.013 C 
HETATM   12  C9  UNL     1      -3.794  -6.020  -5.949  1.00  0.00     0.005 C 
HETATM   13  C10 UNL     1      -5.105  -6.087  -6.704  1.00  0.00     0.000 C 
HETATM   14  C11 UNL     1      -4.956  -6.644  -8.079  1.00  0.00     0.000 C 
HETATM   15  C12 UNL     1      -3.775  -6.168  -8.841  1.00  0.00     0.000 C 
HETATM   16  C13 UNL     1      -2.530  -5.966  -8.019  1.00  0.00     0.005 C 
ENDBRANCH  10  11
ENDBRANCH   9  10
ENDBRANCH   7   9
BRANCH   6  17
HETATM   17  C4  UNL     1      -0.949  -1.248  -4.694  1.00  0.00     0.047 C 
BRANCH  17  18
HETATM   18  C5  UNL     1      -0.838   0.206  -4.447  1.00  0.00     0.165 C 
BRANCH  18  19
HETATM   19  O2  UNL     1      -0.810   1.053  -5.506  1.00  0.00    -0.401 OA
ATOM     20  H2  UNL     1      -0.809   1.989  -5.347  1.00  0.00     0.209 HD
ENDBRANCH  18  19
ENDBRANCH  17  18
ENDBRANCH   6  17
BRANCH   8  21
HETATM   21  C15 UNL     1      -0.628  -5.758  -3.054  1.00  0.00     0.061 C 
BRANCH  21  22
HETATM   22  C16 UNL     1      -1.471  -6.957  -3.143  1.00  0.00    -0.009 C 
HETATM   23  C17 UNL     1      -0.863  -7.919  -4.196  1.00  0.00     0.005 C 
HETATM   24  C18 UNL     1      -1.568  -9.233  -4.174  1.00  0.00     0.000 C 
HETATM   25  C19 UNL     1      -1.093  -9.983  -2.936  1.00  0.00     0.000 C 
HETATM   26  C20 UNL     1      -0.626  -8.963  -1.925  1.00  0.00     0.000 C 
HETATM   27  C21 UNL     1      -1.590  -7.781  -1.898  1.00  0.00     0.005 C 
ENDBRANCH  21  22
ENDBRANCH   8  21
TORSDOF 8
ENDMDL
MODEL 2
REMARK VINA RESULT: -7.424184353      2.248      5.565
REMARK  8 active torsions:
REMARK  status: ('A' for Active; 'I' for Inactive)
REMARK    1  A    between atoms: C3_6  and  C4_7 
REMARK    2  A    between atoms: C4_7  and  C5_8 
REMARK    3  A    between atoms: C5_8  and  O2_9 
REMARK    4  A    between atoms: N2_11  and  C6_12 
REMARK    5  A    between atoms: C6_12  and  C7_13 
REMARK    6  A    between atoms: C7_13  and  C8_14 
REMARK    7  A    between atoms: C14_20  and  C15_21 
REMARK    8  A    between atoms: C15_21  and  C16_22 
ROOT
HETATM    1  O1  UNL     1      -0.586  -5.604  -0.207  1.00  0.00    -0.267 OA
HETATM    2  C1  UNL     1      -1.124  -6.157  -1.197  1.00  0.00     0.258 C 
HETATM    3  N1  UNL     1      -1.876  -7.352  -1.042  1.00  0.00    -0.355 N 
ATOM      4  H1  UNL     1      -2.275  -7.581  -0.132  1.00  0.00     0.162 HD
HETATM    5  C2  UNL     1      -2.086  -8.264  -2.179  1.00  0.00     0.143 C 
HETATM    6  C3  UNL     1      -1.170  -7.870  -3.299  1.00  0.00     0.083 C 
HETATM    7  N2  UNL     1      -1.140  -6.496  -3.640  1.00  0.00    -0.276 NA
HETATM    8  C14 UNL     1      -1.000  -5.594  -2.565  1.00  0.00     0.057 C 
ENDROOT
BRANCH   7   9
HETATM    9  C6  UNL     1      -0.325  -6.214  -4.761  1.00  0.00     0.096 C 
BRANCH   9  10
HETATM   10  C7  UNL     1      -0.900  -5.267  -5.783  1.00  0.00     0.019 C 
BRANCH  10  11
HETATM   11  C8  UNL     1      -2.159  -5.833  -6.387  1.00  0.00    -0.013 C 
HETATM   12  C9  UNL     1      -2.166  -5.593  -7.904  1.00  0.00     0.005 C 
HETATM   13  C10 UNL     1      -3.244  -6.500  -8.458  1.00  0.00     0.000 C 
HETATM   14  C11 UNL     1      -4.582  -6.251  -7.853  1.00  0.00     0.000 C 
HETATM   15  C12 UNL     1      -4.593  -6.028  -6.386  1.00  0.00     0.000 C 
HETATM   16  C13 UNL     1      -3.419  -5.250  -5.855  1.00  0.00     0.005 C 
ENDBRANCH  10  11
ENDBRANCH   9  10
ENDBRANCH   7   9
BRANCH   6  17
HETATM   17  C4  UNL     1      -1.261  -8.804  -4.422  1.00  0.00     0.047 C 
BRANCH  17  18
HETATM   18  C5  UNL     1      -1.223 -10.260  -4.166  1.00  0.00     0.165 C 
BRANCH  18  19
HETATM   19  O2  UNL     1      -0.079 -10.943  -4.424  1.00  0.00    -0.401 OA
ATOM     20  H2  UNL     1      -0.119 -11.717  -4.973  1.00  0.00     0.209 HD
ENDBRANCH  18  19
ENDBRANCH  17  18
ENDBRANCH   6  17
BRANCH   8  21
HETATM   21  C15 UNL     1      -1.692  -4.311  -2.758  1.00  0.00     0.061 C 
BRANCH  21  22
HETATM   22  C16 UNL     1      -1.036  -3.037  -2.438  1.00  0.00    -0.009 C 
HETATM   23  C17 UNL     1       0.306  -2.957  -3.211  1.00  0.00     0.005 C 
HETATM   24  C18 UNL     1       0.906  -1.599  -3.077  1.00  0.00     0.000 C 
HETATM   25  C19 UNL     1       0.114  -0.661  -3.979  1.00  0.00     0.000 C 
HETATM   26  C20 UNL     1      -1.267  -1.245  -4.158  1.00  0.00     0.000 C 
HETATM   27  C21 UNL     1      -1.774  -1.794  -2.828  1.00  0.00     0.005 C 
ENDBRANCH  21  22
ENDBRANCH   8  21
TORSDOF 8
ENDMDL
MODEL 3
REMARK VINA RESULT: -7.389090623      0.918      1.187
REMARK  8 active torsions:
REMARK  status: ('A' for Active; 'I' for Inactive)
REMARK    1  A    between atoms: C3_6  and  C4_7 
REMARK    2  A    between atoms: C4_7  and  C5_8 
REMARK    3  A    between atoms: C5_8  and  O2_9 
REMARK    4  A    between atoms: N2_11  and  C6_12 
REMARK    5  A    between atoms: C6_12  and  C7_13 
REMARK    6  A    between atoms: C7_13  and  C8_14 
REMARK    7  A    between atoms: C14_20  and  C15_21 
REMARK    8  A    between atoms: C15_21  and  C16_22 
ROOT
HETATM    1  O1  UNL     1      -2.447  -4.508   0.006  1.00  0.00    -0.267 OA
HETATM    2  C1  UNL     1      -1.507  -4.083  -0.707  1.00  0.00     0.258 C 
HETATM    3  N1  UNL     1      -0.649  -3.053  -0.238  1.00  0.00    -0.355 N 
ATOM      4  H1  UNL     1      -0.556  -2.892   0.764  1.00  0.00     0.162 HD
HETATM    5  C2  UNL     1       0.108  -2.213  -1.182  1.00  0.00     0.143 C 
HETATM    6  C3  UNL     1      -0.418  -2.439  -2.569  1.00  0.00     0.083 C 
HETATM    7  N2  UNL     1      -0.581  -3.786  -2.973  1.00  0.00    -0.276 NA
HETATM    8  C14 UNL     1      -1.250  -4.630  -2.063  1.00  0.00     0.057 C 
ENDROOT
BRANCH   7   9
HETATM    9  C6  UNL     1      -0.993  -3.920  -4.320  1.00  0.00     0.096 C 
BRANCH   9  10
HETATM   10  C7  UNL     1      -2.480  -3.960  -4.562  1.00  0.00     0.019 C 
BRANCH  10  11
HETATM   11  C8  UNL     1      -2.791  -4.647  -5.867  1.00  0.00    -0.013 C 
HETATM   12  C9  UNL     1      -3.859  -5.728  -5.649  1.00  0.00     0.005 C 
HETATM   13  C10 UNL     1      -4.368  -6.088  -7.028  1.00  0.00     0.000 C 
HETATM   14  C11 UNL     1      -3.288  -6.555  -7.942  1.00  0.00     0.000 C 
HETATM   15  C12 UNL     1      -2.019  -5.789  -7.883  1.00  0.00     0.000 C 
HETATM   16  C13 UNL     1      -1.628  -5.316  -6.508  1.00  0.00     0.005 C 
ENDBRANCH  10  11
ENDBRANCH   9  10
ENDBRANCH   7   9
BRANCH   6  17
HETATM   17  C4  UNL     1       0.228  -1.554  -3.539  1.00  0.00     0.047 C 
BRANCH  17  18
HETATM   18  C5  UNL     1      -0.542  -0.445  -4.143  1.00  0.00     0.165 C 
BRANCH  18  19
HETATM   19  O2  UNL     1      -0.995  -0.576  -5.415  1.00  0.00    -0.401 OA
ATOM     20  H2  UNL     1      -0.673   0.019  -6.082  1.00  0.00     0.209 HD
ENDBRANCH  18  19
ENDBRANCH  17  18
ENDBRANCH   6  17
BRANCH   8  21
HETATM   21  C15 UNL     1      -0.784  -6.023  -2.076  1.00  0.00     0.061 C 
BRANCH  21  22
HETATM   22  C16 UNL     1      -1.583  -7.087  -2.697  1.00  0.00    -0.009 C 
HETATM   23  C17 UNL     1      -0.775  -7.699  -3.871  1.00  0.00     0.005 C 
HETATM   24  C18 UNL     1      -1.460  -8.914  -4.399  1.00  0.00     0.000 C 
HETATM   25  C19 UNL     1      -1.222 -10.040  -3.401  1.00  0.00     0.000 C 
HETATM   26  C20 UNL     1      -0.966  -9.415  -2.050  1.00  0.00     0.000 C 
HETATM   27  C21 UNL     1      -1.929  -8.254  -1.824  1.00  0.00     0.005 C 
ENDBRANCH  21  22
ENDBRANCH   8  21
TORSDOF 8
ENDMDL
MODEL 4
REMARK VINA RESULT: -7.328632286      2.229      5.968
REMARK  8 active torsions:
REMARK  status: ('A' for Active; 'I' for Inactive)
REMARK    1  A    between atoms: C3_6  and  C4_7 
REMARK    2  A    between atoms: C4_7  and  C5_8 
REMARK    3  A    between atoms: C5_8  and  O2_9 
REMARK    4  A    between atoms: N2_11  and  C6_12 
REMARK    5  A    between atoms: C6_12  and  C7_13 
REMARK    6  A    between atoms: C7_13  and  C8_14 
REMARK    7  A    between atoms: C14_20  and  C15_21 
REMARK    8  A    between atoms: C15_21  and  C16_22 
ROOT
HETATM    1  O1  UNL     1      -0.195  -5.011  -7.102  1.00  0.00    -0.267 OA
HETATM    2  C1  UNL     1      -0.596  -4.959  -5.915  1.00  0.00     0.258 C 
HETATM    3  N1  UNL     1      -0.028  -4.036  -4.997  1.00  0.00    -0.355 N 
ATOM      4  H1  UNL     1       0.440  -3.201  -5.347  1.00  0.00     0.162 HD
HETATM    5  C2  UNL     1      -0.105  -4.271  -3.545  1.00  0.00     0.143 C 
HETATM    6  C3  UNL     1      -0.562  -5.679  -3.301  1.00  0.00     0.083 C 
HETATM    7  N2  UNL     1      -1.692  -6.115  -4.033  1.00  0.00    -0.276 NA
HETATM    8  C14 UNL     1      -1.674  -5.849  -5.417  1.00  0.00     0.057 C 
ENDROOT
BRANCH   7   9
HETATM    9  C6  UNL     1      -2.118  -7.418  -3.684  1.00  0.00     0.096 C 
BRANCH   9  10
HETATM   10  C7  UNL     1      -1.447  -8.556  -4.409  1.00  0.00     0.019 C 
BRANCH  10  11
HETATM   11  C8  UNL     1      -1.679  -9.860  -3.690  1.00  0.00    -0.013 C 
HETATM   12  C9  UNL     1      -0.862  -9.894  -2.390  1.00  0.00     0.005 C 
HETATM   13  C10 UNL     1      -1.435 -11.034  -1.575  1.00  0.00     0.000 C 
HETATM   14  C11 UNL     1      -1.391 -12.340  -2.290  1.00  0.00     0.000 C 
HETATM   15  C12 UNL     1      -1.762 -12.300  -3.726  1.00  0.00     0.000 C 
HETATM   16  C13 UNL     1      -1.303 -11.072  -4.465  1.00  0.00     0.005 C 
ENDBRANCH  10  11
ENDBRANCH   9  10
ENDBRANCH   7   9
BRANCH   6  17
HETATM   17  C4  UNL     1      -0.560  -6.005  -1.874  1.00  0.00     0.047 C 
BRANCH  17  18
HETATM   18  C5  UNL     1      -1.193  -5.076  -0.912  1.00  0.00     0.165 C 
BRANCH  18  19
HETATM   19  O2  UNL     1      -2.483  -4.706  -1.108  1.00  0.00    -0.401 OA
ATOM     20  H2  UNL     1      -3.157  -5.066  -0.543  1.00  0.00     0.209 HD
ENDBRANCH  18  19
ENDBRANCH  17  18
ENDBRANCH   6  17
BRANCH   8  21
HETATM   21  C15 UNL     1      -2.997  -5.584  -6.000  1.00  0.00     0.061 C 
BRANCH  21  22
HETATM   22  C16 UNL     1      -3.639  -6.548  -6.902  1.00  0.00    -0.009 C 
HETATM   23  C17 UNL     1      -5.123  -6.142  -7.094  1.00  0.00     0.005 C 
HETATM   24  C18 UNL     1      -5.758  -6.971  -8.159  1.00  0.00     0.000 C 
HETATM   25  C19 UNL     1      -5.248  -6.458  -9.499  1.00  0.00     0.000 C 
HETATM   26  C20 UNL     1      -3.911  -5.797  -9.265  1.00  0.00     0.000 C 
HETATM   27  C21 UNL     1      -3.084  -6.630  -8.291  1.00  0.00     0.005 C 
ENDBRANCH  21  22
ENDBRANCH   8  21
TORSDOF 8
ENDMDL
MODEL 5
REMARK VINA RESULT: -7.270904298      2.064      5.612
REMARK  8 active torsions:
REMARK  status: ('A' for Active; 'I' for Inactive)
REMARK    1  A    between atoms: C3_6  and  C4_7 
REMARK    2  A    between atoms: C4_7  and  C5_8 
REMARK    3  A    between atoms: C5_8  and  O2_9 
REMARK    4  A    between atoms: N2_11  and  C6_12 
REMARK    5  A    between atoms: C6_12  and  C7_13 
REMARK    6  A    between atoms: C7_13  and  C8_14 
REMARK    7  A    between atoms: C14_20  and  C15_21 
REMARK    8  A    between atoms: C15_21  and  C16_22 
ROOT
HETATM    1  O1  UNL     1      -0.032  -5.293  -7.001  1.00  0.00    -0.267 OA
HETATM    2  C1  UNL     1      -0.668  -4.995  -5.961  1.00  0.00     0.258 C 
HETATM    3  N1  UNL     1      -0.732  -3.650  -5.510  1.00  0.00    -0.355 N 
ATOM      4  H1  UNL     1      -0.575  -2.889  -6.171  1.00  0.00     0.162 HD
HETATM    5  C2  UNL     1      -1.022  -3.339  -4.100  1.00  0.00     0.143 C 
HETATM    6  C3  UNL     1      -0.917  -4.597  -3.290  1.00  0.00     0.083 C 
HETATM    7  N2  UNL     1      -1.589  -5.736  -3.797  1.00  0.00    -0.276 NA
HETATM    8  C14 UNL     1      -1.378  -6.024  -5.161  1.00  0.00     0.057 C 
ENDROOT
BRANCH   7   9
HETATM    9  C6  UNL     1      -1.520  -6.857  -2.936  1.00  0.00     0.096 C 
BRANCH   9  10
HETATM   10  C7  UNL     1      -0.579  -7.959  -3.349  1.00  0.00     0.019 C 
BRANCH  10  11
HETATM   11  C8  UNL     1      -1.233  -9.307  -3.192  1.00  0.00    -0.013 C 
HETATM   12  C9  UNL     1      -0.575 -10.079  -2.039  1.00  0.00     0.005 C 
HETATM   13  C10 UNL     1      -1.516 -11.220  -1.719  1.00  0.00     0.000 C 
HETATM   14  C11 UNL     1      -1.783 -12.100  -2.891  1.00  0.00     0.000 C 
HETATM   15  C12 UNL     1      -2.002 -11.403  -4.182  1.00  0.00     0.000 C 
HETATM   16  C13 UNL     1      -1.151 -10.179  -4.394  1.00  0.00     0.005 C 
ENDBRANCH  10  11
ENDBRANCH   9  10
ENDBRANCH   7   9
BRANCH   6  17
HETATM   17  C4  UNL     1      -1.095  -4.334  -1.862  1.00  0.00     0.047 C 
BRANCH  17  18
HETATM   18  C5  UNL     1      -2.164  -3.414  -1.416  1.00  0.00     0.165 C 
BRANCH  18  19
HETATM   19  O2  UNL     1      -3.256  -3.926  -0.796  1.00  0.00    -0.401 OA
ATOM     20  H2  UNL     1      -4.025  -3.379  -0.693  1.00  0.00     0.209 HD
ENDBRANCH  18  19
ENDBRANCH  17  18
ENDBRANCH   6  17
BRANCH   8  21
HETATM   21  C15 UNL     1      -2.535  -6.627  -5.837  1.00  0.00     0.061 C 
BRANCH  21  22
HETATM   22  C16 UNL     1      -3.282  -5.894  -6.867  1.00  0.00    -0.009 C 
HETATM   23  C17 UNL     1      -3.071  -6.598  -8.233  1.00  0.00     0.005 C 
HETATM   24  C18 UNL     1      -3.971  -6.011  -9.268  1.00  0.00     0.000 C 
HETATM   25  C19 UNL     1      -5.376  -6.536  -9.000  1.00  0.00     0.000 C 
HETATM   26  C20 UNL     1      -5.464  -6.900  -7.537  1.00  0.00     0.000 C 
HETATM   27  C21 UNL     1      -4.769  -5.835  -6.695  1.00  0.00     0.005 C 
ENDBRANCH  21  22
ENDBRANCH   8  21
TORSDOF 8
ENDMDL
