MODEL 1
REMARK VINA RESULT: -8.600669638      0.000      0.000
REMARK  9 active torsions:
REMARK  status: ('A' for Active; 'I' for Inactive)
REMARK    1  A    between atoms: C3_3  and  C4_4 
REMARK    2  A    between atoms: C9_9  and  N1_10 
REMARK       I    between atoms: N1_10  and  C10_12 
REMARK    3  A    between atoms: C10_12  and  C11_14 
REMARK    4  A    between atoms: C11_14  and  N2_15 
REMARK    5  A    between atoms: C11_14  and  C12_19 
REMARK    6  A    between atoms: C12_19  and  C13_20 
REMARK    7  A    between atoms: C13_20  and  C14_21 
REMARK    8  A    between atoms: C14_21  and  C15_22 
REMARK    9  A    between atoms: C15_22  and  O2_23 
ROOT
HETATM    1  C1  UNL     1      -1.312 -10.001  -4.459  1.00  0.00     0.012 C 
HETATM    2  C2  UNL     1      -1.434  -9.017  -3.751  1.00  0.00    -0.117 C 
HETATM    3  C3  UNL     1      -1.572  -7.843  -2.887  1.00  0.00     0.102 C 
ENDROOT
BRANCH   3   4
HETATM    4  C4  UNL     1      -1.555  -6.594  -3.765  1.00  0.00    -0.027 C 
HETATM    5  C5  UNL     1      -0.166  -6.506  -4.351  1.00  0.00     0.015 C 
HETATM    6  C6  UNL     1      -0.050  -5.267  -5.217  1.00  0.00    -0.013 C 
HETATM    7  C7  UNL     1      -0.681  -5.588  -6.539  1.00  0.00     0.007 C 
HETATM    8  C19 UNL     1      -0.570  -4.034  -4.567  1.00  0.00     0.009 C 
HETATM    9  C8  UNL     1      -2.100  -5.139  -6.668  1.00  0.00     0.031 C 
HETATM   10  C9  UNL     1      -2.985  -5.477  -5.534  1.00  0.00     0.034 C 
HETATM   11  C17 UNL     1      -3.013  -4.286  -4.596  1.00  0.00     0.035 C 
HETATM   12  C21 UNL     1      -2.604  -6.740  -4.803  1.00  0.00     0.041 C 
HETATM   13  C18 UNL     1      -1.790  -4.185  -3.734  1.00  0.00    -0.011 C 
HETATM   14  C20 UNL     1      -1.730  -5.421  -2.865  1.00  0.00     0.015 C 
BRANCH  10  15
HETATM   15  N1  UNL     1      -4.332  -5.680  -6.015  1.00  0.00    -0.350 N 
HETATM   16  C10 UNL     1      -4.693  -6.187  -7.287  1.00  0.00     0.248 C 
HETATM   17  O1  UNL     1      -3.800  -6.505  -8.101  1.00  0.00    -0.271 OA
ATOM     18  H1  UNL     1      -5.092  -5.437  -5.380  1.00  0.00     0.163 HD
BRANCH  16  19
HETATM   19  C11 UNL     1      -6.100  -6.365  -7.713  1.00  0.00     0.274 C 
BRANCH  19  20
HETATM   20  N2  UNL     1      -6.955  -6.852  -6.666  1.00  0.00    -0.067 N 
ATOM     21  H23 UNL     1      -6.951  -6.215  -5.869  1.00  0.00     0.275 HD
ATOM     22  H22 UNL     1      -7.936  -6.779  -6.935  1.00  0.00     0.275 HD
ATOM     23  H21 UNL     1      -6.731  -7.803  -6.371  1.00  0.00     0.275 HD
ENDBRANCH  19  20
BRANCH  19  24
HETATM   24  C12 UNL     1      -6.196  -7.365  -8.873  1.00  0.00     0.042 C 
BRANCH  24  25
HETATM   25  C13 UNL     1      -7.318  -6.865  -9.781  1.00  0.00     0.004 C 
BRANCH  25  26
HETATM   26  C14 UNL     1      -8.285  -8.025  -9.999  1.00  0.00     0.026 C 
BRANCH  26  27
HETATM   27  C15 UNL     1      -9.355  -8.034  -8.955  1.00  0.00     0.167 C 
BRANCH  27  28
HETATM   28  O2  UNL     1      -8.985  -8.792  -7.877  1.00  0.00    -0.396 OA
HETATM   29  C16 UNL     1      -9.935  -8.939  -6.905  1.00  0.00     0.201 C 
ENDBRANCH  27  28
ENDBRANCH  26  27
ENDBRANCH  25  26
ENDBRANCH  24  25
ENDBRANCH  19  24
ENDBRANCH  16  19
ENDBRANCH  10  15
ENDBRANCH   3   4
TORSDOF 9
ENDMDL
MODEL 2
REMARK VINA RESULT: -8.485066018      0.964      1.027
REMARK  9 active torsions:
REMARK  status: ('A' for Active; 'I' for Inactive)
REMARK    1  A    between atoms: C3_3  and  C4_4 
REMARK    2  A    between atoms: C9_9  and  N1_10 
REMARK       I    between atoms: N1_10  and  C10_12 
REMARK    3  A    between atoms: C10_12  and  C11_14 
REMARK    4  A    between atoms: C11_14  and  N2_15 
REMARK    5  A    between atoms: C11_14  and  C12_19 
REMARK    6  A    between atoms: C12_19  and  C13_20 
REMARK    7  A    between atoms: C13_20  and  C14_21 
REMARK    8  A    between atoms: C14_21  and  C15_22 
REMARK    9  A    between atoms: C15_22  and  O2_23 
ROOT
HETATM    1  C1  UNL     1      -1.320  -9.991  -4.465  1.00  0.00     0.012 C 
HETATM    2  C2  UNL     1      -1.474  -8.973  -3.813  1.00  0.00    -0.117 C 
HETATM    3  C3  UNL     1      -1.649  -7.757  -3.017  1.00  0.00     0.102 C 
ENDROOT
BRANCH   3   4
HETATM    4  C4  UNL     1      -1.681  -6.561  -3.965  1.00  0.00    -0.027 C 
HETATM    5  C5  UNL     1      -0.314  -6.488  -4.603  1.00  0.00     0.015 C 
HETATM    6  C6  UNL     1      -0.246  -5.299  -5.542  1.00  0.00    -0.013 C 
HETATM    7  C7  UNL     1      -0.916  -5.705  -6.821  1.00  0.00     0.007 C 
HETATM    8  C19 UNL     1      -0.764  -4.038  -4.946  1.00  0.00     0.009 C 
HETATM    9  C8  UNL     1      -2.346  -5.284  -6.926  1.00  0.00     0.031 C 
HETATM   10  C9  UNL     1      -3.187  -5.568  -5.745  1.00  0.00     0.034 C 
HETATM   11  C17 UNL     1      -3.202  -4.325  -4.877  1.00  0.00     0.035 C 
HETATM   12  C21 UNL     1      -2.761  -6.781  -4.956  1.00  0.00     0.041 C 
HETATM   13  C18 UNL     1      -1.953  -4.157  -4.064  1.00  0.00    -0.011 C 
HETATM   14  C20 UNL     1      -1.844  -5.340  -3.129  1.00  0.00     0.015 C 
BRANCH  10  15
HETATM   15  N1  UNL     1      -4.545  -5.817  -6.167  1.00  0.00    -0.350 N 
HETATM   16  C10 UNL     1      -4.948  -6.290  -7.440  1.00  0.00     0.248 C 
HETATM   17  O1  UNL     1      -4.084  -6.532  -8.309  1.00  0.00    -0.271 OA
ATOM     18  H1  UNL     1      -5.283  -5.637  -5.486  1.00  0.00     0.163 HD
BRANCH  16  19
HETATM   19  C11 UNL     1      -6.365  -6.519  -7.803  1.00  0.00     0.274 C 
BRANCH  19  20
HETATM   20  N2  UNL     1      -7.191  -6.869  -6.680  1.00  0.00    -0.067 N 
ATOM     21  H23 UNL     1      -8.034  -7.354  -6.988  1.00  0.00     0.275 HD
ATOM     22  H22 UNL     1      -6.759  -7.612  -6.130  1.00  0.00     0.275 HD
ATOM     23  H21 UNL     1      -7.428  -6.072  -6.088  1.00  0.00     0.275 HD
ENDBRANCH  19  20
BRANCH  19  24
HETATM   24  C12 UNL     1      -6.489  -7.658  -8.823  1.00  0.00     0.042 C 
BRANCH  24  25
HETATM   25  C13 UNL     1      -7.099  -7.043 -10.082  1.00  0.00     0.004 C 
BRANCH  25  26
HETATM   26  C14 UNL     1      -8.097  -8.050 -10.647  1.00  0.00     0.026 C 
BRANCH  26  27
HETATM   27  C15 UNL     1      -9.372  -8.037  -9.868  1.00  0.00     0.167 C 
BRANCH  27  28
HETATM   28  O2  UNL     1     -10.431  -8.413 -10.649  1.00  0.00    -0.396 OA
HETATM   29  C16 UNL     1     -11.653  -8.398 -10.036  1.00  0.00     0.201 C 
ENDBRANCH  27  28
ENDBRANCH  26  27
ENDBRANCH  25  26
ENDBRANCH  24  25
ENDBRANCH  19  24
ENDBRANCH  16  19
ENDBRANCH  10  15
ENDBRANCH   3   4
TORSDOF 9
ENDMDL
MODEL 3
REMARK VINA RESULT: -7.949243133      1.336      3.200
REMARK  9 active torsions:
REMARK  status: ('A' for Active; 'I' for Inactive)
REMARK    1  A    between atoms: C3_3  and  C4_4 
REMARK    2  A    between atoms: C9_9  and  N1_10 
REMARK       I    between atoms: N1_10  and  C10_12 
REMARK    3  A    between atoms: C10_12  and  C11_14 
REMARK    4  A    between atoms: C11_14  and  N2_15 
REMARK    5  A    between atoms: C11_14  and  C12_19 
REMARK    6  A    between atoms: C12_19  and  C13_20 
REMARK    7  A    between atoms: C13_20  and  C14_21 
REMARK    8  A    between atoms: C14_21  and  C15_22 
REMARK    9  A    between atoms: C15_22  and  O2_23 
ROOT
HETATM    1  C1  UNL     1      -0.013  -1.289  -3.403  1.00  0.00     0.012 C 
HETATM    2  C2  UNL     1      -1.005  -1.928  -3.705  1.00  0.00    -0.117 C 
HETATM    3  C3  UNL     1      -2.204  -2.680  -4.075  1.00  0.00     0.102 C 
ENDROOT
BRANCH   3   4
HETATM    4  C4  UNL     1      -1.780  -4.077  -4.521  1.00  0.00    -0.027 C 
HETATM    5  C5  UNL     1      -1.300  -4.791  -3.280  1.00  0.00     0.015 C 
HETATM    6  C6  UNL     1      -0.824  -6.185  -3.639  1.00  0.00    -0.013 C 
HETATM    7  C7  UNL     1      -2.043  -7.050  -3.771  1.00  0.00     0.007 C 
HETATM    8  C19 UNL     1       0.088  -6.220  -4.813  1.00  0.00     0.009 C 
HETATM    9  C8  UNL     1      -2.531  -7.215  -5.173  1.00  0.00     0.031 C 
HETATM   10  C9  UNL     1      -2.645  -5.972  -5.964  1.00  0.00     0.034 C 
HETATM   11  C17 UNL     1      -1.361  -5.805  -6.753  1.00  0.00     0.035 C 
HETATM   12  C21 UNL     1      -2.948  -4.741  -5.146  1.00  0.00     0.041 C 
HETATM   13  C18 UNL     1      -0.222  -5.287  -5.926  1.00  0.00    -0.011 C 
HETATM   14  C20 UNL     1      -0.603  -3.914  -5.419  1.00  0.00     0.015 C 
BRANCH  10  15
HETATM   15  N1  UNL     1      -3.723  -6.101  -6.915  1.00  0.00    -0.350 N 
HETATM   16  C10 UNL     1      -5.103  -6.173  -6.603  1.00  0.00     0.248 C 
HETATM   17  O1  UNL     1      -5.470  -6.122  -5.410  1.00  0.00    -0.271 OA
ATOM     18  H1  UNL     1      -3.469  -6.143  -7.901  1.00  0.00     0.163 HD
BRANCH  16  19
HETATM   19  C11 UNL     1      -6.156  -6.309  -7.636  1.00  0.00     0.274 C 
BRANCH  19  20
HETATM   20  N2  UNL     1      -7.365  -6.908  -7.141  1.00  0.00    -0.067 N 
ATOM     21  H23 UNL     1      -7.699  -6.417  -6.312  1.00  0.00     0.275 HD
ATOM     22  H22 UNL     1      -8.145  -6.723  -7.772  1.00  0.00     0.275 HD
ATOM     23  H21 UNL     1      -7.276  -7.908  -6.959  1.00  0.00     0.275 HD
ENDBRANCH  19  20
BRANCH  19  24
HETATM   24  C12 UNL     1      -5.667  -7.181  -8.800  1.00  0.00     0.042 C 
BRANCH  24  25
HETATM   25  C13 UNL     1      -6.574  -6.862  -9.988  1.00  0.00     0.004 C 
BRANCH  25  26
HETATM   26  C14 UNL     1      -7.195  -8.174 -10.457  1.00  0.00     0.026 C 
BRANCH  26  27
HETATM   27  C15 UNL     1      -8.684  -8.065 -10.537  1.00  0.00     0.167 C 
BRANCH  27  28
HETATM   28  O2  UNL     1      -9.221  -7.761  -9.316  1.00  0.00    -0.396 OA
HETATM   29  C16 UNL     1     -10.282  -8.532  -8.929  1.00  0.00     0.201 C 
ENDBRANCH  27  28
ENDBRANCH  26  27
ENDBRANCH  25  26
ENDBRANCH  24  25
ENDBRANCH  19  24
ENDBRANCH  16  19
ENDBRANCH  10  15
ENDBRANCH   3   4
TORSDOF 9
ENDMDL
MODEL 4
REMARK VINA RESULT: -7.586828669      1.120      1.351
REMARK  9 active torsions:
REMARK  status: ('A' for Active; 'I' for Inactive)
REMARK    1  A    between atoms: C3_3  and  C4_4 
REMARK    2  A    between atoms: C9_9  and  N1_10 
REMARK       I    between atoms: N1_10  and  C10_12 
REMARK    3  A    between atoms: C10_12  and  C11_14 
REMARK    4  A    between atoms: C11_14  and  N2_15 
REMARK    5  A    between atoms: C11_14  and  C12_19 
REMARK    6  A    between atoms: C12_19  and  C13_20 
REMARK    7  A    between atoms: C13_20  and  C14_21 
REMARK    8  A    between atoms: C14_21  and  C15_22 
REMARK    9  A    between atoms: C15_22  and  O2_23 
ROOT
HETATM    1  C1  UNL     1      -1.087  -9.873  -4.479  1.00  0.00     0.012 C 
HETATM    2  C2  UNL     1      -1.327  -8.861  -3.843  1.00  0.00    -0.117 C 
HETATM    3  C3  UNL     1      -1.606  -7.652  -3.067  1.00  0.00     0.102 C 
ENDROOT
BRANCH   3   4
HETATM    4  C4  UNL     1      -1.640  -6.462  -4.022  1.00  0.00    -0.027 C 
HETATM    5  C5  UNL     1      -0.207  -6.193  -4.416  1.00  0.00     0.015 C 
HETATM    6  C6  UNL     1      -0.144  -4.997  -5.346  1.00  0.00    -0.013 C 
HETATM    7  C7  UNL     1      -0.520  -5.478  -6.716  1.00  0.00     0.007 C 
HETATM    8  C19 UNL     1      -0.926  -3.826  -4.865  1.00  0.00     0.009 C 
HETATM    9  C8  UNL     1      -1.954  -5.259  -7.071  1.00  0.00     0.031 C 
HETATM   10  C9  UNL     1      -2.939  -5.670  -6.049  1.00  0.00     0.034 C 
HETATM   11  C17 UNL     1      -3.276  -4.451  -5.213  1.00  0.00     0.035 C 
HETATM   12  C21 UNL     1      -2.492  -6.820  -5.182  1.00  0.00     0.041 C 
HETATM   13  C18 UNL     1      -2.221  -4.119  -4.200  1.00  0.00    -0.011 C 
HETATM   14  C20 UNL     1      -2.112  -5.285  -3.244  1.00  0.00     0.015 C 
BRANCH  10  15
HETATM   15  N1  UNL     1      -4.156  -6.101  -6.695  1.00  0.00    -0.350 N 
HETATM   16  C10 UNL     1      -4.280  -6.520  -8.042  1.00  0.00     0.248 C 
HETATM   17  O1  UNL     1      -3.270  -6.539  -8.777  1.00  0.00    -0.271 OA
ATOM     18  H1  UNL     1      -5.005  -6.104  -6.129  1.00  0.00     0.163 HD
BRANCH  16  19
HETATM   19  C11 UNL     1      -5.567  -6.946  -8.638  1.00  0.00     0.274 C 
BRANCH  19  20
HETATM   20  N2  UNL     1      -5.908  -6.224  -9.833  1.00  0.00    -0.067 N 
ATOM     21  H23 UNL     1      -6.919  -6.130  -9.922  1.00  0.00     0.275 HD
ATOM     22  H22 UNL     1      -5.653  -5.240  -9.747  1.00  0.00     0.275 HD
ATOM     23  H21 UNL     1      -5.506  -6.630 -10.679  1.00  0.00     0.275 HD
ENDBRANCH  19  20
BRANCH  19  24
HETATM   24  C12 UNL     1      -6.720  -6.743  -7.646  1.00  0.00     0.042 C 
BRANCH  24  25
HETATM   25  C13 UNL     1      -7.803  -7.749  -8.032  1.00  0.00     0.004 C 
BRANCH  25  26
HETATM   26  C14 UNL     1      -8.946  -7.599  -7.033  1.00  0.00     0.026 C 
BRANCH  26  27
HETATM   27  C15 UNL     1      -9.837  -8.799  -7.052  1.00  0.00     0.167 C 
BRANCH  27  28
HETATM   28  O2  UNL     1     -10.501  -8.901  -8.245  1.00  0.00    -0.396 OA
HETATM   29  C16 UNL     1     -11.519  -9.812  -8.278  1.00  0.00     0.201 C 
ENDBRANCH  27  28
ENDBRANCH  26  27
ENDBRANCH  25  26
ENDBRANCH  24  25
ENDBRANCH  19  24
ENDBRANCH  16  19
ENDBRANCH  10  15
ENDBRANCH   3   4
TORSDOF 9
ENDMDL
MODEL 5
REMARK VINA RESULT: -7.558955629      0.975      2.749
REMARK  9 active torsions:
REMARK  status: ('A' for Active; 'I' for Inactive)
REMARK    1  A    between atoms: C3_3  and  C4_4 
REMARK    2  A    between atoms: C9_9  and  N1_10 
REMARK       I    between atoms: N1_10  and  C10_12 
REMARK    3  A    between atoms: C10_12  and  C11_14 
REMARK    4  A    between atoms: C11_14  and  N2_15 
REMARK    5  A    between atoms: C11_14  and  C12_19 
REMARK    6  A    between atoms: C12_19  and  C13_20 
REMARK    7  A    between atoms: C13_20  and  C14_21 
REMARK    8  A    between atoms: C14_21  and  C15_22 
REMARK    9  A    between atoms: C15_22  and  O2_23 
ROOT
HETATM    1  C1  UNL     1      -1.835  -3.359  -0.608  1.00  0.00     0.012 C 
HETATM    2  C2  UNL     1      -1.976  -3.092  -1.789  1.00  0.00    -0.117 C 
HETATM    3  C3  UNL     1      -2.139  -2.756  -3.204  1.00  0.00     0.102 C 
ENDROOT
BRANCH   3   4
HETATM    4  C4  UNL     1      -1.813  -3.994  -4.035  1.00  0.00    -0.027 C 
HETATM    5  C5  UNL     1      -0.884  -4.837  -3.194  1.00  0.00     0.015 C 
HETATM    6  C6  UNL     1      -0.479  -6.080  -3.961  1.00  0.00    -0.013 C 
HETATM    7  C7  UNL     1      -1.610  -7.060  -3.848  1.00  0.00     0.007 C 
HETATM    8  C19 UNL     1      -0.038  -5.805  -5.355  1.00  0.00     0.009 C 
HETATM    9  C8  UNL     1      -2.549  -7.051  -5.010  1.00  0.00     0.031 C 
HETATM   10  C9  UNL     1      -3.011  -5.720  -5.452  1.00  0.00     0.034 C 
HETATM   11  C17 UNL     1      -2.100  -5.262  -6.575  1.00  0.00     0.035 C 
HETATM   12  C21 UNL     1      -3.083  -4.689  -4.353  1.00  0.00     0.041 C 
HETATM   13  C18 UNL     1      -0.778  -4.747  -6.090  1.00  0.00    -0.011 C 
HETATM   14  C20 UNL     1      -1.040  -3.537  -5.223  1.00  0.00     0.015 C 
BRANCH  10  15
HETATM   15  N1  UNL     1      -4.345  -5.825  -5.994  1.00  0.00    -0.350 N 
HETATM   16  C10 UNL     1      -4.682  -6.269  -7.296  1.00  0.00     0.248 C 
HETATM   17  O1  UNL     1      -3.776  -6.614  -8.084  1.00  0.00    -0.271 OA
ATOM     18  H1  UNL     1      -5.116  -5.557  -5.383  1.00  0.00     0.163 HD
BRANCH  16  19
HETATM   19  C11 UNL     1      -6.078  -6.347  -7.785  1.00  0.00     0.274 C 
BRANCH  19  20
HETATM   20  N2  UNL     1      -7.023  -6.686  -6.756  1.00  0.00    -0.067 N 
ATOM     21  H23 UNL     1      -6.697  -7.487  -6.215  1.00  0.00     0.275 HD
ATOM     22  H22 UNL     1      -7.028  -5.978  -6.022  1.00  0.00     0.275 HD
ATOM     23  H21 UNL     1      -7.966  -6.847  -7.111  1.00  0.00     0.275 HD
ENDBRANCH  19  20
BRANCH  19  24
HETATM   24  C12 UNL     1      -6.211  -7.409  -8.884  1.00  0.00     0.042 C 
BRANCH  24  25
HETATM   25  C13 UNL     1      -7.269  -6.890  -9.858  1.00  0.00     0.004 C 
BRANCH  25  26
HETATM   26  C14 UNL     1      -8.106  -8.084 -10.306  1.00  0.00     0.026 C 
BRANCH  26  27
HETATM   27  C15 UNL     1      -9.460  -8.059  -9.674  1.00  0.00     0.167 C 
BRANCH  27  28
HETATM   28  O2  UNL     1      -9.369  -7.853  -8.324  1.00  0.00    -0.396 OA
HETATM   29  C16 UNL     1      -9.839  -8.869  -7.539  1.00  0.00     0.201 C 
ENDBRANCH  27  28
ENDBRANCH  26  27
ENDBRANCH  25  26
ENDBRANCH  24  25
ENDBRANCH  19  24
ENDBRANCH  16  19
ENDBRANCH  10  15
ENDBRANCH   3   4
TORSDOF 9
ENDMDL
