MODEL 1
REMARK VINA RESULT: -7.526777808      0.000      0.000
REMARK  7 active torsions:
REMARK  status: ('A' for Active; 'I' for Inactive)
REMARK    1  A    between atoms: C2_2  and  C3_3 
REMARK    2  A    between atoms: C3_3  and  C4_4 
REMARK    3  A    between atoms: C4_4  and  C5_5 
REMARK    4  A    between atoms: C5_5  and  C6_6 
REMARK    5  A    between atoms: C6_6  and  C7_7 
REMARK    6  A    between atoms: N1_13  and  C13_14 
REMARK    7  A    between atoms: C13_14  and  C14_15 
REMARK       I    between atoms: N3_20  and  C17_21 
ROOT
HETATM    1  C7  UNL     1      -1.144  -4.094  -2.670  1.00  0.00     0.080 C 
HETATM    2  C8  UNL     1      -1.670  -5.007  -1.567  1.00  0.00     0.025 C 
HETATM    3  C9  UNL     1      -0.695  -6.084  -1.308  1.00  0.00     0.008 C 
HETATM    4  C10 UNL     1      -0.089  -6.749  -2.481  1.00  0.00    -0.001 C 
HETATM    5  C11 UNL     1      -0.676  -8.154  -2.630  1.00  0.00     0.011 C 
HETATM    6  C12 UNL     1      -0.166  -6.009  -3.766  1.00  0.00     0.122 C 
HETATM    7  N1  UNL     1      -0.973  -4.851  -3.841  1.00  0.00    -0.391 N 
ENDROOT
BRANCH   7   8
HETATM    8  C13 UNL     1      -1.980  -4.871  -4.851  1.00  0.00     0.110 C 
HETATM    9  C15 UNL     1      -1.427  -5.101  -6.223  1.00  0.00     0.060 C 
HETATM   10  C16 UNL     1      -2.486  -5.039  -7.307  1.00  0.00     0.130 C 
HETATM   11  N3  UNL     1      -3.693  -5.705  -6.943  1.00  0.00    -0.336 N 
HETATM   12  C17 UNL     1      -4.559  -6.292  -7.940  1.00  0.00     0.330 C 
HETATM   13  C18 UNL     1      -4.127  -5.833  -5.576  1.00  0.00     0.130 C 
HETATM   14  N4  UNL     1      -5.755  -6.953  -7.620  1.00  0.00    -0.040 NA
HETATM   15  O2  UNL     1      -4.206  -6.192  -9.131  1.00  0.00    -0.251 OA
HETATM   16  C19 UNL     1      -2.970  -6.001  -4.634  1.00  0.00     0.060 C 
BRANCH   8  17
HETATM   17  C14 UNL     1      -2.787  -3.630  -4.712  1.00  0.00     0.259 C 
HETATM   18  N2  UNL     1      -2.238  -2.428  -5.251  1.00  0.00    -0.060 NA
HETATM   19  O1  UNL     1      -3.916  -3.568  -4.149  1.00  0.00    -0.274 OA
ENDBRANCH   8  17
ENDBRANCH   7   8
BRANCH   1  20
HETATM   20  C6  UNL     1       0.178  -3.586  -2.143  1.00  0.00     0.025 C 
BRANCH  20  21
HETATM   21  C5  UNL     1       0.741  -2.376  -2.777  1.00  0.00     0.002 C 
BRANCH  21  22
HETATM   22  C4  UNL     1       1.680  -1.569  -1.926  1.00  0.00     0.000 C 
BRANCH  22  23
HETATM   23  C3  UNL     1       2.901  -1.114  -2.708  1.00  0.00    -0.000 C 
BRANCH  23  24
HETATM   24  C2  UNL     1       4.109  -1.527  -1.868  1.00  0.00    -0.005 C 
HETATM   25  C1  UNL     1       5.409  -1.352  -2.597  1.00  0.00     0.005 C 
ENDBRANCH  23  24
ENDBRANCH  22  23
ENDBRANCH  21  22
ENDBRANCH  20  21
ENDBRANCH   1  20
TORSDOF 7
ENDMDL
MODEL 2
REMARK VINA RESULT: -7.411662529      2.864      7.301
REMARK  7 active torsions:
REMARK  status: ('A' for Active; 'I' for Inactive)
REMARK    1  A    between atoms: C2_2  and  C3_3 
REMARK    2  A    between atoms: C3_3  and  C4_4 
REMARK    3  A    between atoms: C4_4  and  C5_5 
REMARK    4  A    between atoms: C5_5  and  C6_6 
REMARK    5  A    between atoms: C6_6  and  C7_7 
REMARK    6  A    between atoms: N1_13  and  C13_14 
REMARK    7  A    between atoms: C13_14  and  C14_15 
REMARK       I    between atoms: N3_20  and  C17_21 
ROOT
HETATM    1  C7  UNL     1      -0.799  -4.163  -4.908  1.00  0.00     0.080 C 
HETATM    2  C8  UNL     1       0.251  -5.229  -4.611  1.00  0.00     0.025 C 
HETATM    3  C9  UNL     1      -0.354  -6.313  -3.813  1.00  0.00     0.008 C 
HETATM    4  C10 UNL     1      -1.232  -5.921  -2.690  1.00  0.00    -0.001 C 
HETATM    5  C11 UNL     1      -0.512  -6.182  -1.365  1.00  0.00     0.011 C 
HETATM    6  C12 UNL     1      -1.772  -4.539  -2.731  1.00  0.00     0.122 C 
HETATM    7  N1  UNL     1      -1.263  -3.635  -3.692  1.00  0.00    -0.391 N 
ENDROOT
BRANCH   7   8
HETATM    8  C13 UNL     1      -0.722  -2.424  -3.168  1.00  0.00     0.110 C 
HETATM    9  C15 UNL     1      -0.976  -2.257  -1.702  1.00  0.00     0.060 C 
HETATM   10  C16 UNL     1      -0.475  -0.933  -1.160  1.00  0.00     0.130 C 
HETATM   11  N3  UNL     1       0.807  -0.573  -1.671  1.00  0.00    -0.336 N 
HETATM   12  C17 UNL     1       1.717   0.252  -0.908  1.00  0.00     0.330 C 
HETATM   13  C18 UNL     1       1.275  -0.999  -2.964  1.00  0.00     0.130 C 
HETATM   14  N4  UNL     1       2.985   0.627  -1.378  1.00  0.00    -0.040 NA
HETATM   15  O2  UNL     1       1.333   0.635   0.214  1.00  0.00    -0.251 OA
HETATM   16  C19 UNL     1       0.788  -2.376  -3.310  1.00  0.00     0.060 C 
BRANCH   8  17
HETATM   17  C14 UNL     1      -1.217  -1.303  -4.010  1.00  0.00     0.259 C 
HETATM   18  N2  UNL     1      -2.437  -0.676  -3.616  1.00  0.00    -0.060 NA
HETATM   19  O1  UNL     1      -0.637  -0.875  -5.047  1.00  0.00    -0.274 OA
ENDBRANCH   8  17
ENDBRANCH   7   8
BRANCH   1  20
HETATM   20  C6  UNL     1      -1.892  -4.904  -5.643  1.00  0.00     0.025 C 
BRANCH  20  21
HETATM   21  C5  UNL     1      -1.567  -5.437  -6.983  1.00  0.00     0.002 C 
BRANCH  21  22
HETATM   22  C4  UNL     1      -2.679  -6.167  -7.682  1.00  0.00     0.000 C 
BRANCH  22  23
HETATM   23  C3  UNL     1      -3.984  -6.080  -6.909  1.00  0.00    -0.000 C 
BRANCH  23  24
HETATM   24  C2  UNL     1      -5.083  -6.434  -7.910  1.00  0.00    -0.005 C 
HETATM   25  C1  UNL     1      -4.583  -6.503  -9.322  1.00  0.00     0.005 C 
ENDBRANCH  23  24
ENDBRANCH  22  23
ENDBRANCH  21  22
ENDBRANCH  20  21
ENDBRANCH   1  20
TORSDOF 7
ENDMDL
MODEL 3
REMARK VINA RESULT: -7.354466545      1.601      2.672
REMARK  7 active torsions:
REMARK  status: ('A' for Active; 'I' for Inactive)
REMARK    1  A    between atoms: C2_2  and  C3_3 
REMARK    2  A    between atoms: C3_3  and  C4_4 
REMARK    3  A    between atoms: C4_4  and  C5_5 
REMARK    4  A    between atoms: C5_5  and  C6_6 
REMARK    5  A    between atoms: C6_6  and  C7_7 
REMARK    6  A    between atoms: N1_13  and  C13_14 
REMARK    7  A    between atoms: C13_14  and  C14_15 
REMARK       I    between atoms: N3_20  and  C17_21 
ROOT
HETATM    1  C7  UNL     1      -0.590  -2.828  -3.887  1.00  0.00     0.080 C 
HETATM    2  C8  UNL     1      -1.608  -1.893  -3.243  1.00  0.00     0.025 C 
HETATM    3  C9  UNL     1      -1.574  -2.057  -1.777  1.00  0.00     0.008 C 
HETATM    4  C10 UNL     1      -1.519  -3.437  -1.249  1.00  0.00    -0.001 C 
HETATM    5  C11 UNL     1      -2.876  -3.803  -0.642  1.00  0.00     0.011 C 
HETATM    6  C12 UNL     1      -1.068  -4.485  -2.198  1.00  0.00     0.122 C 
HETATM    7  N1  UNL     1      -0.926  -4.153  -3.565  1.00  0.00    -0.391 N 
ENDROOT
BRANCH   7   8
HETATM    8  C13 UNL     1      -1.681  -4.956  -4.471  1.00  0.00     0.110 C 
HETATM    9  C15 UNL     1      -3.150  -4.669  -4.422  1.00  0.00     0.060 C 
HETATM   10  C16 UNL     1      -3.962  -5.578  -5.323  1.00  0.00     0.130 C 
HETATM   11  N3  UNL     1      -3.355  -5.786  -6.596  1.00  0.00    -0.336 N 
HETATM   12  C17 UNL     1      -4.148  -6.071  -7.771  1.00  0.00     0.330 C 
HETATM   13  C18 UNL     1      -1.930  -5.729  -6.795  1.00  0.00     0.130 C 
HETATM   14  N4  UNL     1      -3.586  -6.282  -9.039  1.00  0.00    -0.040 NA
HETATM   15  O2  UNL     1      -5.384  -6.127  -7.623  1.00  0.00    -0.251 OA
HETATM   16  C19 UNL     1      -1.282  -4.701  -5.913  1.00  0.00     0.060 C 
BRANCH   8  17
HETATM   17  C14 UNL     1      -1.323  -6.378  -4.225  1.00  0.00     0.259 C 
HETATM   18  N2  UNL     1      -0.003  -6.791  -4.576  1.00  0.00    -0.060 NA
HETATM   19  O1  UNL     1      -2.105  -7.239  -3.735  1.00  0.00    -0.274 OA
ENDBRANCH   8  17
ENDBRANCH   7   8
BRANCH   1  20
HETATM   20  C6  UNL     1       0.732  -2.429  -3.274  1.00  0.00     0.025 C 
BRANCH  20  21
HETATM   21  C5  UNL     1       1.074  -0.990  -3.276  1.00  0.00     0.002 C 
BRANCH  21  22
HETATM   22  C4  UNL     1       1.899  -0.514  -2.115  1.00  0.00     0.000 C 
BRANCH  22  23
HETATM   23  C3  UNL     1       3.151  -1.353  -1.930  1.00  0.00    -0.000 C 
BRANCH  23  24
HETATM   24  C2  UNL     1       4.295  -0.529  -2.520  1.00  0.00    -0.005 C 
HETATM   25  C1  UNL     1       5.433  -1.378  -3.003  1.00  0.00     0.005 C 
ENDBRANCH  23  24
ENDBRANCH  22  23
ENDBRANCH  21  22
ENDBRANCH  20  21
ENDBRANCH   1  20
TORSDOF 7
ENDMDL
MODEL 4
REMARK VINA RESULT: -7.191010729      1.044      1.747
REMARK  7 active torsions:
REMARK  status: ('A' for Active; 'I' for Inactive)
REMARK    1  A    between atoms: C2_2  and  C3_3 
REMARK    2  A    between atoms: C3_3  and  C4_4 
REMARK    3  A    between atoms: C4_4  and  C5_5 
REMARK    4  A    between atoms: C5_5  and  C6_6 
REMARK    5  A    between atoms: C6_6  and  C7_7 
REMARK    6  A    between atoms: N1_13  and  C13_14 
REMARK    7  A    between atoms: C13_14  and  C14_15 
REMARK       I    between atoms: N3_20  and  C17_21 
ROOT
HETATM    1  C7  UNL     1      -1.103  -4.074  -2.782  1.00  0.00     0.080 C 
HETATM    2  C8  UNL     1      -1.615  -4.950  -1.644  1.00  0.00     0.025 C 
HETATM    3  C9  UNL     1      -0.651  -6.036  -1.383  1.00  0.00     0.008 C 
HETATM    4  C10 UNL     1      -0.085  -6.739  -2.554  1.00  0.00    -0.001 C 
HETATM    5  C11 UNL     1      -0.698  -8.139  -2.652  1.00  0.00     0.011 C 
HETATM    6  C12 UNL     1      -0.183  -6.030  -3.854  1.00  0.00     0.122 C 
HETATM    7  N1  UNL     1      -0.974  -4.862  -3.937  1.00  0.00    -0.391 N 
ENDROOT
BRANCH   7   8
HETATM    8  C13 UNL     1      -2.006  -4.890  -4.921  1.00  0.00     0.110 C 
HETATM    9  C15 UNL     1      -1.488  -5.125  -6.306  1.00  0.00     0.060 C 
HETATM   10  C16 UNL     1      -2.573  -5.073  -7.363  1.00  0.00     0.130 C 
HETATM   11  N3  UNL     1      -3.769  -5.740  -6.965  1.00  0.00    -0.336 N 
HETATM   12  C17 UNL     1      -4.658  -6.335  -7.937  1.00  0.00     0.330 C 
HETATM   13  C18 UNL     1      -4.168  -5.863  -5.587  1.00  0.00     0.130 C 
HETATM   14  N4  UNL     1      -5.843  -6.999  -7.584  1.00  0.00    -0.040 NA
HETATM   15  O2  UNL     1      -4.336  -6.240  -9.137  1.00  0.00    -0.251 OA
HETATM   16  C19 UNL     1      -2.986  -6.022  -4.674  1.00  0.00     0.060 C 
BRANCH   8  17
HETATM   17  C14 UNL     1      -2.814  -3.651  -4.768  1.00  0.00     0.259 C 
HETATM   18  N2  UNL     1      -2.292  -2.453  -5.343  1.00  0.00    -0.060 NA
HETATM   19  O1  UNL     1      -3.921  -3.587  -4.164  1.00  0.00    -0.274 OA
ENDBRANCH   8  17
ENDBRANCH   7   8
BRANCH   1  20
HETATM   20  C6  UNL     1       0.239  -3.574  -2.301  1.00  0.00     0.025 C 
BRANCH  20  21
HETATM   21  C5  UNL     1       0.868  -2.475  -3.064  1.00  0.00     0.002 C 
BRANCH  21  22
HETATM   22  C4  UNL     1       1.373  -1.319  -2.248  1.00  0.00     0.000 C 
BRANCH  22  23
HETATM   23  C3  UNL     1       0.516  -0.079  -2.434  1.00  0.00    -0.000 C 
BRANCH  23  24
HETATM   24  C2  UNL     1      -0.129  -0.223  -3.811  1.00  0.00    -0.005 C 
HETATM   25  C1  UNL     1      -0.625   1.082  -4.359  1.00  0.00     0.005 C 
ENDBRANCH  23  24
ENDBRANCH  22  23
ENDBRANCH  21  22
ENDBRANCH  20  21
ENDBRANCH   1  20
TORSDOF 7
ENDMDL
MODEL 5
REMARK VINA RESULT: -7.185553588      2.979      7.226
REMARK  7 active torsions:
REMARK  status: ('A' for Active; 'I' for Inactive)
REMARK    1  A    between atoms: C2_2  and  C3_3 
REMARK    2  A    between atoms: C3_3  and  C4_4 
REMARK    3  A    between atoms: C4_4  and  C5_5 
REMARK    4  A    between atoms: C5_5  and  C6_6 
REMARK    5  A    between atoms: C6_6  and  C7_7 
REMARK    6  A    between atoms: N1_13  and  C13_14 
REMARK    7  A    between atoms: C13_14  and  C14_15 
REMARK       I    between atoms: N3_20  and  C17_21 
ROOT
HETATM    1  C7  UNL     1      -0.751  -4.196  -4.812  1.00  0.00     0.080 C 
HETATM    2  C8  UNL     1       0.290  -5.297  -4.639  1.00  0.00     0.025 C 
HETATM    3  C9  UNL     1      -0.317  -6.448  -3.944  1.00  0.00     0.008 C 
HETATM    4  C10 UNL     1      -1.175  -6.161  -2.775  1.00  0.00    -0.001 C 
HETATM    5  C11 UNL     1      -0.440  -6.560  -1.493  1.00  0.00     0.011 C 
HETATM    6  C12 UNL     1      -1.699  -4.776  -2.670  1.00  0.00     0.122 C 
HETATM    7  N1  UNL     1      -1.193  -3.786  -3.544  1.00  0.00    -0.391 N 
ENDROOT
BRANCH   7   8
HETATM    8  C13 UNL     1      -0.629  -2.640  -2.909  1.00  0.00     0.110 C 
HETATM    9  C15 UNL     1       0.227  -2.985  -1.731  1.00  0.00     0.060 C 
HETATM   10  C16 UNL     1       0.759  -1.764  -1.006  1.00  0.00     0.130 C 
HETATM   11  N3  UNL     1       1.207  -0.742  -1.893  1.00  0.00    -0.336 N 
HETATM   12  C17 UNL     1       2.250   0.183  -1.510  1.00  0.00     0.330 C 
HETATM   13  C18 UNL     1       0.659  -0.563  -3.212  1.00  0.00     0.130 C 
HETATM   14  N4  UNL     1       2.716   1.202  -2.355  1.00  0.00    -0.040 NA
HETATM   15  O2  UNL     1       2.739   0.050  -0.372  1.00  0.00    -0.251 OA
HETATM   16  C19 UNL     1       0.285  -1.873  -3.846  1.00  0.00     0.060 C 
BRANCH   8  17
HETATM   17  C14 UNL     1      -1.739  -1.696  -2.608  1.00  0.00     0.259 C 
HETATM   18  N2  UNL     1      -2.387  -1.072  -3.717  1.00  0.00    -0.060 NA
HETATM   19  O1  UNL     1      -2.139  -1.408  -1.446  1.00  0.00    -0.274 OA
ENDBRANCH   8  17
ENDBRANCH   7   8
BRANCH   1  20
HETATM   20  C6  UNL     1      -1.863  -4.847  -5.601  1.00  0.00     0.025 C 
BRANCH  20  21
HETATM   21  C5  UNL     1      -1.530  -5.359  -6.947  1.00  0.00     0.002 C 
BRANCH  21  22
HETATM   22  C4  UNL     1      -2.627  -6.106  -7.652  1.00  0.00     0.000 C 
BRANCH  22  23
HETATM   23  C3  UNL     1      -3.926  -6.075  -6.865  1.00  0.00    -0.000 C 
BRANCH  23  24
HETATM   24  C2  UNL     1      -5.025  -6.434  -7.864  1.00  0.00    -0.005 C 
HETATM   25  C1  UNL     1      -4.539  -6.445  -9.283  1.00  0.00     0.005 C 
ENDBRANCH  23  24
ENDBRANCH  22  23
ENDBRANCH  21  22
ENDBRANCH  20  21
ENDBRANCH   1  20
TORSDOF 7
ENDMDL
