MODEL 1
REMARK VINA RESULT: -7.584185003      0.000      0.000
REMARK  6 active torsions:
REMARK  status: ('A' for Active; 'I' for Inactive)
REMARK    1  A    between atoms: N1_2  and  C2_3 
REMARK    2  A    between atoms: N1_2  and  C10_17 
REMARK    3  A    between atoms: C2_3  and  C3_4 
REMARK    4  A    between atoms: C3_4  and  O1_5 
REMARK    5  A    between atoms: C3_4  and  C4_7 
REMARK    6  A    between atoms: C4_7  and  N2_8 
ROOT
HETATM    1  C3  UNL     1      -6.833  -6.841  -8.157  1.00  0.00     0.164 C 
ENDROOT
BRANCH   1   2
HETATM    2  C2  UNL     1      -7.108  -8.291  -8.432  1.00  0.00     0.305 C 
BRANCH   2   3
HETATM    3  N1  UNL     1      -7.919  -8.444  -9.588  1.00  0.00     0.093 N 
HETATM    4  C1  UNL     1      -7.379  -7.848 -10.755  1.00  0.00     0.310 C 
BRANCH   3   5
HETATM    5  C10 UNL     1      -9.282  -8.166  -9.287  1.00  0.00     0.248 C 
HETATM    6  C11 UNL     1     -10.222  -8.472 -10.429  1.00  0.00     0.064 C 
HETATM    7  C12 UNL     1     -11.058  -9.590  -9.875  1.00  0.00     0.170 C 
HETATM    8  O2  UNL     1     -10.997  -9.538  -8.501  1.00  0.00    -0.389 OA
HETATM    9  C13 UNL     1      -9.803  -8.972  -8.115  1.00  0.00     0.203 C 
ENDBRANCH   3   5
ENDBRANCH   2   3
ENDBRANCH   1   2
BRANCH   1  10
HETATM   10  O1  UNL     1      -7.315  -6.455  -6.917  1.00  0.00    -0.392 OA
ATOM     11  H1  UNL     1      -7.467  -5.518  -6.876  1.00  0.00     0.210 HD
ENDBRANCH   1  10
BRANCH   1  12
HETATM   12  C4  UNL     1      -5.318  -6.670  -8.102  1.00  0.00     0.154 C 
BRANCH  12  13
HETATM   13  N2  UNL     1      -4.873  -6.241  -6.823  1.00  0.00    -0.378 N 
HETATM   14  C5  UNL     1      -3.637  -5.982  -6.589  1.00  0.00     0.072 C 
HETATM   15  C6  UNL     1      -2.565  -6.098  -7.609  1.00  0.00     0.076 C 
HETATM   16  N3  UNL     1      -3.247  -5.566  -5.281  1.00  0.00    -0.380 N 
HETATM   17  C7  UNL     1      -1.316  -5.465  -7.068  1.00  0.00     0.009 C 
HETATM   18  C8  UNL     1      -0.934  -6.162  -5.782  1.00  0.00     0.020 C 
HETATM   19  C9  UNL     1      -1.965  -5.908  -4.697  1.00  0.00     0.121 C 
ATOM     20  H3  UNL     1      -3.898  -5.005  -4.733  1.00  0.00     0.160 HD
ATOM     21  H2  UNL     1      -5.553  -6.136  -6.071  1.00  0.00     0.160 HD
ENDBRANCH  12  13
ENDBRANCH   1  12
TORSDOF 6
ENDMDL
MODEL 2
REMARK VINA RESULT: -7.530326219      2.458      7.943
REMARK  6 active torsions:
REMARK  status: ('A' for Active; 'I' for Inactive)
REMARK    1  A    between atoms: N1_2  and  C2_3 
REMARK    2  A    between atoms: N1_2  and  C10_17 
REMARK    3  A    between atoms: C2_3  and  C3_4 
REMARK    4  A    between atoms: C3_4  and  O1_5 
REMARK    5  A    between atoms: C3_4  and  C4_7 
REMARK    6  A    between atoms: C4_7  and  N2_8 
ROOT
HETATM    1  C3  UNL     1      -4.197  -6.092  -6.423  1.00  0.00     0.164 C 
ENDROOT
BRANCH   1   2
HETATM    2  C2  UNL     1      -3.057  -5.195  -6.812  1.00  0.00     0.305 C 
BRANCH   2   3
HETATM    3  N1  UNL     1      -1.816  -5.739  -6.385  1.00  0.00     0.093 N 
HETATM    4  C1  UNL     1      -1.938  -6.925  -5.620  1.00  0.00     0.310 C 
BRANCH   3   5
HETATM    5  C10 UNL     1      -0.969  -4.717  -5.871  1.00  0.00     0.248 C 
HETATM    6  C11 UNL     1      -1.722  -3.608  -5.175  1.00  0.00     0.064 C 
HETATM    7  C12 UNL     1      -1.255  -3.736  -3.754  1.00  0.00     0.170 C 
HETATM    8  O2  UNL     1      -0.049  -4.400  -3.750  1.00  0.00    -0.389 OA
HETATM    9  C13 UNL     1       0.020  -5.231  -4.845  1.00  0.00     0.203 C 
ENDBRANCH   3   5
ENDBRANCH   2   3
ENDBRANCH   1   2
BRANCH   1  10
HETATM   10  O1  UNL     1      -5.021  -5.493  -5.484  1.00  0.00    -0.392 OA
ATOM     11  H1  UNL     1      -5.238  -4.600  -5.727  1.00  0.00     0.210 HD
ENDBRANCH   1  10
BRANCH   1  12
HETATM   12  C4  UNL     1      -5.051  -6.304  -7.670  1.00  0.00     0.154 C 
BRANCH  12  13
HETATM   13  N2  UNL     1      -6.291  -6.929  -7.371  1.00  0.00    -0.378 N 
HETATM   14  C5  UNL     1      -6.967  -7.551  -8.268  1.00  0.00     0.072 C 
HETATM   15  C6  UNL     1      -6.534  -7.683  -9.682  1.00  0.00     0.076 C 
HETATM   16  N3  UNL     1      -8.213  -8.151  -7.912  1.00  0.00    -0.380 N 
HETATM   17  C7  UNL     1      -7.416  -8.687 -10.364  1.00  0.00     0.009 C 
HETATM   18  C8  UNL     1      -8.851  -8.220 -10.267  1.00  0.00     0.020 C 
HETATM   19  C9  UNL     1      -9.333  -8.237  -8.827  1.00  0.00     0.121 C 
ATOM     20  H3  UNL     1      -8.319  -8.534  -6.973  1.00  0.00     0.160 HD
ATOM     21  H2  UNL     1      -6.653  -6.883  -6.420  1.00  0.00     0.160 HD
ENDBRANCH  12  13
ENDBRANCH   1  12
TORSDOF 6
ENDMDL
MODEL 3
REMARK VINA RESULT: -7.471031410      2.973      7.790
REMARK  6 active torsions:
REMARK  status: ('A' for Active; 'I' for Inactive)
REMARK    1  A    between atoms: N1_2  and  C2_3 
REMARK    2  A    between atoms: N1_2  and  C10_17 
REMARK    3  A    between atoms: C2_3  and  C3_4 
REMARK    4  A    between atoms: C3_4  and  O1_5 
REMARK    5  A    between atoms: C3_4  and  C4_7 
REMARK    6  A    between atoms: C4_7  and  N2_8 
ROOT
HETATM    1  C3  UNL     1      -3.241  -5.422  -8.093  1.00  0.00     0.164 C 
ENDROOT
BRANCH   1   2
HETATM    2  C2  UNL     1      -2.377  -6.456  -7.429  1.00  0.00     0.305 C 
BRANCH   2   3
HETATM    3  N1  UNL     1      -2.439  -6.337  -6.015  1.00  0.00     0.093 N 
HETATM    4  C1  UNL     1      -3.238  -5.258  -5.561  1.00  0.00     0.310 C 
BRANCH   3   5
HETATM    5  C10 UNL     1      -1.144  -6.473  -5.441  1.00  0.00     0.248 C 
HETATM    6  C11 UNL     1      -0.210  -5.339  -5.793  1.00  0.00     0.064 C 
HETATM    7  C12 UNL     1       0.037  -4.692  -4.461  1.00  0.00     0.170 C 
HETATM    8  O2  UNL     1      -0.231  -5.612  -3.473  1.00  0.00    -0.389 OA
HETATM    9  C13 UNL     1      -1.171  -6.511  -3.927  1.00  0.00     0.203 C 
ENDBRANCH   3   5
ENDBRANCH   2   3
ENDBRANCH   1   2
BRANCH   1  10
HETATM   10  O1  UNL     1      -2.508  -4.615  -8.947  1.00  0.00    -0.392 OA
ATOM     11  H1  UNL     1      -2.468  -4.978  -9.824  1.00  0.00     0.210 HD
ENDBRANCH   1  10
BRANCH   1  12
HETATM   12  C4  UNL     1      -4.247  -6.167  -8.965  1.00  0.00     0.154 C 
BRANCH  12  13
HETATM   13  N2  UNL     1      -5.338  -6.677  -8.210  1.00  0.00    -0.378 N 
HETATM   14  C5  UNL     1      -6.282  -7.352  -8.759  1.00  0.00     0.072 C 
HETATM   15  C6  UNL     1      -6.333  -7.669 -10.208  1.00  0.00     0.076 C 
HETATM   16  N3  UNL     1      -7.359  -7.829  -7.952  1.00  0.00    -0.380 N 
HETATM   17  C7  UNL     1      -7.411  -8.686 -10.441  1.00  0.00     0.009 C 
HETATM   18  C8  UNL     1      -8.726  -8.123  -9.952  1.00  0.00     0.020 C 
HETATM   19  C9  UNL     1      -8.717  -7.948  -8.443  1.00  0.00     0.121 C 
ATOM     20  H3  UNL     1      -7.164  -8.097  -6.988  1.00  0.00     0.160 HD
ATOM     21  H2  UNL     1      -5.371  -6.501  -7.207  1.00  0.00     0.160 HD
ENDBRANCH  12  13
ENDBRANCH   1  12
TORSDOF 6
ENDMDL
MODEL 4
REMARK VINA RESULT: -7.406042275      2.293      7.839
REMARK  6 active torsions:
REMARK  status: ('A' for Active; 'I' for Inactive)
REMARK    1  A    between atoms: N1_2  and  C2_3 
REMARK    2  A    between atoms: N1_2  and  C10_17 
REMARK    3  A    between atoms: C2_3  and  C3_4 
REMARK    4  A    between atoms: C3_4  and  O1_5 
REMARK    5  A    between atoms: C3_4  and  C4_7 
REMARK    6  A    between atoms: C4_7  and  N2_8 
ROOT
HETATM    1  C3  UNL     1      -4.285  -6.111  -6.335  1.00  0.00     0.164 C 
ENDROOT
BRANCH   1   2
HETATM    2  C2  UNL     1      -3.090  -5.285  -6.713  1.00  0.00     0.305 C 
BRANCH   2   3
HETATM    3  N1  UNL     1      -2.256  -5.052  -5.586  1.00  0.00     0.093 N 
HETATM    4  C1  UNL     1      -2.025  -3.682  -5.312  1.00  0.00     0.310 C 
BRANCH   3   5
HETATM    5  C10 UNL     1      -1.121  -5.911  -5.614  1.00  0.00     0.248 C 
HETATM    6  C11 UNL     1       0.023  -5.419  -4.760  1.00  0.00     0.064 C 
HETATM    7  C12 UNL     1       0.124  -6.481  -3.703  1.00  0.00     0.170 C 
HETATM    8  O2  UNL     1      -0.455  -7.632  -4.186  1.00  0.00    -0.389 OA
HETATM    9  C13 UNL     1      -1.425  -7.306  -5.108  1.00  0.00     0.203 C 
ENDBRANCH   3   5
ENDBRANCH   2   3
ENDBRANCH   1   2
BRANCH   1  10
HETATM   10  O1  UNL     1      -5.084  -5.460  -5.408  1.00  0.00    -0.392 OA
ATOM     11  H1  UNL     1      -5.889  -5.937  -5.243  1.00  0.00     0.210 HD
ENDBRANCH   1  10
BRANCH   1  12
HETATM   12  C4  UNL     1      -5.135  -6.278  -7.591  1.00  0.00     0.154 C 
BRANCH  12  13
HETATM   13  N2  UNL     1      -6.376  -6.912  -7.318  1.00  0.00    -0.378 N 
HETATM   14  C5  UNL     1      -7.028  -7.542  -8.229  1.00  0.00     0.072 C 
HETATM   15  C6  UNL     1      -6.562  -7.675  -9.631  1.00  0.00     0.076 C 
HETATM   16  N3  UNL     1      -8.277  -8.148  -7.899  1.00  0.00    -0.380 N 
HETATM   17  C7  UNL     1      -7.422  -8.687 -10.330  1.00  0.00     0.009 C 
HETATM   18  C8  UNL     1      -8.862  -8.230 -10.267  1.00  0.00     0.020 C 
HETATM   19  C9  UNL     1      -9.376  -8.245  -8.838  1.00  0.00     0.121 C 
ATOM     20  H3  UNL     1      -8.402  -8.529  -6.961  1.00  0.00     0.160 HD
ATOM     21  H2  UNL     1      -6.761  -6.865  -6.375  1.00  0.00     0.160 HD
ENDBRANCH  12  13
ENDBRANCH   1  12
TORSDOF 6
ENDMDL
MODEL 5
REMARK VINA RESULT: -7.341974345      3.082      7.604
REMARK  6 active torsions:
REMARK  status: ('A' for Active; 'I' for Inactive)
REMARK    1  A    between atoms: N1_2  and  C2_3 
REMARK    2  A    between atoms: N1_2  and  C10_17 
REMARK    3  A    between atoms: C2_3  and  C3_4 
REMARK    4  A    between atoms: C3_4  and  O1_5 
REMARK    5  A    between atoms: C3_4  and  C4_7 
REMARK    6  A    between atoms: C4_7  and  N2_8 
ROOT
HETATM    1  C3  UNL     1      -3.061  -5.306  -7.659  1.00  0.00     0.164 C 
ENDROOT
BRANCH   1   2
HETATM    2  C2  UNL     1      -3.324  -5.810  -6.270  1.00  0.00     0.305 C 
BRANCH   2   3
HETATM    3  N1  UNL     1      -2.107  -6.014  -5.565  1.00  0.00     0.093 N 
HETATM    4  C1  UNL     1      -1.887  -7.356  -5.168  1.00  0.00     0.310 C 
BRANCH   3   5
HETATM    5  C10 UNL     1      -1.921  -5.005  -4.578  1.00  0.00     0.248 C 
HETATM    6  C11 UNL     1      -0.790  -4.056  -4.898  1.00  0.00     0.064 C 
HETATM    7  C12 UNL     1      -1.504  -2.749  -5.089  1.00  0.00     0.170 C 
HETATM    8  O2  UNL     1      -2.717  -2.816  -4.443  1.00  0.00    -0.389 OA
HETATM    9  C13 UNL     1      -3.141  -4.126  -4.397  1.00  0.00     0.203 C 
ENDBRANCH   3   5
ENDBRANCH   2   3
ENDBRANCH   1   2
BRANCH   1  10
HETATM   10  O1  UNL     1      -1.777  -5.613  -8.080  1.00  0.00    -0.392 OA
ATOM     11  H1  UNL     1      -1.215  -4.847  -8.081  1.00  0.00     0.210 HD
ENDBRANCH   1  10
BRANCH   1  12
HETATM   12  C4  UNL     1      -4.008  -6.048  -8.596  1.00  0.00     0.154 C 
BRANCH  12  13
HETATM   13  N2  UNL     1      -5.136  -6.575  -7.912  1.00  0.00    -0.378 N 
HETATM   14  C5  UNL     1      -6.058  -7.223  -8.528  1.00  0.00     0.072 C 
HETATM   15  C6  UNL     1      -6.043  -7.489  -9.988  1.00  0.00     0.076 C 
HETATM   16  N3  UNL     1      -7.175  -7.719  -7.789  1.00  0.00    -0.380 N 
HETATM   17  C7  UNL     1      -7.116  -8.488 -10.306  1.00  0.00     0.009 C 
HETATM   18  C8  UNL     1      -8.449  -7.932  -9.859  1.00  0.00     0.020 C 
HETATM   19  C9  UNL     1      -8.509  -7.809  -8.346  1.00  0.00     0.121 C 
ATOM     20  H3  UNL     1      -7.027  -8.022  -6.826  1.00  0.00     0.160 HD
ATOM     21  H2  UNL     1      -5.216  -6.435  -6.905  1.00  0.00     0.160 HD
ENDBRANCH  12  13
ENDBRANCH   1  12
TORSDOF 6
ENDMDL
