MODEL 1
REMARK VINA RESULT: -6.960798718      0.000      0.000
REMARK  7 active torsions:
REMARK  status: ('A' for Active; 'I' for Inactive)
REMARK    1  A    between atoms: O1_1  and  C1_3 
REMARK    2  A    between atoms: C1_3  and  C2_4 
REMARK    3  A    between atoms: C2_4  and  C3_5 
REMARK    4  A    between atoms: C3_5  and  N1_6 
REMARK    5  A    between atoms: N2_9  and  C6_10 
REMARK    6  A    between atoms: C13_17  and  C14_18 
REMARK    7  A    between atoms: C14_18  and  O2_19 
ROOT
HETATM    1  N1  UNL     1      -2.338  -5.290  -4.948  1.00  0.00    -0.382 N 
HETATM    2  C4  UNL     1      -3.599  -4.843  -5.313  1.00  0.00     0.103 C 
HETATM    3  C5  UNL     1      -4.540  -5.829  -5.924  1.00  0.00     0.102 C 
HETATM    4  N2  UNL     1      -4.072  -6.340  -7.147  1.00  0.00    -0.384 N 
HETATM    5  C11 UNL     1      -3.026  -5.589  -7.773  1.00  0.00     0.125 C 
HETATM    6  C12 UNL     1      -1.733  -6.125  -7.230  1.00  0.00     0.047 C 
HETATM    7  C13 UNL     1      -1.477  -5.973  -5.799  1.00  0.00     0.108 C 
ENDROOT
BRANCH   1   8
HETATM    8  C3  UNL     1      -1.674  -4.465  -3.954  1.00  0.00     0.125 C 
BRANCH   8   9
HETATM    9  C2  UNL     1      -0.792  -3.450  -4.669  1.00  0.00     0.046 C 
BRANCH   9  10
HETATM   10  C1  UNL     1      -1.322  -2.049  -4.400  1.00  0.00     0.165 C 
BRANCH  10  11
HETATM   11  O1  UNL     1      -2.123  -1.626  -5.463  1.00  0.00    -0.401 OA
ATOM     12  H1  UNL     1      -3.019  -1.505  -5.170  1.00  0.00     0.209 HD
ENDBRANCH  10  11
ENDBRANCH   9  10
ENDBRANCH   8   9
ENDBRANCH   1   8
BRANCH   7  13
HETATM   13  C14 UNL     1      -1.127  -7.342  -5.187  1.00  0.00     0.189 C 
BRANCH  13  14
HETATM   14  O2  UNL     1       0.187  -7.276  -4.672  1.00  0.00    -0.399 OA
ATOM     15  H2  UNL     1       0.200  -6.634  -3.971  1.00  0.00     0.209 HD
ENDBRANCH  13  14
ENDBRANCH   7  13
BRANCH   4  16
HETATM   16  C6  UNL     1      -4.942  -6.884  -8.073  1.00  0.00     0.083 C 
HETATM   17  C7  UNL     1      -6.407  -6.789  -7.858  1.00  0.00     0.025 C 
HETATM   18  C8  UNL     1      -6.925  -7.419  -9.160  1.00  0.00     0.002 C 
HETATM   19  C9  UNL     1      -5.827  -7.237 -10.186  1.00  0.00     0.002 C 
HETATM   20  C10 UNL     1      -4.814  -6.321  -9.490  1.00  0.00     0.025 C 
ENDBRANCH   4  16
TORSDOF 7
ENDMDL
MODEL 2
REMARK VINA RESULT: -6.781591657      1.272      1.531
REMARK  7 active torsions:
REMARK  status: ('A' for Active; 'I' for Inactive)
REMARK    1  A    between atoms: O1_1  and  C1_3 
REMARK    2  A    between atoms: C1_3  and  C2_4 
REMARK    3  A    between atoms: C2_4  and  C3_5 
REMARK    4  A    between atoms: C3_5  and  N1_6 
REMARK    5  A    between atoms: N2_9  and  C6_10 
REMARK    6  A    between atoms: C13_17  and  C14_18 
REMARK    7  A    between atoms: C14_18  and  O2_19 
ROOT
HETATM    1  N1  UNL     1      -1.482  -4.582  -4.003  1.00  0.00    -0.382 N 
HETATM    2  C4  UNL     1      -2.626  -4.095  -4.617  1.00  0.00     0.103 C 
HETATM    3  C5  UNL     1      -3.522  -5.073  -5.302  1.00  0.00     0.102 C 
HETATM    4  N2  UNL     1      -2.895  -5.723  -6.380  1.00  0.00    -0.384 N 
HETATM    5  C11 UNL     1      -1.704  -5.098  -6.872  1.00  0.00     0.125 C 
HETATM    6  C12 UNL     1      -0.566  -5.660  -6.070  1.00  0.00     0.047 C 
HETATM    7  C13 UNL     1      -0.544  -5.393  -4.633  1.00  0.00     0.108 C 
ENDROOT
BRANCH   1   8
HETATM    8  C3  UNL     1      -0.934  -3.712  -2.979  1.00  0.00     0.125 C 
BRANCH   8   9
HETATM    9  C2  UNL     1       0.284  -2.993  -3.545  1.00  0.00     0.046 C 
BRANCH   9  10
HETATM   10  C1  UNL     1      -0.117  -1.589  -3.972  1.00  0.00     0.165 C 
BRANCH  10  11
HETATM   11  O1  UNL     1      -0.419  -1.569  -5.335  1.00  0.00    -0.401 OA
ATOM     12  H1  UNL     1       0.000  -0.825  -5.752  1.00  0.00     0.209 HD
ENDBRANCH  10  11
ENDBRANCH   9  10
ENDBRANCH   8   9
ENDBRANCH   1   8
BRANCH   7  13
HETATM   13  C14 UNL     1      -0.408  -6.719  -3.861  1.00  0.00     0.189 C 
BRANCH  13  14
HETATM   14  O2  UNL     1       0.178  -7.675  -4.720  1.00  0.00    -0.399 OA
ATOM     15  H2  UNL     1       1.114  -7.685  -4.559  1.00  0.00     0.209 HD
ENDBRANCH  13  14
ENDBRANCH   7  13
BRANCH   4  16
HETATM   16  C6  UNL     1      -3.636  -6.295  -7.396  1.00  0.00     0.083 C 
HETATM   17  C7  UNL     1      -5.117  -6.323  -7.310  1.00  0.00     0.025 C 
HETATM   18  C8  UNL     1      -5.469  -6.939  -8.673  1.00  0.00     0.002 C 
HETATM   19  C9  UNL     1      -4.304  -6.632  -9.590  1.00  0.00     0.002 C 
HETATM   20  C10 UNL     1      -3.433  -5.669  -8.778  1.00  0.00     0.025 C 
ENDBRANCH   4  16
TORSDOF 7
ENDMDL
MODEL 3
REMARK VINA RESULT: -6.513005245      1.567      3.390
REMARK  7 active torsions:
REMARK  status: ('A' for Active; 'I' for Inactive)
REMARK    1  A    between atoms: O1_1  and  C1_3 
REMARK    2  A    between atoms: C1_3  and  C2_4 
REMARK    3  A    between atoms: C2_4  and  C3_5 
REMARK    4  A    between atoms: C3_5  and  N1_6 
REMARK    5  A    between atoms: N2_9  and  C6_10 
REMARK    6  A    between atoms: C13_17  and  C14_18 
REMARK    7  A    between atoms: C14_18  and  O2_19 
ROOT
HETATM    1  N1  UNL     1      -0.939  -5.439  -4.844  1.00  0.00    -0.382 N 
HETATM    2  C4  UNL     1      -1.294  -6.593  -5.525  1.00  0.00     0.103 C 
HETATM    3  C5  UNL     1      -1.909  -6.444  -6.878  1.00  0.00     0.102 C 
HETATM    4  N2  UNL     1      -3.139  -5.764  -6.844  1.00  0.00    -0.384 N 
HETATM    5  C11 UNL     1      -3.763  -5.677  -5.558  1.00  0.00     0.125 C 
HETATM    6  C12 UNL     1      -3.231  -4.433  -4.910  1.00  0.00     0.047 C 
HETATM    7  C13 UNL     1      -1.800  -4.371  -4.618  1.00  0.00     0.108 C 
ENDROOT
BRANCH   1   8
HETATM    8  C3  UNL     1       0.058  -5.637  -3.807  1.00  0.00     0.125 C 
BRANCH   8   9
HETATM    9  C2  UNL     1      -0.156  -7.006  -3.174  1.00  0.00     0.046 C 
BRANCH   9  10
HETATM   10  C1  UNL     1      -0.908  -6.838  -1.862  1.00  0.00     0.165 C 
BRANCH  10  11
HETATM   11  O1  UNL     1      -2.216  -7.309  -1.994  1.00  0.00    -0.401 OA
ATOM     12  H1  UNL     1      -2.768  -6.934  -1.317  1.00  0.00     0.209 HD
ENDBRANCH  10  11
ENDBRANCH   9  10
ENDBRANCH   8   9
ENDBRANCH   1   8
BRANCH   7  13
HETATM   13  C14 UNL     1      -1.201  -3.089  -5.228  1.00  0.00     0.189 C 
BRANCH  13  14
HETATM   14  O2  UNL     1      -2.236  -2.137  -5.363  1.00  0.00    -0.399 OA
ATOM     15  H2  UNL     1      -2.947  -2.537  -5.850  1.00  0.00     0.209 HD
ENDBRANCH  13  14
ENDBRANCH   7  13
BRANCH   4  16
HETATM   16  C6  UNL     1      -4.064  -5.913  -7.859  1.00  0.00     0.083 C 
HETATM   17  C7  UNL     1      -3.684  -6.605  -9.115  1.00  0.00     0.025 C 
HETATM   18  C8  UNL     1      -5.030  -6.611  -9.855  1.00  0.00     0.002 C 
HETATM   19  C9  UNL     1      -6.101  -6.517  -8.788  1.00  0.00     0.002 C 
HETATM   20  C10 UNL     1      -5.332  -6.678  -7.472  1.00  0.00     0.025 C 
ENDBRANCH   4  16
TORSDOF 7
ENDMDL
MODEL 4
REMARK VINA RESULT: -6.494226437      2.537      6.237
REMARK  7 active torsions:
REMARK  status: ('A' for Active; 'I' for Inactive)
REMARK    1  A    between atoms: O1_1  and  C1_3 
REMARK    2  A    between atoms: C1_3  and  C2_4 
REMARK    3  A    between atoms: C2_4  and  C3_5 
REMARK    4  A    between atoms: C3_5  and  N1_6 
REMARK    5  A    between atoms: N2_9  and  C6_10 
REMARK    6  A    between atoms: C13_17  and  C14_18 
REMARK    7  A    between atoms: C14_18  and  O2_19 
ROOT
HETATM    1  N1  UNL     1      -3.095  -5.679  -6.645  1.00  0.00    -0.382 N 
HETATM    2  C4  UNL     1      -3.607  -5.156  -5.467  1.00  0.00     0.103 C 
HETATM    3  C5  UNL     1      -2.808  -4.109  -4.762  1.00  0.00     0.102 C 
HETATM    4  N2  UNL     1      -1.559  -4.583  -4.325  1.00  0.00    -0.384 N 
HETATM    5  C11 UNL     1      -1.419  -6.007  -4.273  1.00  0.00     0.125 C 
HETATM    6  C12 UNL     1      -0.936  -6.437  -5.627  1.00  0.00     0.047 C 
HETATM    7  C13 UNL     1      -1.814  -6.204  -6.772  1.00  0.00     0.108 C 
ENDROOT
BRANCH   1   8
HETATM    8  C3  UNL     1      -4.087  -6.294  -7.509  1.00  0.00     0.125 C 
BRANCH   8   9
HETATM    9  C2  UNL     1      -5.430  -6.296  -6.791  1.00  0.00     0.046 C 
BRANCH   9  10
HETATM   10  C1  UNL     1      -6.491  -6.876  -7.716  1.00  0.00     0.165 C 
BRANCH  10  11
HETATM   11  O1  UNL     1      -7.705  -7.000  -7.037  1.00  0.00    -0.401 OA
ATOM     12  H1  UNL     1      -8.400  -7.219  -7.647  1.00  0.00     0.209 HD
ENDBRANCH  10  11
ENDBRANCH   9  10
ENDBRANCH   8   9
ENDBRANCH   1   8
BRANCH   7  13
HETATM   13  C14 UNL     1      -1.049  -5.434  -7.865  1.00  0.00     0.189 C 
BRANCH  13  14
HETATM   14  O2  UNL     1      -0.114  -4.582  -7.236  1.00  0.00    -0.399 OA
ATOM     15  H2  UNL     1      -0.250  -4.632  -6.297  1.00  0.00     0.209 HD
ENDBRANCH  13  14
ENDBRANCH   7  13
BRANCH   4  16
HETATM   16  C6  UNL     1      -0.881  -3.959  -3.295  1.00  0.00     0.083 C 
HETATM   17  C7  UNL     1       0.106  -2.892  -3.594  1.00  0.00     0.025 C 
HETATM   18  C8  UNL     1       0.493  -2.457  -2.172  1.00  0.00     0.002 C 
HETATM   19  C9  UNL     1      -0.676  -2.825  -1.283  1.00  0.00     0.002 C 
HETATM   20  C10 UNL     1      -1.770  -3.258  -2.265  1.00  0.00     0.025 C 
ENDBRANCH   4  16
TORSDOF 7
ENDMDL
MODEL 5
REMARK VINA RESULT: -6.479164760      1.793      2.700
REMARK  7 active torsions:
REMARK  status: ('A' for Active; 'I' for Inactive)
REMARK    1  A    between atoms: O1_1  and  C1_3 
REMARK    2  A    between atoms: C1_3  and  C2_4 
REMARK    3  A    between atoms: C2_4  and  C3_5 
REMARK    4  A    between atoms: C3_5  and  N1_6 
REMARK    5  A    between atoms: N2_9  and  C6_10 
REMARK    6  A    between atoms: C13_17  and  C14_18 
REMARK    7  A    between atoms: C14_18  and  O2_19 
ROOT
HETATM    1  N1  UNL     1      -1.057  -4.409  -3.325  1.00  0.00    -0.382 N 
HETATM    2  C4  UNL     1      -2.075  -3.713  -3.959  1.00  0.00     0.103 C 
HETATM    3  C5  UNL     1      -2.988  -4.477  -4.860  1.00  0.00     0.102 C 
HETATM    4  N2  UNL     1      -2.320  -5.039  -5.962  1.00  0.00    -0.384 N 
HETATM    5  C11 UNL     1      -1.027  -4.493  -6.247  1.00  0.00     0.125 C 
HETATM    6  C12 UNL     1      -0.042  -5.287  -5.440  1.00  0.00     0.047 C 
HETATM    7  C13 UNL     1      -0.144  -5.227  -3.983  1.00  0.00     0.108 C 
ENDROOT
BRANCH   1   8
HETATM    8  C3  UNL     1      -0.535  -3.758  -2.137  1.00  0.00     0.125 C 
BRANCH   8   9
HETATM    9  C2  UNL     1      -0.534  -2.252  -2.362  1.00  0.00     0.046 C 
BRANCH   9  10
HETATM   10  C1  UNL     1       0.895  -1.780  -2.586  1.00  0.00     0.165 C 
BRANCH  10  11
HETATM   11  O1  UNL     1       1.280  -2.023  -3.907  1.00  0.00    -0.401 OA
ATOM     12  H1  UNL     1       1.328  -2.959  -4.066  1.00  0.00     0.209 HD
ENDBRANCH  10  11
ENDBRANCH   9  10
ENDBRANCH   8   9
ENDBRANCH   1   8
BRANCH   7  13
HETATM   13  C14 UNL     1      -0.225  -6.653  -3.408  1.00  0.00     0.189 C 
BRANCH  13  14
HETATM   14  O2  UNL     1       0.145  -7.562  -4.424  1.00  0.00    -0.399 OA
ATOM     15  H2  UNL     1      -0.616  -7.729  -4.967  1.00  0.00     0.209 HD
ENDBRANCH  13  14
ENDBRANCH   7  13
BRANCH   4  16
HETATM   16  C6  UNL     1      -3.003  -5.375  -7.115  1.00  0.00     0.083 C 
HETATM   17  C7  UNL     1      -2.292  -6.050  -8.229  1.00  0.00     0.025 C 
HETATM   18  C8  UNL     1      -3.458  -6.301  -9.198  1.00  0.00     0.002 C 
HETATM   19  C9  UNL     1      -4.713  -6.333  -8.352  1.00  0.00     0.002 C 
HETATM   20  C10 UNL     1      -4.193  -6.316  -6.911  1.00  0.00     0.025 C 
ENDBRANCH   4  16
TORSDOF 7
ENDMDL
