MODEL 1
REMARK VINA RESULT: -7.112502312      0.000      0.000
REMARK  5 active torsions:
REMARK  status: ('A' for Active; 'I' for Inactive)
REMARK    1  A    between atoms: O1_1  and  C1_3 
REMARK    2  A    between atoms: C1_3  and  C2_4 
REMARK    3  A    between atoms: C1_3  and  C10_15 
REMARK    4  A    between atoms: C2_4  and  C3_5 
REMARK    5  A    between atoms: C10_15  and  N2_16 
ROOT
HETATM    1  C2  UNL     1      -2.268  -6.408  -7.637  1.00  0.00     0.040 C 
ENDROOT
BRANCH   1   2
HETATM    2  C1  UNL     1      -3.382  -6.260  -8.618  1.00  0.00     0.136 C 
BRANCH   2   3
HETATM    3  O1  UNL     1      -3.128  -5.036  -9.319  1.00  0.00    -0.394 OA
ATOM      4  H1  UNL     1      -3.640  -5.082 -10.118  1.00  0.00     0.210 HD
ENDBRANCH   2   3
BRANCH   2   5
HETATM    5  C10 UNL     1      -4.717  -6.205  -7.983  1.00  0.00     0.148 C 
BRANCH   5   6
HETATM    6  N2  UNL     1      -5.692  -7.076  -8.602  1.00  0.00    -0.406 N 
HETATM    7  C11 UNL     1      -7.017  -7.005  -8.111  1.00  0.00     0.143 C 
HETATM    8  C12 UNL     1      -7.687  -8.328  -8.535  1.00  0.00     0.187 C 
HETATM    9  O2  UNL     1      -7.575  -8.523  -9.891  1.00  0.00    -0.388 OA
HETATM   10  C13 UNL     1      -6.967  -7.484 -10.577  1.00  0.00     0.187 C 
HETATM   11  C14 UNL     1      -5.575  -7.170 -10.027  1.00  0.00     0.143 C 
ENDBRANCH   5   6
ENDBRANCH   2   5
ENDBRANCH   1   2
BRANCH   1  12
HETATM   12  C3  UNL     1      -2.280  -5.633  -6.388  1.00  0.00     0.021 C 
HETATM   13  C4  UNL     1      -1.125  -4.774  -6.049  1.00  0.00     0.039 C 
HETATM   14  C5  UNL     1      -0.984  -4.943  -4.534  1.00  0.00     0.186 C 
HETATM   15  C6  UNL     1       0.086  -5.940  -4.282  1.00  0.00     0.033 C 
HETATM   16  N1  UNL     1      -2.252  -5.461  -4.096  1.00  0.00    -0.066 N 
HETATM   17  C7  UNL     1      -0.327  -7.371  -4.267  1.00  0.00     0.004 C 
HETATM   18  C8  UNL     1      -1.617  -7.646  -4.988  1.00  0.00     0.033 C 
HETATM   19  C9  UNL     1      -2.491  -6.463  -5.148  1.00  0.00     0.190 C 
ATOM     20  H12 UNL     1      -2.286  -5.805  -3.137  1.00  0.00     0.278 HD
ATOM     21  H11 UNL     1      -2.992  -4.773  -3.960  1.00  0.00     0.278 HD
ENDBRANCH   1  12
TORSDOF 5
ENDMDL
MODEL 2
REMARK VINA RESULT: -7.078122835      1.323      1.980
REMARK  5 active torsions:
REMARK  status: ('A' for Active; 'I' for Inactive)
REMARK    1  A    between atoms: O1_1  and  C1_3 
REMARK    2  A    between atoms: C1_3  and  C2_4 
REMARK    3  A    between atoms: C1_3  and  C10_15 
REMARK    4  A    between atoms: C2_4  and  C3_5 
REMARK    5  A    between atoms: C10_15  and  N2_16 
ROOT
HETATM    1  C2  UNL     1      -3.229  -6.816  -8.556  1.00  0.00     0.040 C 
ENDROOT
BRANCH   1   2
HETATM    2  C1  UNL     1      -4.570  -6.752  -9.208  1.00  0.00     0.136 C 
BRANCH   2   3
HETATM    3  O1  UNL     1      -4.548  -5.585 -10.039  1.00  0.00    -0.394 OA
ATOM      4  H1  UNL     1      -5.444  -5.450 -10.323  1.00  0.00     0.210 HD
ENDBRANCH   2   3
BRANCH   2   5
HETATM    5  C10 UNL     1      -5.686  -6.656  -8.241  1.00  0.00     0.148 C 
BRANCH   5   6
HETATM    6  N2  UNL     1      -6.926  -7.220  -8.726  1.00  0.00    -0.406 N 
HETATM    7  C11 UNL     1      -6.828  -8.263  -9.676  1.00  0.00     0.143 C 
HETATM    8  C12 UNL     1      -8.196  -8.308 -10.385  1.00  0.00     0.187 C 
HETATM    9  O2  UNL     1      -9.218  -8.440  -9.475  1.00  0.00    -0.388 OA
HETATM   10  C13 UNL     1      -8.807  -8.575  -8.159  1.00  0.00     0.187 C 
HETATM   11  C14 UNL     1      -7.921  -7.411  -7.712  1.00  0.00     0.143 C 
ENDBRANCH   5   6
ENDBRANCH   2   5
ENDBRANCH   1   2
BRANCH   1  12
HETATM   12  C3  UNL     1      -2.635  -5.602  -7.977  1.00  0.00     0.021 C 
HETATM   13  C4  UNL     1      -1.164  -5.447  -7.956  1.00  0.00     0.039 C 
HETATM   14  C5  UNL     1      -0.893  -4.772  -6.609  1.00  0.00     0.186 C 
HETATM   15  C6  UNL     1      -0.480  -5.823  -5.646  1.00  0.00     0.033 C 
HETATM   16  N1  UNL     1      -2.156  -4.211  -6.212  1.00  0.00    -0.066 N 
HETATM   17  C7  UNL     1      -1.572  -6.528  -4.920  1.00  0.00     0.004 C 
HETATM   18  C8  UNL     1      -2.911  -6.453  -5.600  1.00  0.00     0.033 C 
HETATM   19  C9  UNL     1      -3.048  -5.330  -6.554  1.00  0.00     0.190 C 
ATOM     20  H12 UNL     1      -2.212  -3.874  -5.251  1.00  0.00     0.278 HD
ATOM     21  H11 UNL     1      -2.393  -3.309  -6.626  1.00  0.00     0.278 HD
ENDBRANCH   1  12
TORSDOF 5
ENDMDL
MODEL 3
REMARK VINA RESULT: -7.027455890      0.345      1.161
REMARK  5 active torsions:
REMARK  status: ('A' for Active; 'I' for Inactive)
REMARK    1  A    between atoms: O1_1  and  C1_3 
REMARK    2  A    between atoms: C1_3  and  C2_4 
REMARK    3  A    between atoms: C1_3  and  C10_15 
REMARK    4  A    between atoms: C2_4  and  C3_5 
REMARK    5  A    between atoms: C10_15  and  N2_16 
ROOT
HETATM    1  C2  UNL     1      -2.445  -6.513  -7.597  1.00  0.00     0.040 C 
ENDROOT
BRANCH   1   2
HETATM    2  C1  UNL     1      -3.621  -6.434  -8.512  1.00  0.00     0.136 C 
BRANCH   2   3
HETATM    3  O1  UNL     1      -3.408  -5.273  -9.325  1.00  0.00    -0.394 OA
ATOM      4  H1  UNL     1      -2.607  -4.874  -9.006  1.00  0.00     0.210 HD
ENDBRANCH   2   3
BRANCH   2   5
HETATM    5  C10 UNL     1      -4.911  -6.315  -7.798  1.00  0.00     0.148 C 
BRANCH   5   6
HETATM    6  N2  UNL     1      -6.045  -6.786  -8.562  1.00  0.00    -0.406 N 
HETATM    7  C11 UNL     1      -5.773  -7.659  -9.640  1.00  0.00     0.143 C 
HETATM    8  C12 UNL     1      -7.009  -7.581 -10.559  1.00  0.00     0.187 C 
HETATM    9  O2  UNL     1      -8.159  -7.858  -9.858  1.00  0.00    -0.388 OA
HETATM   10  C13 UNL     1      -7.960  -8.209  -8.534  1.00  0.00     0.187 C 
HETATM   11  C14 UNL     1      -7.184  -7.138  -7.766  1.00  0.00     0.143 C 
ENDBRANCH   5   6
ENDBRANCH   2   5
ENDBRANCH   1   2
BRANCH   1  12
HETATM   12  C3  UNL     1      -2.414  -5.707  -6.368  1.00  0.00     0.021 C 
HETATM   13  C4  UNL     1      -1.270  -4.803  -6.116  1.00  0.00     0.039 C 
HETATM   14  C5  UNL     1      -1.040  -4.927  -4.608  1.00  0.00     0.186 C 
HETATM   15  C6  UNL     1       0.074  -5.883  -4.393  1.00  0.00     0.033 C 
HETATM   16  N1  UNL     1      -2.264  -5.473  -4.087  1.00  0.00    -0.066 N 
HETATM   17  C7  UNL     1      -0.290  -7.325  -4.319  1.00  0.00     0.004 C 
HETATM   18  C8  UNL     1      -1.608  -7.660  -4.960  1.00  0.00     0.033 C 
HETATM   19  C9  UNL     1      -2.528  -6.509  -5.099  1.00  0.00     0.190 C 
ATOM     20  H12 UNL     1      -2.234  -5.793  -3.119  1.00  0.00     0.278 HD
ATOM     21  H11 UNL     1      -3.018  -4.806  -3.926  1.00  0.00     0.278 HD
ENDBRANCH   1  12
TORSDOF 5
ENDMDL
MODEL 4
REMARK VINA RESULT: -6.737747460      1.792      2.716
REMARK  5 active torsions:
REMARK  status: ('A' for Active; 'I' for Inactive)
REMARK    1  A    between atoms: O1_1  and  C1_3 
REMARK    2  A    between atoms: C1_3  and  C2_4 
REMARK    3  A    between atoms: C1_3  and  C10_15 
REMARK    4  A    between atoms: C2_4  and  C3_5 
REMARK    5  A    between atoms: C10_15  and  N2_16 
ROOT
HETATM    1  C2  UNL     1      -4.327  -6.116  -8.346  1.00  0.00     0.040 C 
ENDROOT
BRANCH   1   2
HETATM    2  C1  UNL     1      -5.473  -6.888  -8.910  1.00  0.00     0.136 C 
BRANCH   2   3
HETATM    3  O1  UNL     1      -5.951  -6.123 -10.024  1.00  0.00    -0.394 OA
ATOM      4  H1  UNL     1      -6.134  -6.752 -10.712  1.00  0.00     0.210 HD
ENDBRANCH   2   3
BRANCH   2   5
HETATM    5  C10 UNL     1      -6.570  -7.098  -7.940  1.00  0.00     0.148 C 
BRANCH   5   6
HETATM    6  N2  UNL     1      -7.799  -7.567  -8.544  1.00  0.00    -0.406 N 
HETATM    7  C11 UNL     1      -7.679  -8.515  -9.587  1.00  0.00     0.143 C 
HETATM    8  C12 UNL     1      -9.006  -8.441 -10.368  1.00  0.00     0.187 C 
HETATM    9  O2  UNL     1     -10.081  -8.625  -9.530  1.00  0.00    -0.388 OA
HETATM   10  C13 UNL     1      -9.747  -8.904  -8.215  1.00  0.00     0.187 C 
HETATM   11  C14 UNL     1      -8.854  -7.821  -7.607  1.00  0.00     0.143 C 
ENDBRANCH   5   6
ENDBRANCH   2   5
ENDBRANCH   1   2
BRANCH   1  12
HETATM   12  C3  UNL     1      -3.768  -6.482  -7.037  1.00  0.00     0.021 C 
HETATM   13  C4  UNL     1      -3.952  -5.574  -5.883  1.00  0.00     0.039 C 
HETATM   14  C5  UNL     1      -2.621  -5.670  -5.135  1.00  0.00     0.186 C 
HETATM   15  C6  UNL     1      -1.793  -4.501  -5.521  1.00  0.00     0.033 C 
HETATM   16  N1  UNL     1      -2.011  -6.883  -5.611  1.00  0.00    -0.066 N 
HETATM   17  C7  UNL     1      -0.960  -4.649  -6.746  1.00  0.00     0.004 C 
HETATM   18  C8  UNL     1      -1.433  -5.725  -7.684  1.00  0.00     0.033 C 
HETATM   19  C9  UNL     1      -2.287  -6.754  -7.051  1.00  0.00     0.190 C 
ATOM     20  H12 UNL     1      -1.034  -7.021  -5.355  1.00  0.00     0.278 HD
ATOM     21  H11 UNL     1      -2.331  -7.745  -5.171  1.00  0.00     0.278 HD
ENDBRANCH   1  12
TORSDOF 5
ENDMDL
MODEL 5
REMARK VINA RESULT: -6.733632918      1.211      1.719
REMARK  5 active torsions:
REMARK  status: ('A' for Active; 'I' for Inactive)
REMARK    1  A    between atoms: O1_1  and  C1_3 
REMARK    2  A    between atoms: C1_3  and  C2_4 
REMARK    3  A    between atoms: C1_3  and  C10_15 
REMARK    4  A    between atoms: C2_4  and  C3_5 
REMARK    5  A    between atoms: C10_15  and  N2_16 
ROOT
HETATM    1  C2  UNL     1      -3.014  -6.322  -6.403  1.00  0.00     0.040 C 
ENDROOT
BRANCH   1   2
HETATM    2  C1  UNL     1      -3.759  -6.436  -7.691  1.00  0.00     0.136 C 
BRANCH   2   3
HETATM    3  O1  UNL     1      -3.226  -5.415  -8.544  1.00  0.00    -0.394 OA
ATOM      4  H1  UNL     1      -3.935  -5.166  -9.126  1.00  0.00     0.210 HD
ENDBRANCH   2   3
BRANCH   2   5
HETATM    5  C10 UNL     1      -5.219  -6.251  -7.540  1.00  0.00     0.148 C 
BRANCH   5   6
HETATM    6  N2  UNL     1      -6.006  -7.130  -8.376  1.00  0.00    -0.406 N 
HETATM    7  C11 UNL     1      -7.386  -7.226  -8.083  1.00  0.00     0.143 C 
HETATM    8  C12 UNL     1      -7.855  -8.548  -8.723  1.00  0.00     0.187 C 
HETATM    9  O2  UNL     1      -7.537  -8.587 -10.060  1.00  0.00    -0.388 OA
HETATM   10  C13 UNL     1      -6.947  -7.433 -10.548  1.00  0.00     0.187 C 
HETATM   11  C14 UNL     1      -5.683  -7.061  -9.771  1.00  0.00     0.143 C 
ENDBRANCH   5   6
ENDBRANCH   2   5
ENDBRANCH   1   2
BRANCH   1  12
HETATM   12  C3  UNL     1      -1.747  -5.579  -6.350  1.00  0.00     0.021 C 
HETATM   13  C4  UNL     1      -0.601  -6.140  -5.600  1.00  0.00     0.039 C 
HETATM   14  C5  UNL     1       0.040  -4.911  -4.951  1.00  0.00     0.186 C 
HETATM   15  C6  UNL     1      -0.435  -4.835  -3.548  1.00  0.00     0.033 C 
HETATM   16  N1  UNL     1      -0.458  -3.790  -5.701  1.00  0.00    -0.066 N 
HETATM   17  C7  UNL     1      -1.720  -4.118  -3.318  1.00  0.00     0.004 C 
HETATM   18  C8  UNL     1      -2.595  -4.017  -4.536  1.00  0.00     0.033 C 
HETATM   19  C9  UNL     1      -1.874  -4.175  -5.819  1.00  0.00     0.190 C 
ATOM     20  H12 UNL     1      -0.279  -2.870  -5.300  1.00  0.00     0.278 HD
ATOM     21  H11 UNL     1       0.023  -3.590  -6.578  1.00  0.00     0.278 HD
ENDBRANCH   1  12
TORSDOF 5
ENDMDL
