MODEL 1
REMARK VINA RESULT: -6.569308286      0.000      0.000
REMARK  7 active torsions:
REMARK  status: ('A' for Active; 'I' for Inactive)
REMARK    1  A    between atoms: C5_5  and  C6_6 
REMARK    2  A    between atoms: C6_6  and  C7_7 
REMARK    3  A    between atoms: C7_7  and  N1_8 
REMARK    4  A    between atoms: C10_11  and  O1_12 
REMARK    5  A    between atoms: N2_16  and  C13_17 
REMARK    6  A    between atoms: C13_17  and  C14_18 
REMARK    7  A    between atoms: C14_18  and  O2_19 
ROOT
HETATM    1  C1  UNL     1      -2.832  -4.981  -8.561  1.00  0.00     0.032 C 
HETATM    2  C2  UNL     1      -3.386  -6.331  -8.150  1.00  0.00     0.075 C 
HETATM    3  C3  UNL     1      -3.783  -7.051  -9.422  1.00  0.00     0.025 C 
HETATM    4  C4  UNL     1      -4.981  -6.317  -9.990  1.00  0.00     0.008 C 
HETATM    5  C5  UNL     1      -6.160  -6.643  -9.090  1.00  0.00     0.005 C 
HETATM    6  C12 UNL     1      -5.676  -6.928  -7.676  1.00  0.00     0.122 C 
HETATM    7  N2  UNL     1      -4.547  -6.110  -7.363  1.00  0.00    -0.406 N 
ENDROOT
BRANCH   5   8
HETATM    8  C6  UNL     1      -6.721  -7.974  -9.608  1.00  0.00     0.036 C 
BRANCH   8   9
HETATM    9  C7  UNL     1      -7.690  -8.460  -8.578  1.00  0.00     0.273 C 
BRANCH   9  10
HETATM   10  N1  UNL     1      -8.860  -7.635  -8.497  1.00  0.00     0.091 N 
HETATM   11  C8  UNL     1      -9.250  -7.560  -7.096  1.00  0.00     0.275 C 
HETATM   12  C9  UNL     1      -9.688  -8.984  -6.821  1.00  0.00     0.064 C 
HETATM   13  C10 UNL     1     -10.131  -9.541  -8.142  1.00  0.00     0.148 C 
HETATM   14  C11 UNL     1     -10.029  -8.332  -9.050  1.00  0.00     0.303 C 
BRANCH  13  15
HETATM   15  O1  UNL     1     -11.467  -9.966  -8.015  1.00  0.00    -0.394 OA
ATOM     16  H1  UNL     1     -12.026  -9.198  -8.022  1.00  0.00     0.210 HD
ENDBRANCH  13  15
ENDBRANCH   9  10
ENDBRANCH   8   9
ENDBRANCH   5   8
BRANCH   7  17
HETATM   17  C13 UNL     1      -4.327  -5.880  -5.976  1.00  0.00     0.143 C 
BRANCH  17  18
HETATM   18  C14 UNL     1      -3.030  -6.427  -5.454  1.00  0.00     0.183 C 
BRANCH  18  19
HETATM   19  O2  UNL     1      -2.475  -5.562  -4.514  1.00  0.00    -0.399 OA
ATOM     20  H2  UNL     1      -2.747  -4.667  -4.678  1.00  0.00     0.209 HD
ENDBRANCH  18  19
ENDBRANCH  17  18
ENDBRANCH   7  17
TORSDOF 7
ENDMDL
MODEL 2
REMARK VINA RESULT: -6.428840374      2.479      3.766
REMARK  7 active torsions:
REMARK  status: ('A' for Active; 'I' for Inactive)
REMARK    1  A    between atoms: C5_5  and  C6_6 
REMARK    2  A    between atoms: C6_6  and  C7_7 
REMARK    3  A    between atoms: C7_7  and  N1_8 
REMARK    4  A    between atoms: C10_11  and  O1_12 
REMARK    5  A    between atoms: N2_16  and  C13_17 
REMARK    6  A    between atoms: C13_17  and  C14_18 
REMARK    7  A    between atoms: C14_18  and  O2_19 
ROOT
HETATM    1  C1  UNL     1      -0.223  -5.901  -5.258  1.00  0.00     0.032 C 
HETATM    2  C2  UNL     1      -1.637  -5.970  -4.714  1.00  0.00     0.075 C 
HETATM    3  C3  UNL     1      -2.336  -7.099  -5.442  1.00  0.00     0.025 C 
HETATM    4  C4  UNL     1      -2.514  -6.653  -6.880  1.00  0.00     0.008 C 
HETATM    5  C5  UNL     1      -3.601  -5.592  -6.875  1.00  0.00     0.005 C 
HETATM    6  C12 UNL     1      -3.615  -4.863  -5.540  1.00  0.00     0.122 C 
HETATM    7  N2  UNL     1      -2.288  -4.747  -5.022  1.00  0.00    -0.406 N 
ENDROOT
BRANCH   5   8
HETATM    8  C6  UNL     1      -4.929  -6.357  -6.940  1.00  0.00     0.036 C 
BRANCH   8   9
HETATM    9  C7  UNL     1      -5.072  -6.849  -8.345  1.00  0.00     0.273 C 
BRANCH   9  10
HETATM   10  N1  UNL     1      -6.241  -6.324  -8.990  1.00  0.00     0.091 N 
HETATM   11  C8  UNL     1      -7.403  -6.806  -8.256  1.00  0.00     0.275 C 
HETATM   12  C9  UNL     1      -7.358  -8.292  -8.551  1.00  0.00     0.064 C 
HETATM   13  C10 UNL     1      -6.653  -8.430  -9.868  1.00  0.00     0.148 C 
HETATM   14  C11 UNL     1      -6.464  -6.985 -10.283  1.00  0.00     0.303 C 
BRANCH  13  15
HETATM   15  O1  UNL     1      -7.510  -9.104 -10.758  1.00  0.00    -0.394 OA
ATOM     16  H1  UNL     1      -8.345  -8.652 -10.766  1.00  0.00     0.210 HD
ENDBRANCH  13  15
ENDBRANCH   9  10
ENDBRANCH   8   9
ENDBRANCH   5   8
BRANCH   7  17
HETATM   17  C13 UNL     1      -2.083  -3.680  -4.104  1.00  0.00     0.143 C 
BRANCH  17  18
HETATM   18  C14 UNL     1      -1.347  -2.503  -4.675  1.00  0.00     0.183 C 
BRANCH  18  19
HETATM   19  O2  UNL     1      -2.211  -1.688  -5.403  1.00  0.00    -0.399 OA
ATOM     20  H2  UNL     1      -1.934  -0.781  -5.359  1.00  0.00     0.209 HD
ENDBRANCH  18  19
ENDBRANCH  17  18
ENDBRANCH   7  17
TORSDOF 7
ENDMDL
MODEL 3
REMARK VINA RESULT: -6.397786559      1.601      6.719
REMARK  7 active torsions:
REMARK  status: ('A' for Active; 'I' for Inactive)
REMARK    1  A    between atoms: C5_5  and  C6_6 
REMARK    2  A    between atoms: C6_6  and  C7_7 
REMARK    3  A    between atoms: C7_7  and  N1_8 
REMARK    4  A    between atoms: C10_11  and  O1_12 
REMARK    5  A    between atoms: N2_16  and  C13_17 
REMARK    6  A    between atoms: C13_17  and  C14_18 
REMARK    7  A    between atoms: C14_18  and  O2_19 
ROOT
HETATM    1  C1  UNL     1      -7.575  -8.657 -10.777  1.00  0.00     0.032 C 
HETATM    2  C2  UNL     1      -7.787  -7.412  -9.937  1.00  0.00     0.075 C 
HETATM    3  C3  UNL     1      -6.499  -6.619  -9.990  1.00  0.00     0.025 C 
HETATM    4  C4  UNL     1      -5.460  -7.411  -9.221  1.00  0.00     0.008 C 
HETATM    5  C5  UNL     1      -5.819  -7.288  -7.750  1.00  0.00     0.005 C 
HETATM    6  C12 UNL     1      -7.319  -7.090  -7.592  1.00  0.00     0.122 C 
HETATM    7  N2  UNL     1      -8.025  -7.819  -8.598  1.00  0.00    -0.406 N 
ENDROOT
BRANCH   5   8
HETATM    8  C6  UNL     1      -5.180  -5.975  -7.276  1.00  0.00     0.036 C 
BRANCH   8   9
HETATM    9  C7  UNL     1      -3.699  -6.183  -7.312  1.00  0.00     0.273 C 
BRANCH   9  10
HETATM   10  N1  UNL     1      -3.145  -6.387  -6.005  1.00  0.00     0.091 N 
HETATM   11  C8  UNL     1      -3.122  -5.096  -5.331  1.00  0.00     0.275 C 
HETATM   12  C9  UNL     1      -2.089  -4.342  -6.143  1.00  0.00     0.064 C 
HETATM   13  C10 UNL     1      -1.182  -5.385  -6.726  1.00  0.00     0.148 C 
HETATM   14  C11 UNL     1      -1.703  -6.656  -6.087  1.00  0.00     0.303 C 
BRANCH  13  15
HETATM   15  O1  UNL     1       0.133  -5.110  -6.306  1.00  0.00    -0.394 OA
ATOM     16  H1  UNL     1       0.588  -5.936  -6.191  1.00  0.00     0.210 HD
ENDBRANCH  13  15
ENDBRANCH   9  10
ENDBRANCH   8   9
ENDBRANCH   5   8
BRANCH   7  17
HETATM   17  C13 UNL     1      -9.369  -8.156  -8.276  1.00  0.00     0.143 C 
BRANCH  17  18
HETATM   18  C14 UNL     1      -9.521  -8.982  -7.031  1.00  0.00     0.183 C 
BRANCH  18  19
HETATM   19  O2  UNL     1     -10.854  -9.027  -6.630  1.00  0.00    -0.399 OA
ATOM     20  H2  UNL     1     -10.992  -8.485  -5.862  1.00  0.00     0.209 HD
ENDBRANCH  18  19
ENDBRANCH  17  18
ENDBRANCH   7  17
TORSDOF 7
ENDMDL
MODEL 4
REMARK VINA RESULT: -6.394478778      5.186      7.767
REMARK  7 active torsions:
REMARK  status: ('A' for Active; 'I' for Inactive)
REMARK    1  A    between atoms: C5_5  and  C6_6 
REMARK    2  A    between atoms: C6_6  and  C7_7 
REMARK    3  A    between atoms: C7_7  and  N1_8 
REMARK    4  A    between atoms: C10_11  and  O1_12 
REMARK    5  A    between atoms: N2_16  and  C13_17 
REMARK    6  A    between atoms: C13_17  and  C14_18 
REMARK    7  A    between atoms: C14_18  and  O2_19 
ROOT
HETATM    1  C1  UNL     1       1.979  -1.707  -2.778  1.00  0.00     0.032 C 
HETATM    2  C2  UNL     1       0.494  -1.602  -2.491  1.00  0.00     0.075 C 
HETATM    3  C3  UNL     1      -0.056  -3.013  -2.484  1.00  0.00     0.025 C 
HETATM    4  C4  UNL     1       0.011  -3.520  -3.911  1.00  0.00     0.008 C 
HETATM    5  C5  UNL     1      -1.073  -2.788  -4.684  1.00  0.00     0.005 C 
HETATM    6  C12 UNL     1      -1.326  -1.422  -4.065  1.00  0.00     0.122 C 
HETATM    7  N2  UNL     1      -0.110  -0.876  -3.551  1.00  0.00    -0.406 N 
ENDROOT
BRANCH   5   8
HETATM    8  C6  UNL     1      -2.361  -3.589  -4.451  1.00  0.00     0.036 C 
BRANCH   8   9
HETATM    9  C7  UNL     1      -2.582  -4.412  -5.680  1.00  0.00     0.273 C 
BRANCH   9  10
HETATM   10  N1  UNL     1      -3.048  -5.734  -5.375  1.00  0.00     0.091 N 
HETATM   11  C8  UNL     1      -2.196  -6.676  -6.089  1.00  0.00     0.275 C 
HETATM   12  C9  UNL     1      -2.564  -6.393  -7.531  1.00  0.00     0.064 C 
HETATM   13  C10 UNL     1      -3.965  -5.857  -7.502  1.00  0.00     0.148 C 
HETATM   14  C11 UNL     1      -4.332  -6.000  -6.039  1.00  0.00     0.303 C 
BRANCH  13  15
HETATM   15  O1  UNL     1      -4.770  -6.683  -8.308  1.00  0.00    -0.394 OA
ATOM     16  H1  UNL     1      -5.541  -6.190  -8.563  1.00  0.00     0.210 HD
ENDBRANCH  13  15
ENDBRANCH   9  10
ENDBRANCH   8   9
ENDBRANCH   5   8
BRANCH   7  17
HETATM   17  C13 UNL     1      -0.078   0.542  -3.436  1.00  0.00     0.143 C 
BRANCH  17  18
HETATM   18  C14 UNL     1      -1.165   1.250  -4.192  1.00  0.00     0.183 C 
BRANCH  18  19
HETATM   19  O2  UNL     1      -0.639   1.931  -5.288  1.00  0.00    -0.399 OA
ATOM     20  H2  UNL     1      -1.015   2.800  -5.356  1.00  0.00     0.209 HD
ENDBRANCH  18  19
ENDBRANCH  17  18
ENDBRANCH   7  17
TORSDOF 7
ENDMDL
MODEL 5
REMARK VINA RESULT: -6.205586175      1.755      6.581
REMARK  7 active torsions:
REMARK  status: ('A' for Active; 'I' for Inactive)
REMARK    1  A    between atoms: C5_5  and  C6_6 
REMARK    2  A    between atoms: C6_6  and  C7_7 
REMARK    3  A    between atoms: C7_7  and  N1_8 
REMARK    4  A    between atoms: C10_11  and  O1_12 
REMARK    5  A    between atoms: N2_16  and  C13_17 
REMARK    6  A    between atoms: C13_17  and  C14_18 
REMARK    7  A    between atoms: C14_18  and  O2_19 
ROOT
HETATM    1  C1  UNL     1      -6.616  -8.101 -10.404  1.00  0.00     0.032 C 
HETATM    2  C2  UNL     1      -6.571  -6.827  -9.583  1.00  0.00     0.075 C 
HETATM    3  C3  UNL     1      -5.337  -6.065 -10.019  1.00  0.00     0.025 C 
HETATM    4  C4  UNL     1      -4.137  -6.857  -9.540  1.00  0.00     0.008 C 
HETATM    5  C5  UNL     1      -4.071  -6.681  -8.032  1.00  0.00     0.005 C 
HETATM    6  C12 UNL     1      -5.466  -6.445  -7.472  1.00  0.00     0.122 C 
HETATM    7  N2  UNL     1      -6.433  -7.188  -8.217  1.00  0.00    -0.406 N 
ENDROOT
BRANCH   5   8
HETATM    8  C6  UNL     1      -3.308  -5.370  -7.800  1.00  0.00     0.036 C 
BRANCH   8   9
HETATM    9  C7  UNL     1      -1.982  -5.744  -7.218  1.00  0.00     0.273 C 
BRANCH   9  10
HETATM   10  N1  UNL     1      -1.619  -4.908  -6.110  1.00  0.00     0.091 N 
HETATM   11  C8  UNL     1      -0.311  -5.345  -5.641  1.00  0.00     0.275 C 
HETATM   12  C9  UNL     1      -0.627  -6.717  -5.081  1.00  0.00     0.064 C 
HETATM   13  C10 UNL     1      -2.072  -6.676  -4.680  1.00  0.00     0.148 C 
HETATM   14  C11 UNL     1      -2.432  -5.226  -4.929  1.00  0.00     0.303 C 
BRANCH  13  15
HETATM   15  O1  UNL     1      -2.158  -6.991  -3.311  1.00  0.00    -0.394 OA
ATOM     16  H1  UNL     1      -2.882  -6.502  -2.939  1.00  0.00     0.210 HD
ENDBRANCH  13  15
ENDBRANCH   9  10
ENDBRANCH   8   9
ENDBRANCH   5   8
BRANCH   7  17
HETATM   17  C13 UNL     1      -7.640  -7.485  -7.524  1.00  0.00     0.143 C 
BRANCH  17  18
HETATM   18  C14 UNL     1      -8.759  -7.964  -8.403  1.00  0.00     0.183 C 
BRANCH  18  19
HETATM   19  O2  UNL     1      -8.981  -9.326  -8.219  1.00  0.00    -0.399 OA
ATOM     20  H2  UNL     1      -9.263  -9.733  -9.029  1.00  0.00     0.209 HD
ENDBRANCH  18  19
ENDBRANCH  17  18
ENDBRANCH   7  17
TORSDOF 7
ENDMDL
