MODEL 1
REMARK VINA RESULT: -7.256575872      0.000      0.000
REMARK  6 active torsions:
REMARK  status: ('A' for Active; 'I' for Inactive)
REMARK    1  A    between atoms: C3_3  and  N1_4 
REMARK    2  A    between atoms: N1_4  and  C4_6 
REMARK    3  A    between atoms: C8_16  and  C9_17 
REMARK    4  A    between atoms: C10_18  and  C11_19 
REMARK    5  A    between atoms: C11_19  and  C12_20 
REMARK    6  A    between atoms: C12_20  and  O3_21 
ROOT
HETATM    1  C1  UNL     1      32.883  66.932   7.962  1.00  0.00     0.014 C 
HETATM    2  C2  UNL     1      31.962  66.946   7.188  1.00  0.00    -0.097 C 
HETATM    3  C3  UNL     1      30.836  66.988   6.231  1.00  0.00     0.231 C 
ENDROOT
BRANCH   3   4
HETATM    4  N1  UNL     1      29.743  67.628   6.899  1.00  0.00    -0.216 N 
ATOM      5  H1  UNL     1      29.585  68.628   6.776  1.00  0.00     0.178 HD
BRANCH   4   6
HETATM    6  C4  UNL     1      28.961  66.945   7.651  1.00  0.00     0.682 A 
HETATM    7  N2  UNL     1      28.012  66.190   7.081  1.00  0.00    -0.155 N 
HETATM    8  C5  UNL     1      27.161  65.450   7.844  1.00  0.00     0.277 A 
ATOM      9  H2  UNL     1      27.925  66.170   6.065  1.00  0.00     0.187 HD
HETATM   10  O1  UNL     1      26.261  64.732   7.337  1.00  0.00    -0.266 OA
HETATM   11  C6  UNL     1      27.340  65.527   9.205  1.00  0.00     0.128 A 
HETATM   12  C7  UNL     1      26.508  64.798  10.023  1.00  0.00     0.264 A 
HETATM   13  C14 UNL     1      28.322  66.307   9.799  1.00  0.00     0.073 A 
HETATM   14  O2  UNL     1      25.622  64.095   9.479  1.00  0.00    -0.267 OA
HETATM   15  N3  UNL     1      26.644  64.841  11.381  1.00  0.00    -0.315 N 
HETATM   16  C8  UNL     1      27.584  65.586  11.982  1.00  0.00     0.091 A 
ATOM     17  H3  UNL     1      26.010  64.288  11.958  1.00  0.00     0.170 HD
HETATM   18  C13 UNL     1      28.424  66.321  11.167  1.00  0.00     0.070 A 
HETATM   19  N4  UNL     1      29.130  67.016   8.988  1.00  0.00    -0.191 N 
ATOM     20  H4  UNL     1      29.866  67.603   9.382  1.00  0.00     0.184 HD
BRANCH  16  21
HETATM   21  C9  UNL     1      27.720  65.625  13.421  1.00  0.00    -0.049 C 
HETATM   22  C10 UNL     1      27.823  65.675  14.621  1.00  0.00    -0.098 C 
BRANCH  22  23
HETATM   23  C11 UNL     1      27.934  65.714  16.080  1.00  0.00     0.120 C 
BRANCH  23  24
HETATM   24  C12 UNL     1      26.614  65.392  16.748  1.00  0.00     0.176 C 
BRANCH  24  25
HETATM   25  O3  UNL     1      26.611  64.004  16.998  1.00  0.00    -0.400 OA
ATOM     26  H3  UNL     1      26.126  63.871  17.805  1.00  0.00     0.209 HD
ENDBRANCH  24  25
ENDBRANCH  23  24
ENDBRANCH  22  23
ENDBRANCH  16  21
ENDBRANCH   4   6
ENDBRANCH   3   4
TORSDOF 6
ENDMDL
MODEL 2
REMARK VINA RESULT: -7.245949946      2.417      7.079
REMARK  6 active torsions:
REMARK  status: ('A' for Active; 'I' for Inactive)
REMARK    1  A    between atoms: C3_3  and  N1_4 
REMARK    2  A    between atoms: N1_4  and  C4_6 
REMARK    3  A    between atoms: C8_16  and  C9_17 
REMARK    4  A    between atoms: C10_18  and  C11_19 
REMARK    5  A    between atoms: C11_19  and  C12_20 
REMARK    6  A    between atoms: C12_20  and  O3_21 
ROOT
HETATM    1  C1  UNL     1      28.767  66.664  16.743  1.00  0.00     0.014 C 
HETATM    2  C2  UNL     1      27.858  65.892  16.586  1.00  0.00    -0.097 C 
HETATM    3  C3  UNL     1      26.753  64.926  16.409  1.00  0.00     0.231 C 
ENDROOT
BRANCH   3   4
HETATM    4  N1  UNL     1      27.177  63.982  15.418  1.00  0.00    -0.216 N 
ATOM      5  H1  UNL     1      27.667  63.133  15.700  1.00  0.00     0.178 HD
BRANCH   4   6
HETATM    6  C4  UNL     1      26.941  64.204  14.178  1.00  0.00     0.682 A 
HETATM    7  N2  UNL     1      25.699  64.010  13.712  1.00  0.00    -0.155 N 
HETATM    8  C5  UNL     1      25.407  64.233  12.401  1.00  0.00     0.277 A 
ATOM      9  H2  UNL     1      24.966  63.691  14.346  1.00  0.00     0.187 HD
HETATM   10  O1  UNL     1      24.251  64.060  11.935  1.00  0.00    -0.266 OA
HETATM   11  C6  UNL     1      26.446  64.661  11.609  1.00  0.00     0.128 A 
HETATM   12  C7  UNL     1      26.205  64.903  10.277  1.00  0.00     0.264 A 
HETATM   13  C14 UNL     1      27.732  64.863  12.088  1.00  0.00     0.073 A 
HETATM   14  O2  UNL     1      25.038  64.718   9.850  1.00  0.00    -0.267 OA
HETATM   15  N3  UNL     1      27.204  65.329   9.448  1.00  0.00    -0.315 N 
HETATM   16  C8  UNL     1      28.455  65.533   9.884  1.00  0.00     0.091 A 
ATOM     17  H3  UNL     1      26.990  65.498   8.466  1.00  0.00     0.170 HD
HETATM   18  C13 UNL     1      28.705  65.292  11.222  1.00  0.00     0.070 A 
HETATM   19  N4  UNL     1      27.956  64.624  13.394  1.00  0.00    -0.191 N 
ATOM     20  H4  UNL     1      28.887  64.759  13.789  1.00  0.00     0.184 HD
BRANCH  16  21
HETATM   21  C9  UNL     1      29.505  65.984   8.999  1.00  0.00    -0.049 C 
HETATM   22  C10 UNL     1      30.370  66.377   8.255  1.00  0.00    -0.098 C 
BRANCH  22  23
HETATM   23  C11 UNL     1      31.435  66.856   7.374  1.00  0.00     0.120 C 
BRANCH  23  24
HETATM   24  C12 UNL     1      32.768  66.914   8.092  1.00  0.00     0.176 C 
BRANCH  24  25
HETATM   25  O3  UNL     1      33.673  66.139   7.337  1.00  0.00    -0.400 OA
ATOM     26  H3  UNL     1      34.402  65.930   7.910  1.00  0.00     0.209 HD
ENDBRANCH  24  25
ENDBRANCH  23  24
ENDBRANCH  22  23
ENDBRANCH  16  21
ENDBRANCH   4   6
ENDBRANCH   3   4
TORSDOF 6
ENDMDL
MODEL 3
REMARK VINA RESULT: -7.142383752      3.146      4.756
REMARK  6 active torsions:
REMARK  status: ('A' for Active; 'I' for Inactive)
REMARK    1  A    between atoms: C3_3  and  N1_4 
REMARK    2  A    between atoms: N1_4  and  C4_6 
REMARK    3  A    between atoms: C8_16  and  C9_17 
REMARK    4  A    between atoms: C10_18  and  C11_19 
REMARK    5  A    between atoms: C11_19  and  C12_20 
REMARK    6  A    between atoms: C12_20  and  O3_21 
ROOT
HETATM    1  C1  UNL     1      33.048  66.966   8.032  1.00  0.00     0.014 C 
HETATM    2  C2  UNL     1      32.077  66.848   7.332  1.00  0.00    -0.097 C 
HETATM    3  C3  UNL     1      30.869  66.712   6.491  1.00  0.00     0.231 C 
ENDROOT
BRANCH   3   4
HETATM    4  N1  UNL     1      30.225  65.492   6.877  1.00  0.00    -0.216 N 
ATOM      5  H1  UNL     1      30.416  64.631   6.365  1.00  0.00     0.178 HD
BRANCH   4   6
HETATM    6  C4  UNL     1      29.409  65.482   7.865  1.00  0.00     0.682 A 
HETATM    7  N2  UNL     1      29.855  65.090   9.067  1.00  0.00    -0.155 N 
HETATM    8  C5  UNL     1      29.020  65.064  10.142  1.00  0.00     0.277 A 
ATOM      9  H2  UNL     1      30.829  64.807   9.177  1.00  0.00     0.187 HD
HETATM   10  O1  UNL     1      29.410  64.701  11.282  1.00  0.00    -0.266 OA
HETATM   11  C6  UNL     1      27.723  65.460   9.917  1.00  0.00     0.128 A 
HETATM   12  C7  UNL     1      26.838  65.453  10.970  1.00  0.00     0.264 A 
HETATM   13  C14 UNL     1      27.259  65.866   8.675  1.00  0.00     0.073 A 
HETATM   14  O2  UNL     1      27.265  65.083  12.092  1.00  0.00    -0.267 OA
HETATM   15  N3  UNL     1      25.538  65.836  10.798  1.00  0.00    -0.315 N 
HETATM   16  C8  UNL     1      25.063  66.234   9.609  1.00  0.00     0.091 A 
ATOM     17  H3  UNL     1      24.909  65.820  11.600  1.00  0.00     0.170 HD
HETATM   18  C13 UNL     1      25.946  66.244   8.546  1.00  0.00     0.070 A 
HETATM   19  N4  UNL     1      28.134  65.868   7.651  1.00  0.00    -0.191 N 
ATOM     20  H4  UNL     1      27.835  66.160   6.720  1.00  0.00     0.184 HD
BRANCH  16  21
HETATM   21  C9  UNL     1      23.685  66.638   9.437  1.00  0.00    -0.049 C 
HETATM   22  C10 UNL     1      22.536  66.967   9.273  1.00  0.00    -0.098 C 
BRANCH  22  23
HETATM   23  C11 UNL     1      21.136  67.351   9.095  1.00  0.00     0.120 C 
BRANCH  23  24
HETATM   24  C12 UNL     1      20.297  66.972  10.298  1.00  0.00     0.176 C 
BRANCH  24  25
HETATM   25  O3  UNL     1      19.503  65.872   9.911  1.00  0.00    -0.400 OA
ATOM     26  H3  UNL     1      18.611  66.072  10.169  1.00  0.00     0.209 HD
ENDBRANCH  24  25
ENDBRANCH  23  24
ENDBRANCH  22  23
ENDBRANCH  16  21
ENDBRANCH   4   6
ENDBRANCH   3   4
TORSDOF 6
ENDMDL
MODEL 4
REMARK VINA RESULT: -7.059316575      1.229      1.381
REMARK  6 active torsions:
REMARK  status: ('A' for Active; 'I' for Inactive)
REMARK    1  A    between atoms: C3_3  and  N1_4 
REMARK    2  A    between atoms: N1_4  and  C4_6 
REMARK    3  A    between atoms: C8_16  and  C9_17 
REMARK    4  A    between atoms: C10_18  and  C11_19 
REMARK    5  A    between atoms: C11_19  and  C12_20 
REMARK    6  A    between atoms: C12_20  and  O3_21 
ROOT
HETATM    1  C1  UNL     1      32.921  66.899   8.010  1.00  0.00     0.014 C 
HETATM    2  C2  UNL     1      32.059  66.934   7.171  1.00  0.00    -0.097 C 
HETATM    3  C3  UNL     1      31.007  67.001   6.136  1.00  0.00     0.231 C 
ENDROOT
BRANCH   3   4
HETATM    4  N1  UNL     1      29.867  67.626   6.738  1.00  0.00    -0.216 N 
ATOM      5  H1  UNL     1      29.628  68.588   6.500  1.00  0.00     0.178 HD
BRANCH   4   6
HETATM    6  C4  UNL     1      29.146  66.976   7.576  1.00  0.00     0.682 A 
HETATM    7  N2  UNL     1      28.152  66.206   7.113  1.00  0.00    -0.155 N 
HETATM    8  C5  UNL     1      27.364  65.500   7.970  1.00  0.00     0.277 A 
ATOM      9  H2  UNL     1      27.984  66.148   6.108  1.00  0.00     0.187 HD
HETATM   10  O1  UNL     1      26.424  64.769   7.564  1.00  0.00    -0.266 OA
HETATM   11  C6  UNL     1      27.652  65.627   9.308  1.00  0.00     0.128 A 
HETATM   12  C7  UNL     1      26.886  64.935  10.217  1.00  0.00     0.264 A 
HETATM   13  C14 UNL     1      28.680  66.424   9.791  1.00  0.00     0.073 A 
HETATM   14  O2  UNL     1      25.957  64.216   9.773  1.00  0.00    -0.267 OA
HETATM   15  N3  UNL     1      27.131  65.029  11.558  1.00  0.00    -0.315 N 
HETATM   16  C8  UNL     1      28.118  65.790  12.052  1.00  0.00     0.091 A 
ATOM     17  H3  UNL     1      26.544  64.502  12.204  1.00  0.00     0.170 HD
HETATM   18  C13 UNL     1      28.892  66.489  11.145  1.00  0.00     0.070 A 
HETATM   19  N4  UNL     1      29.423  67.097   8.891  1.00  0.00    -0.191 N 
ATOM     20  H4  UNL     1      30.189  67.695   9.202  1.00  0.00     0.184 HD
BRANCH  16  21
HETATM   21  C9  UNL     1      28.370  65.882  13.473  1.00  0.00    -0.049 C 
HETATM   22  C10 UNL     1      28.578  65.981  14.657  1.00  0.00    -0.098 C 
BRANCH  22  23
HETATM   23  C11 UNL     1      28.808  66.085  16.098  1.00  0.00     0.120 C 
BRANCH  23  24
HETATM   24  C12 UNL     1      30.147  66.725  16.402  1.00  0.00     0.176 C 
BRANCH  24  25
HETATM   25  O3  UNL     1      30.928  65.748  17.053  1.00  0.00    -0.400 OA
ATOM     26  H3  UNL     1      31.829  66.049  17.020  1.00  0.00     0.209 HD
ENDBRANCH  24  25
ENDBRANCH  23  24
ENDBRANCH  22  23
ENDBRANCH  16  21
ENDBRANCH   4   6
ENDBRANCH   3   4
TORSDOF 6
ENDMDL
MODEL 5
REMARK VINA RESULT: -7.058800434      2.383      7.140
REMARK  6 active torsions:
REMARK  status: ('A' for Active; 'I' for Inactive)
REMARK    1  A    between atoms: C3_3  and  N1_4 
REMARK    2  A    between atoms: N1_4  and  C4_6 
REMARK    3  A    between atoms: C8_16  and  C9_17 
REMARK    4  A    between atoms: C10_18  and  C11_19 
REMARK    5  A    between atoms: C11_19  and  C12_20 
REMARK    6  A    between atoms: C12_20  and  O3_21 
ROOT
HETATM    1  C1  UNL     1      30.232  66.609  16.705  1.00  0.00     0.014 C 
HETATM    2  C2  UNL     1      29.105  66.265  16.468  1.00  0.00    -0.097 C 
HETATM    3  C3  UNL     1      27.720  65.825  16.196  1.00  0.00     0.231 C 
ENDROOT
BRANCH   3   4
HETATM    4  N1  UNL     1      27.807  64.605  15.451  1.00  0.00    -0.216 N 
ATOM      5  H1  UNL     1      28.271  63.792  15.856  1.00  0.00     0.178 HD
BRANCH   4   6
HETATM    6  C4  UNL     1      27.302  64.533  14.275  1.00  0.00     0.682 A 
HETATM    7  N2  UNL     1      26.097  63.964  14.123  1.00  0.00    -0.155 N 
HETATM    8  C5  UNL     1      25.526  63.867  12.891  1.00  0.00     0.277 A 
ATOM      9  H2  UNL     1      25.604  63.599  14.938  1.00  0.00     0.187 HD
HETATM   10  O1  UNL     1      24.397  63.339  12.717  1.00  0.00    -0.266 OA
HETATM   11  C6  UNL     1      26.250  64.382  11.841  1.00  0.00     0.128 A 
HETATM   12  C7  UNL     1      25.718  64.311  10.575  1.00  0.00     0.264 A 
HETATM   13  C14 UNL     1      27.496  64.971  11.995  1.00  0.00     0.073 A 
HETATM   14  O2  UNL     1      24.589  63.776  10.443  1.00  0.00    -0.267 OA
HETATM   15  N3  UNL     1      26.397  64.807   9.499  1.00  0.00    -0.315 N 
HETATM   16  C8  UNL     1      27.603  65.382   9.618  1.00  0.00     0.091 A 
ATOM     17  H3  UNL     1      25.974  64.738   8.574  1.00  0.00     0.170 HD
HETATM   18  C13 UNL     1      28.144  65.457  10.888  1.00  0.00     0.070 A 
HETATM   19  N4  UNL     1      28.007  65.035  13.240  1.00  0.00    -0.191 N 
ATOM     20  H4  UNL     1      28.920  65.460  13.399  1.00  0.00     0.184 HD
BRANCH  16  21
HETATM   21  C9  UNL     1      28.314  65.904   8.473  1.00  0.00    -0.049 C 
HETATM   22  C10 UNL     1      28.900  66.324   7.506  1.00  0.00    -0.098 C 
BRANCH  22  23
HETATM   23  C11 UNL     1      29.598  66.855   6.335  1.00  0.00     0.120 C 
BRANCH  23  24
HETATM   24  C12 UNL     1      31.101  66.754   6.488  1.00  0.00     0.176 C 
BRANCH  24  25
HETATM   25  O3  UNL     1      31.649  67.922   5.918  1.00  0.00    -0.400 OA
ATOM     26  H3  UNL     1      32.064  68.405   6.624  1.00  0.00     0.209 HD
ENDBRANCH  24  25
ENDBRANCH  23  24
ENDBRANCH  22  23
ENDBRANCH  16  21
ENDBRANCH   4   6
ENDBRANCH   3   4
TORSDOF 6
ENDMDL
