MODEL 1
REMARK VINA RESULT: -5.961586436      0.000      0.000
REMARK  8 active torsions:
REMARK  status: ('A' for Active; 'I' for Inactive)
REMARK    1  A    between atoms: C2_2  and  N1_3 
REMARK    2  A    between atoms: N1_3  and  C3_5 
REMARK    3  A    between atoms: C3_5  and  N2_7 
REMARK    4  A    between atoms: N2_7  and  N3_9 
REMARK    5  A    between atoms: N3_9  and  C4_11 
REMARK    6  A    between atoms: N4_13  and  S2_15 
REMARK    7  A    between atoms: S2_15  and  N5_16 
REMARK    8  A    between atoms: S2_15  and  N6_20 
ROOT
HETATM    1  C4  UNL     1      26.456  65.509   8.676  1.00  0.00     0.101 C 
HETATM    2  C5  UNL     1      25.280  65.038   7.914  1.00  0.00     0.091 C 
HETATM    3  N4  UNL     1      26.761  65.013   9.826  1.00  0.00    -0.276 N 
ATOM      4  H4  UNL     1      27.579  65.364  10.324  1.00  0.00     0.179 HD
ENDROOT
BRANCH   1   5
HETATM    5  N3  UNL     1      27.257  66.551   8.094  1.00  0.00    -0.287 N 
ATOM      6  H3  UNL     1      26.803  67.213   7.466  1.00  0.00     0.188 HD
BRANCH   5   7
HETATM    7  N2  UNL     1      28.605  66.707   8.337  1.00  0.00    -0.275 N 
ATOM      8  H2  UNL     1      28.914  67.486   8.919  1.00  0.00     0.189 HD
BRANCH   7   9
HETATM    9  C3  UNL     1      29.589  65.807   7.799  1.00  0.00     0.186 C 
HETATM   10  S1  UNL     1      29.479  65.297   6.252  1.00  0.00    -0.040 SA
BRANCH   9  11
HETATM   11  N1  UNL     1      30.643  65.385   8.640  1.00  0.00    -0.366 N 
ATOM     12  H1  UNL     1      30.760  64.403   8.889  1.00  0.00     0.161 HD
BRANCH  11  13
HETATM   13  C2  UNL     1      31.562  66.414   9.140  1.00  0.00     0.117 C 
HETATM   14  C1  UNL     1      32.417  66.884   8.009  1.00  0.00     0.026 C 
ENDBRANCH  11  13
ENDBRANCH   9  11
ENDBRANCH   7   9
ENDBRANCH   5   7
ENDBRANCH   1   5
BRANCH   3  15
HETATM   15  S2  UNL     1      25.822  63.786  10.520  1.00  0.00     0.187 S 
HETATM   16  O1  UNL     1      25.550  62.688   9.507  1.00  0.00    -0.211 OA
BRANCH  15  17
HETATM   17  N5  UNL     1      24.432  64.287  11.055  1.00  0.00    -0.332 N 
ATOM     18  H52 UNL     1      23.624  64.413  10.445  1.00  0.00     0.168 HD
ATOM     19  H51 UNL     1      24.424  64.470  12.059  1.00  0.00     0.168 HD
ENDBRANCH  15  17
BRANCH  15  20
HETATM   20  N6  UNL     1      26.595  63.045  11.876  1.00  0.00    -0.139 NA
HETATM   21  C6  UNL     1      27.949  63.379  12.199  1.00  0.00     0.213 A 
HETATM   22  S3  UNL     1      26.637  63.828  13.399  1.00  0.00    -0.050 SA
ENDBRANCH  15  20
ENDBRANCH   3  15
TORSDOF 8
ENDMDL
MODEL 2
REMARK VINA RESULT: -5.931631759      1.239      1.381
REMARK  8 active torsions:
REMARK  status: ('A' for Active; 'I' for Inactive)
REMARK    1  A    between atoms: C2_2  and  N1_3 
REMARK    2  A    between atoms: N1_3  and  C3_5 
REMARK    3  A    between atoms: C3_5  and  N2_7 
REMARK    4  A    between atoms: N2_7  and  N3_9 
REMARK    5  A    between atoms: N3_9  and  C4_11 
REMARK    6  A    between atoms: N4_13  and  S2_15 
REMARK    7  A    between atoms: S2_15  and  N5_16 
REMARK    8  A    between atoms: S2_15  and  N6_20 
ROOT
HETATM    1  C4  UNL     1      26.451  65.407   8.582  1.00  0.00     0.101 C 
HETATM    2  C5  UNL     1      25.305  64.883   7.810  1.00  0.00     0.091 C 
HETATM    3  N4  UNL     1      26.727  64.975   9.765  1.00  0.00    -0.276 N 
ATOM      4  H4  UNL     1      27.525  65.361  10.269  1.00  0.00     0.179 HD
ENDROOT
BRANCH   1   5
HETATM    5  N3  UNL     1      27.259  66.429   7.972  1.00  0.00    -0.287 N 
ATOM      6  H3  UNL     1      26.924  66.855   7.108  1.00  0.00     0.188 HD
BRANCH   5   7
HETATM    7  N2  UNL     1      28.460  66.865   8.487  1.00  0.00    -0.275 N 
ATOM      8  H2  UNL     1      28.516  67.807   8.874  1.00  0.00     0.189 HD
BRANCH   7   9
HETATM    9  C3  UNL     1      29.635  66.036   8.499  1.00  0.00     0.186 C 
HETATM   10  S1  UNL     1      30.465  65.805   9.886  1.00  0.00    -0.040 SA
BRANCH   9  11
HETATM   11  N1  UNL     1      30.044  65.435   7.287  1.00  0.00    -0.366 N 
ATOM     12  H1  UNL     1      30.102  64.422   7.193  1.00  0.00     0.161 HD
BRANCH  11  13
HETATM   13  C2  UNL     1      30.381  66.326   6.171  1.00  0.00     0.117 C 
HETATM   14  C1  UNL     1      31.559  67.158   6.561  1.00  0.00     0.026 C 
ENDBRANCH  11  13
ENDBRANCH   9  11
ENDBRANCH   7   9
ENDBRANCH   5   7
ENDBRANCH   1   5
BRANCH   3  15
HETATM   15  S2  UNL     1      25.780  63.772  10.492  1.00  0.00     0.187 S 
HETATM   16  O1  UNL     1      25.513  62.643   9.514  1.00  0.00    -0.211 OA
BRANCH  15  17
HETATM   17  N5  UNL     1      24.388  64.294  11.002  1.00  0.00    -0.332 N 
ATOM     18  H52 UNL     1      24.063  64.141  11.957  1.00  0.00     0.168 HD
ATOM     19  H51 UNL     1      23.854  64.791  10.289  1.00  0.00     0.168 HD
ENDBRANCH  15  17
BRANCH  15  20
HETATM   20  N6  UNL     1      26.543  63.075  11.877  1.00  0.00    -0.139 NA
HETATM   21  C6  UNL     1      27.919  63.358  12.155  1.00  0.00     0.213 A 
HETATM   22  S3  UNL     1      26.655  63.943  13.349  1.00  0.00    -0.050 SA
ENDBRANCH  15  20
ENDBRANCH   3  15
TORSDOF 8
ENDMDL
MODEL 3
REMARK VINA RESULT: -5.870946980      2.719      3.269
REMARK  8 active torsions:
REMARK  status: ('A' for Active; 'I' for Inactive)
REMARK    1  A    between atoms: C2_2  and  N1_3 
REMARK    2  A    between atoms: N1_3  and  C3_5 
REMARK    3  A    between atoms: C3_5  and  N2_7 
REMARK    4  A    between atoms: N2_7  and  N3_9 
REMARK    5  A    between atoms: N3_9  and  C4_11 
REMARK    6  A    between atoms: N4_13  and  S2_15 
REMARK    7  A    between atoms: S2_15  and  N5_16 
REMARK    8  A    between atoms: S2_15  and  N6_20 
ROOT
HETATM    1  C4  UNL     1      29.248  65.488  11.381  1.00  0.00     0.101 C 
HETATM    2  C5  UNL     1      28.558  66.751  11.717  1.00  0.00     0.091 C 
HETATM    3  N4  UNL     1      28.962  64.381  11.977  1.00  0.00    -0.276 N 
ATOM      4  H4  UNL     1      29.460  63.529  11.721  1.00  0.00     0.179 HD
ENDROOT
BRANCH   1   5
HETATM    5  N3  UNL     1      30.263  65.529  10.363  1.00  0.00    -0.287 N 
ATOM      6  H3  UNL     1      31.090  66.101  10.531  1.00  0.00     0.188 HD
BRANCH   5   7
HETATM    7  N2  UNL     1      30.181  64.839   9.174  1.00  0.00    -0.275 N 
ATOM      8  H2  UNL     1      30.494  63.868   9.145  1.00  0.00     0.189 HD
BRANCH   7   9
HETATM    9  C3  UNL     1      29.670  65.441   7.972  1.00  0.00     0.186 C 
HETATM   10  S1  UNL     1      28.129  65.978   7.912  1.00  0.00    -0.040 SA
BRANCH   9  11
HETATM   11  N1  UNL     1      30.532  65.553   6.859  1.00  0.00    -0.366 N 
ATOM     12  H1  UNL     1      30.743  64.749   6.269  1.00  0.00     0.161 HD
BRANCH  11  13
HETATM   13  C2  UNL     1      31.114  66.872   6.584  1.00  0.00     0.117 C 
HETATM   14  C1  UNL     1      32.341  67.039   7.419  1.00  0.00     0.026 C 
ENDBRANCH  11  13
ENDBRANCH   9  11
ENDBRANCH   7   9
ENDBRANCH   5   7
ENDBRANCH   1   5
BRANCH   3  15
HETATM   15  S2  UNL     1      27.769  64.323  13.179  1.00  0.00     0.187 S 
HETATM   16  O1  UNL     1      28.076  65.323  14.279  1.00  0.00    -0.211 OA
BRANCH  15  17
HETATM   17  N5  UNL     1      27.627  62.911  13.853  1.00  0.00    -0.332 N 
ATOM     18  H52 UNL     1      27.243  62.105  13.359  1.00  0.00     0.168 HD
ATOM     19  H51 UNL     1      27.954  62.886  14.819  1.00  0.00     0.168 HD
ENDBRANCH  15  17
BRANCH  15  20
HETATM   20  N6  UNL     1      26.197  64.702  12.572  1.00  0.00    -0.139 NA
HETATM   21  C6  UNL     1      25.773  64.179  11.308  1.00  0.00     0.213 A 
HETATM   22  S3  UNL     1      24.881  63.634  12.814  1.00  0.00    -0.050 SA
ENDBRANCH  15  20
ENDBRANCH   3  15
TORSDOF 8
ENDMDL
MODEL 4
REMARK VINA RESULT: -5.726856860      2.492      6.148
REMARK  8 active torsions:
REMARK  status: ('A' for Active; 'I' for Inactive)
REMARK    1  A    between atoms: C2_2  and  N1_3 
REMARK    2  A    between atoms: N1_3  and  C3_5 
REMARK    3  A    between atoms: C3_5  and  N2_7 
REMARK    4  A    between atoms: N2_7  and  N3_9 
REMARK    5  A    between atoms: N3_9  and  C4_11 
REMARK    6  A    between atoms: N4_13  and  S2_15 
REMARK    7  A    between atoms: S2_15  and  N5_16 
REMARK    8  A    between atoms: S2_15  and  N6_20 
ROOT
HETATM    1  C4  UNL     1      29.384  65.558  10.462  1.00  0.00     0.101 C 
HETATM    2  C5  UNL     1      28.874  66.946  10.440  1.00  0.00     0.091 C 
HETATM    3  N4  UNL     1      29.699  64.935   9.378  1.00  0.00    -0.276 N 
ATOM      4  H4  UNL     1      30.046  63.978   9.431  1.00  0.00     0.179 HD
ENDROOT
BRANCH   1   5
HETATM    5  N3  UNL     1      29.516  64.913  11.740  1.00  0.00    -0.287 N 
ATOM      6  H3  UNL     1      30.221  65.266  12.386  1.00  0.00     0.188 HD
BRANCH   5   7
HETATM    7  N2  UNL     1      28.744  63.845  12.142  1.00  0.00    -0.275 N 
ATOM      8  H2  UNL     1      29.206  63.015  12.513  1.00  0.00     0.189 HD
BRANCH   7   9
HETATM    9  C3  UNL     1      27.308  63.862  12.056  1.00  0.00     0.186 C 
HETATM   10  S1  UNL     1      26.447  64.967  12.896  1.00  0.00    -0.040 SA
BRANCH   9  11
HETATM   11  N1  UNL     1      26.674  62.906  11.232  1.00  0.00    -0.366 N 
ATOM     12  H1  UNL     1      27.091  61.991  11.065  1.00  0.00     0.161 HD
BRANCH  11  13
HETATM   13  C2  UNL     1      25.391  63.281  10.625  1.00  0.00     0.117 C 
HETATM   14  C1  UNL     1      24.965  62.192   9.695  1.00  0.00     0.026 C 
ENDBRANCH  11  13
ENDBRANCH   9  11
ENDBRANCH   7   9
ENDBRANCH   5   7
ENDBRANCH   1   5
BRANCH   3  15
HETATM   15  S2  UNL     1      29.546  65.687   7.867  1.00  0.00     0.187 S 
HETATM   16  O1  UNL     1      28.143  66.239   7.689  1.00  0.00    -0.211 OA
BRANCH  15  17
HETATM   17  N5  UNL     1      29.829  64.724   6.657  1.00  0.00    -0.332 N 
ATOM     18  H52 UNL     1      30.451  63.919   6.733  1.00  0.00     0.168 HD
ATOM     19  H51 UNL     1      29.334  64.986   5.805  1.00  0.00     0.168 HD
ENDBRANCH  15  17
BRANCH  15  20
HETATM   20  N6  UNL     1      30.641  67.007   7.669  1.00  0.00    -0.139 NA
HETATM   21  C6  UNL     1      32.010  66.868   8.066  1.00  0.00     0.213 A 
HETATM   22  S3  UNL     1      31.646  67.116   6.286  1.00  0.00    -0.050 SA
ENDBRANCH  15  20
ENDBRANCH   3  15
TORSDOF 8
ENDMDL
MODEL 5
REMARK VINA RESULT: -5.708731934      2.129      3.552
REMARK  8 active torsions:
REMARK  status: ('A' for Active; 'I' for Inactive)
REMARK    1  A    between atoms: C2_2  and  N1_3 
REMARK    2  A    between atoms: N1_3  and  C3_5 
REMARK    3  A    between atoms: C3_5  and  N2_7 
REMARK    4  A    between atoms: N2_7  and  N3_9 
REMARK    5  A    between atoms: N3_9  and  C4_11 
REMARK    6  A    between atoms: N4_13  and  S2_15 
REMARK    7  A    between atoms: S2_15  and  N5_16 
REMARK    8  A    between atoms: S2_15  and  N6_20 
ROOT
HETATM    1  C4  UNL     1      29.505  65.224  10.363  1.00  0.00     0.101 C 
HETATM    2  C5  UNL     1      29.447  66.572  10.968  1.00  0.00     0.091 C 
HETATM    3  N4  UNL     1      28.801  64.246  10.821  1.00  0.00    -0.276 N 
ATOM      4  H4  UNL     1      28.868  63.329  10.380  1.00  0.00     0.179 HD
ENDROOT
BRANCH   1   5
HETATM    5  N3  UNL     1      30.380  65.031   9.239  1.00  0.00    -0.287 N 
ATOM      6  H3  UNL     1      31.367  64.854   9.422  1.00  0.00     0.188 HD
BRANCH   5   7
HETATM    7  N2  UNL     1      29.961  65.072   7.927  1.00  0.00    -0.275 N 
ATOM      8  H2  UNL     1      29.813  64.194   7.429  1.00  0.00     0.189 HD
BRANCH   7   9
HETATM    9  C3  UNL     1      29.725  66.312   7.236  1.00  0.00     0.186 C 
HETATM   10  S1  UNL     1      30.942  67.056   6.442  1.00  0.00    -0.040 SA
BRANCH   9  11
HETATM   11  N1  UNL     1      28.422  66.858   7.264  1.00  0.00    -0.366 N 
ATOM     12  H1  UNL     1      28.267  67.862   7.182  1.00  0.00     0.161 HD
BRANCH  11  13
HETATM   13  C2  UNL     1      27.300  65.923   7.416  1.00  0.00     0.117 C 
HETATM   14  C1  UNL     1      26.444  66.384   8.550  1.00  0.00     0.026 C 
ENDBRANCH  11  13
ENDBRANCH   9  11
ENDBRANCH   7   9
ENDBRANCH   5   7
ENDBRANCH   1   5
BRANCH   3  15
HETATM   15  S2  UNL     1      27.768  64.463  12.146  1.00  0.00     0.187 S 
HETATM   16  O1  UNL     1      27.110  65.829  12.087  1.00  0.00    -0.211 OA
BRANCH  15  17
HETATM   17  N5  UNL     1      28.498  64.352  13.534  1.00  0.00    -0.332 N 
ATOM     18  H52 UNL     1      29.318  64.912  13.767  1.00  0.00     0.168 HD
ATOM     19  H51 UNL     1      28.071  63.673  14.164  1.00  0.00     0.168 HD
ENDBRANCH  15  17
BRANCH  15  20
HETATM   20  N6  UNL     1      26.501  63.290  12.199  1.00  0.00    -0.139 NA
HETATM   21  C6  UNL     1      25.247  63.618  12.807  1.00  0.00     0.213 A 
HETATM   22  S3  UNL     1      25.273  63.269  11.007  1.00  0.00    -0.050 SA
ENDBRANCH  15  20
ENDBRANCH   3  15
TORSDOF 8
ENDMDL
