MODEL 1
REMARK VINA RESULT: -6.841854216      0.000      0.000
REMARK  6 active torsions:
REMARK  status: ('A' for Active; 'I' for Inactive)
REMARK    1  A    between atoms: C2_2  and  N1_3 
REMARK    2  A    between atoms: N1_3  and  C3_5 
REMARK    3  A    between atoms: C4_8  and  N3_9 
REMARK    4  A    between atoms: C9_18  and  C10_19 
REMARK    5  A    between atoms: C10_19  and  C11_20 
REMARK    6  A    between atoms: C11_20  and  O1_21 
ROOT
HETATM    1  C3  UNL     1      29.149  66.417   8.316  1.00  0.00     0.133 A 
HETATM    2  N2  UNL     1      30.459  66.579   8.634  1.00  0.00    -0.176 N 
ATOM      3  H2  UNL     1      31.067  67.073   7.979  1.00  0.00     0.186 HD
HETATM    4  C4  UNL     1      30.985  66.113   9.780  1.00  0.00     0.680 A 
HETATM    5  N4  UNL     1      30.177  65.466  10.630  1.00  0.00    -0.175 N 
ATOM      6  H4  UNL     1      30.566  65.108  11.503  1.00  0.00     0.186 HD
HETATM    7  C6  UNL     1      28.875  65.274  10.374  1.00  0.00     0.139 A 
HETATM    8  C7  UNL     1      28.339  65.757   9.191  1.00  0.00     0.078 A 
HETATM    9  C8  UNL     1      26.979  65.549   8.940  1.00  0.00     0.072 A 
HETATM   10  N5  UNL     1      26.464  66.068   7.725  1.00  0.00    -0.101 NA
HETATM   11  C9  UNL     1      26.165  64.877   9.839  1.00  0.00    -0.008 A 
HETATM   12  C12 UNL     1      26.781  64.432  10.987  1.00  0.00     0.017 A 
HETATM   13  C13 UNL     1      25.993  63.688  11.981  1.00  0.00     0.069 C 
HETATM   14  N6  UNL     1      28.089  64.616  11.261  1.00  0.00    -0.340 N 
HETATM   15  C14 UNL     1      28.650  64.124  12.524  1.00  0.00     0.158 C 
ENDROOT
BRANCH   1  16
HETATM   16  N1  UNL     1      28.662  66.871   7.219  1.00  0.00    -0.375 N 
ATOM     17  H1  UNL     1      27.867  67.510   7.228  1.00  0.00     0.161 HD
BRANCH  16  18
HETATM   18  C2  UNL     1      29.262  66.460   5.968  1.00  0.00     0.116 C 
HETATM   19  C1  UNL     1      29.431  64.951   5.906  1.00  0.00     0.026 C 
ENDBRANCH  16  18
ENDBRANCH   1  16
BRANCH   4  20
HETATM   20  N3  UNL     1      32.244  66.281  10.063  1.00  0.00    -0.230 N 
HETATM   21  C5  UNL     1      33.146  66.674   9.002  1.00  0.00     0.165 C 
ATOM     22  H3  UNL     1      32.588  66.139  11.012  1.00  0.00     0.177 HD
ENDBRANCH   4  20
BRANCH  11  23
HETATM   23  C10 UNL     1      24.750  64.646   9.597  1.00  0.00     0.068 C 
BRANCH  23  24
HETATM   24  C11 UNL     1      24.377  63.580   8.640  1.00  0.00     0.168 C 
BRANCH  24  25
HETATM   25  O1  UNL     1      24.537  63.822   7.314  1.00  0.00    -0.401 OA
ATOM     26  H1  UNL     1      25.419  63.930   6.979  1.00  0.00     0.209 HD
ENDBRANCH  24  25
ENDBRANCH  23  24
ENDBRANCH  11  23
TORSDOF 6
ENDMDL
MODEL 2
REMARK VINA RESULT: -6.739535799      1.394      1.521
REMARK  6 active torsions:
REMARK  status: ('A' for Active; 'I' for Inactive)
REMARK    1  A    between atoms: C2_2  and  N1_3 
REMARK    2  A    between atoms: N1_3  and  C3_5 
REMARK    3  A    between atoms: C4_8  and  N3_9 
REMARK    4  A    between atoms: C9_18  and  C10_19 
REMARK    5  A    between atoms: C10_19  and  C11_20 
REMARK    6  A    between atoms: C11_20  and  O1_21 
ROOT
HETATM    1  C3  UNL     1      28.923  66.369   8.568  1.00  0.00     0.133 A 
HETATM    2  N2  UNL     1      30.279  66.333   8.651  1.00  0.00    -0.176 N 
ATOM      3  H2  UNL     1      30.829  66.641   7.849  1.00  0.00     0.186 HD
HETATM    4  C4  UNL     1      30.922  65.905   9.751  1.00  0.00     0.680 A 
HETATM    5  N4  UNL     1      30.188  65.502  10.797  1.00  0.00    -0.175 N 
ATOM      6  H4  UNL     1      30.666  65.175  11.637  1.00  0.00     0.186 HD
HETATM    7  C6  UNL     1      28.847  65.513  10.777  1.00  0.00     0.139 A 
HETATM    8  C7  UNL     1      28.191  65.956   9.641  1.00  0.00     0.078 A 
HETATM    9  C8  UNL     1      26.792  65.963   9.637  1.00  0.00     0.072 A 
HETATM   10  N5  UNL     1      26.155  66.433   8.461  1.00  0.00    -0.101 NA
HETATM   11  C9  UNL     1      26.057  65.541  10.735  1.00  0.00    -0.008 A 
HETATM   12  C12 UNL     1      26.791  65.118  11.820  1.00  0.00     0.017 A 
HETATM   13  C13 UNL     1      26.087  64.631  13.016  1.00  0.00     0.069 C 
HETATM   14  N6  UNL     1      28.140  65.099  11.857  1.00  0.00    -0.340 N 
HETATM   15  C14 UNL     1      28.834  64.652  13.069  1.00  0.00     0.158 C 
ENDROOT
BRANCH   1  16
HETATM   16  N1  UNL     1      28.325  66.784   7.511  1.00  0.00    -0.375 N 
ATOM     17  H1  UNL     1      27.433  67.274   7.577  1.00  0.00     0.161 HD
BRANCH  16  18
HETATM   18  C2  UNL     1      28.940  66.544   6.224  1.00  0.00     0.116 C 
HETATM   19  C1  UNL     1      29.233  65.067   6.018  1.00  0.00     0.026 C 
ENDBRANCH  16  18
ENDBRANCH   1  16
BRANCH   4  20
HETATM   20  N3  UNL     1      32.221  65.880   9.806  1.00  0.00    -0.230 N 
HETATM   21  C5  UNL     1      32.971  66.632   8.824  1.00  0.00     0.165 C 
ATOM     22  H3  UNL     1      32.701  65.341  10.527  1.00  0.00     0.177 HD
ENDBRANCH   4  20
BRANCH  11  23
HETATM   23  C10 UNL     1      24.603  65.536  10.752  1.00  0.00     0.068 C 
BRANCH  23  24
HETATM   24  C11 UNL     1      23.910  66.828  10.962  1.00  0.00     0.168 C 
BRANCH  24  25
HETATM   25  O1  UNL     1      23.685  67.619   9.881  1.00  0.00    -0.401 OA
ATOM     26  H1  UNL     1      23.774  68.559   9.986  1.00  0.00     0.209 HD
ENDBRANCH  24  25
ENDBRANCH  23  24
ENDBRANCH  11  23
TORSDOF 6
ENDMDL
MODEL 3
REMARK VINA RESULT: -6.396759174      2.112      2.305
REMARK  6 active torsions:
REMARK  status: ('A' for Active; 'I' for Inactive)
REMARK    1  A    between atoms: C2_2  and  N1_3 
REMARK    2  A    between atoms: N1_3  and  C3_5 
REMARK    3  A    between atoms: C4_8  and  N3_9 
REMARK    4  A    between atoms: C9_18  and  C10_19 
REMARK    5  A    between atoms: C10_19  and  C11_20 
REMARK    6  A    between atoms: C11_20  and  O1_21 
ROOT
HETATM    1  C3  UNL     1      28.855  65.631   8.500  1.00  0.00     0.133 A 
HETATM    2  N2  UNL     1      30.151  65.312   8.753  1.00  0.00    -0.176 N 
ATOM      3  H2  UNL     1      30.674  64.789   8.051  1.00  0.00     0.186 HD
HETATM    4  C4  UNL     1      30.769  65.661   9.894  1.00  0.00     0.680 A 
HETATM    5  N4  UNL     1      30.070  66.348  10.808  1.00  0.00    -0.175 N 
ATOM      6  H4  UNL     1      30.530  66.618  11.679  1.00  0.00     0.186 HD
HETATM    7  C6  UNL     1      28.788  66.694  10.618  1.00  0.00     0.139 A 
HETATM    8  C7  UNL     1      28.158  66.331   9.440  1.00  0.00     0.078 A 
HETATM    9  C8  UNL     1      26.821  66.699   9.257  1.00  0.00     0.072 A 
HETATM   10  N5  UNL     1      26.211  66.321   8.033  1.00  0.00    -0.101 NA
HETATM   11  C9  UNL     1      26.122  67.412  10.219  1.00  0.00    -0.008 A 
HETATM   12  C12 UNL     1      26.827  67.730  11.358  1.00  0.00     0.017 A 
HETATM   13  C13 UNL     1      26.150  68.463  12.439  1.00  0.00     0.069 C 
HETATM   14  N6  UNL     1      28.116  67.391  11.566  1.00  0.00    -0.340 N 
HETATM   15  C14 UNL     1      28.790  67.794  12.805  1.00  0.00     0.158 C 
ENDROOT
BRANCH   1  16
HETATM   16  N1  UNL     1      28.281  65.293   7.403  1.00  0.00    -0.375 N 
ATOM     17  H1  UNL     1      27.288  65.061   7.386  1.00  0.00     0.161 HD
BRANCH  16  18
HETATM   18  C2  UNL     1      29.068  65.249   6.191  1.00  0.00     0.116 C 
HETATM   19  C1  UNL     1      29.521  66.638   5.774  1.00  0.00     0.026 C 
ENDBRANCH  16  18
ENDBRANCH   1  16
BRANCH   4  20
HETATM   20  N3  UNL     1      32.011  65.345  10.113  1.00  0.00    -0.230 N 
HETATM   21  C5  UNL     1      33.047  66.249   9.661  1.00  0.00     0.165 C 
ATOM     22  H3  UNL     1      32.251  64.477  10.593  1.00  0.00     0.177 HD
ENDBRANCH   4  20
BRANCH  11  23
HETATM   23  C10 UNL     1      24.732  67.803  10.052  1.00  0.00     0.068 C 
BRANCH  23  24
HETATM   24  C11 UNL     1      23.692  66.772  10.273  1.00  0.00     0.168 C 
BRANCH  24  25
HETATM   25  O1  UNL     1      23.336  65.984   9.226  1.00  0.00    -0.401 OA
ATOM     26  H1  UNL     1      22.443  66.036   8.907  1.00  0.00     0.209 HD
ENDBRANCH  24  25
ENDBRANCH  23  24
ENDBRANCH  11  23
TORSDOF 6
ENDMDL
MODEL 4
REMARK VINA RESULT: -6.190874230      1.759      4.751
REMARK  6 active torsions:
REMARK  status: ('A' for Active; 'I' for Inactive)
REMARK    1  A    between atoms: C2_2  and  N1_3 
REMARK    2  A    between atoms: N1_3  and  C3_5 
REMARK    3  A    between atoms: C4_8  and  N3_9 
REMARK    4  A    between atoms: C9_18  and  C10_19 
REMARK    5  A    between atoms: C10_19  and  C11_20 
REMARK    6  A    between atoms: C11_20  and  O1_21 
ROOT
HETATM    1  C3  UNL     1      27.198  65.083  10.756  1.00  0.00     0.133 A 
HETATM    2  N2  UNL     1      27.455  64.760  12.050  1.00  0.00    -0.176 N 
ATOM      3  H2  UNL     1      26.687  64.437  12.638  1.00  0.00     0.186 HD
HETATM    4  C4  UNL     1      28.685  64.850  12.584  1.00  0.00     0.680 A 
HETATM    5  N4  UNL     1      29.686  65.276  11.801  1.00  0.00    -0.175 N 
ATOM      6  H4  UNL     1      30.624  65.348  12.196  1.00  0.00     0.186 HD
HETATM    7  C6  UNL     1      29.497  65.610  10.516  1.00  0.00     0.139 A 
HETATM    8  C7  UNL     1      28.226  65.515   9.972  1.00  0.00     0.078 A 
HETATM    9  C8  UNL     1      28.046  65.867   8.630  1.00  0.00     0.072 A 
HETATM   10  N5  UNL     1      26.735  65.745   8.105  1.00  0.00    -0.101 NA
HETATM   11  C9  UNL     1      29.100  66.303   7.842  1.00  0.00    -0.008 A 
HETATM   12  C12 UNL     1      30.326  66.367   8.464  1.00  0.00     0.017 A 
HETATM   13  C13 UNL     1      31.492  66.844   7.705  1.00  0.00     0.069 C 
HETATM   14  N6  UNL     1      30.535  66.035   9.756  1.00  0.00    -0.340 N 
HETATM   15  C14 UNL     1      31.885  66.115  10.325  1.00  0.00     0.158 C 
ENDROOT
BRANCH   1  16
HETATM   16  N1  UNL     1      26.018  64.989  10.261  1.00  0.00    -0.375 N 
ATOM     17  H1  UNL     1      25.726  65.593   9.492  1.00  0.00     0.161 HD
BRANCH  16  18
HETATM   18  C2  UNL     1      25.109  64.008  10.813  1.00  0.00     0.116 C 
HETATM   19  C1  UNL     1      25.148  62.711  10.022  1.00  0.00     0.026 C 
ENDBRANCH  16  18
ENDBRANCH   1  16
BRANCH   4  20
HETATM   20  N3  UNL     1      28.907  64.534  13.826  1.00  0.00    -0.230 N 
HETATM   21  C5  UNL     1      27.924  64.904  14.821  1.00  0.00     0.165 C 
ATOM     22  H3  UNL     1      29.756  64.036  14.093  1.00  0.00     0.177 HD
ENDBRANCH   4  20
BRANCH  11  23
HETATM   23  C10 UNL     1      28.936  66.677   6.447  1.00  0.00     0.068 C 
BRANCH  23  24
HETATM   24  C11 UNL     1      29.186  65.640   5.419  1.00  0.00     0.168 C 
BRANCH  24  25
HETATM   25  O1  UNL     1      29.305  64.349   5.824  1.00  0.00    -0.401 OA
ATOM     26  H1  UNL     1      30.141  63.915   5.701  1.00  0.00     0.209 HD
ENDBRANCH  24  25
ENDBRANCH  23  24
ENDBRANCH  11  23
TORSDOF 6
ENDMDL
MODEL 5
REMARK VINA RESULT: -6.118003377      2.310      4.231
REMARK  6 active torsions:
REMARK  status: ('A' for Active; 'I' for Inactive)
REMARK    1  A    between atoms: C2_2  and  N1_3 
REMARK    2  A    between atoms: N1_3  and  C3_5 
REMARK    3  A    between atoms: C4_8  and  N3_9 
REMARK    4  A    between atoms: C9_18  and  C10_19 
REMARK    5  A    between atoms: C10_19  and  C11_20 
REMARK    6  A    between atoms: C11_20  and  O1_21 
ROOT
HETATM    1  C3  UNL     1      29.452  65.684   9.770  1.00  0.00     0.133 A 
HETATM    2  N2  UNL     1      29.428  66.198   8.513  1.00  0.00    -0.176 N 
ATOM      3  H2  UNL     1      30.291  66.570   8.117  1.00  0.00     0.186 HD
HETATM    4  C4  UNL     1      28.308  66.233   7.771  1.00  0.00     0.680 A 
HETATM    5  N4  UNL     1      27.180  65.741   8.302  1.00  0.00    -0.175 N 
ATOM      6  H4  UNL     1      26.324  65.763   7.748  1.00  0.00     0.186 HD
HETATM    7  C6  UNL     1      27.139  65.221   9.538  1.00  0.00     0.139 A 
HETATM    8  C7  UNL     1      28.297  65.187  10.297  1.00  0.00     0.078 A 
HETATM    9  C8  UNL     1      28.237  64.640  11.583  1.00  0.00     0.072 A 
HETATM   10  N5  UNL     1      29.445  64.612  12.326  1.00  0.00    -0.101 NA
HETATM   11  C9  UNL     1      27.057  64.136  12.107  1.00  0.00    -0.008 A 
HETATM   12  C12 UNL     1      25.956  64.210  11.284  1.00  0.00     0.017 A 
HETATM   13  C13 UNL     1      24.659  63.721  11.775  1.00  0.00     0.069 C 
HETATM   14  N6  UNL     1      25.979  64.731  10.039  1.00  0.00    -0.340 N 
HETATM   15  C14 UNL     1      24.757  64.746   9.228  1.00  0.00     0.158 C 
ENDROOT
BRANCH   1  16
HETATM   16  N1  UNL     1      30.531  65.655  10.464  1.00  0.00    -0.375 N 
ATOM     17  H1  UNL     1      30.515  65.871  11.460  1.00  0.00     0.161 HD
BRANCH  16  18
HETATM   18  C2  UNL     1      31.772  65.308   9.806  1.00  0.00     0.116 C 
HETATM   19  C1  UNL     1      32.564  66.549   9.429  1.00  0.00     0.026 C 
ENDBRANCH  16  18
ENDBRANCH   1  16
BRANCH   4  20
HETATM   20  N3  UNL     1      28.309  66.730   6.569  1.00  0.00    -0.230 N 
HETATM   21  C5  UNL     1      29.488  66.554   5.749  1.00  0.00     0.165 C 
ATOM     22  H3  UNL     1      27.497  67.233   6.212  1.00  0.00     0.177 HD
ENDBRANCH   4  20
BRANCH  11  23
HETATM   23  C10 UNL     1      26.971  63.566  13.442  1.00  0.00     0.068 C 
BRANCH  23  24
HETATM   24  C11 UNL     1      26.942  64.498  14.592  1.00  0.00     0.168 C 
BRANCH  24  25
HETATM   25  O1  UNL     1      27.220  64.005  15.826  1.00  0.00    -0.401 OA
ATOM     26  H1  UNL     1      26.681  63.297  16.159  1.00  0.00     0.209 HD
ENDBRANCH  24  25
ENDBRANCH  23  24
ENDBRANCH  11  23
TORSDOF 6
ENDMDL
