MODEL 1
REMARK VINA RESULT: -7.126629256      0.000      0.000
REMARK  7 active torsions:
REMARK  status: ('A' for Active; 'I' for Inactive)
REMARK    1  A    between atoms: C2_2  and  N1_3 
REMARK    2  A    between atoms: N1_3  and  C3_5 
REMARK    3  A    between atoms: C4_8  and  N3_9 
REMARK    4  A    between atoms: N3_9  and  C5_11 
REMARK    5  A    between atoms: C5_11  and  N4_13 
REMARK    6  A    between atoms: N4_13  and  C6_15 
REMARK    7  A    between atoms: C6_15  and  C7_16 
ROOT
HETATM    1  C3  UNL     1      28.549  66.357   7.770  1.00  0.00     0.695 C 
HETATM    2  N2  UNL     1      28.943  65.646   8.849  1.00  0.00    -0.022 N 
ATOM      3  H2  UNL     1      28.247  65.003   9.225  1.00  0.00     0.203 HD
HETATM    4  C4  UNL     1      30.122  65.663   9.498  1.00  0.00     0.702 C 
HETATM    5  N5  UNL     1      31.268  66.197   9.061  1.00  0.00    -0.151 N 
ATOM      6  H5  UNL     1      32.051  66.147   9.713  1.00  0.00     0.188 HD
HETATM    7  C10 UNL     1      31.538  66.801   7.864  1.00  0.00     0.328 C 
HETATM    8  O1  UNL     1      32.699  67.240   7.707  1.00  0.00    -0.261 OA
HETATM    9  C11 UNL     1      30.675  66.982   6.806  1.00  0.00     0.328 C 
HETATM   10  O2  UNL     1      31.164  67.304   5.694  1.00  0.00    -0.261 OA
HETATM   11  N6  UNL     1      29.338  66.861   6.789  1.00  0.00    -0.151 N 
ATOM     12  H6  UNL     1      28.864  67.184   5.946  1.00  0.00     0.188 HD
ENDROOT
BRANCH   4  13
HETATM   13  N3  UNL     1      30.105  65.100  10.644  1.00  0.00    -0.166 N 
ATOM     14  H3  UNL     1      30.877  64.483  10.892  1.00  0.00     0.186 HD
BRANCH  13  15
HETATM   15  C5  UNL     1      29.061  65.292  11.597  1.00  0.00     0.186 C 
HETATM   16  S1  UNL     1      28.527  66.781  11.992  1.00  0.00    -0.040 SA
BRANCH  15  17
HETATM   17  N4  UNL     1      28.484  64.157  12.205  1.00  0.00    -0.366 N 
ATOM     18  H4  UNL     1      28.701  63.917  13.172  1.00  0.00     0.161 HD
BRANCH  17  19
HETATM   19  C6  UNL     1      27.582  63.345  11.427  1.00  0.00     0.126 C 
BRANCH  19  20
HETATM   20  C7  UNL     1      26.155  63.796  11.513  1.00  0.00    -0.005 C 
HETATM   21  C8  UNL     1      25.742  63.710  12.986  1.00  0.00     0.011 C 
HETATM   22  C9  UNL     1      25.199  62.962  10.739  1.00  0.00     0.011 C 
ENDBRANCH  19  20
ENDBRANCH  17  19
ENDBRANCH  15  17
ENDBRANCH  13  15
ENDBRANCH   4  13
BRANCH   1  23
HETATM   23  N1  UNL     1      27.292  66.581   7.664  1.00  0.00    -0.226 N 
ATOM     24  H1  UNL     1      26.937  67.186   6.924  1.00  0.00     0.177 HD
BRANCH  23  25
HETATM   25  C2  UNL     1      26.386  65.967   8.601  1.00  0.00     0.133 C 
HETATM   26  C1  UNL     1      25.507  65.019   7.773  1.00  0.00     0.027 C 
ENDBRANCH  23  25
ENDBRANCH   1  23
TORSDOF 7
ENDMDL
MODEL 2
REMARK VINA RESULT: -6.930431202      0.921      1.396
REMARK  7 active torsions:
REMARK  status: ('A' for Active; 'I' for Inactive)
REMARK    1  A    between atoms: C2_2  and  N1_3 
REMARK    2  A    between atoms: N1_3  and  C3_5 
REMARK    3  A    between atoms: C4_8  and  N3_9 
REMARK    4  A    between atoms: N3_9  and  C5_11 
REMARK    5  A    between atoms: C5_11  and  N4_13 
REMARK    6  A    between atoms: N4_13  and  C6_15 
REMARK    7  A    between atoms: C6_15  and  C7_16 
ROOT
HETATM    1  C3  UNL     1      28.361  66.294   7.549  1.00  0.00     0.695 C 
HETATM    2  N2  UNL     1      28.662  65.488   8.590  1.00  0.00    -0.022 N 
ATOM      3  H2  UNL     1      27.935  64.820   8.849  1.00  0.00     0.203 HD
HETATM    4  C4  UNL     1      29.782  65.437   9.334  1.00  0.00     0.702 C 
HETATM    5  N5  UNL     1      30.962  65.997   9.043  1.00  0.00    -0.151 N 
ATOM      6  H5  UNL     1      31.688  65.883   9.751  1.00  0.00     0.188 HD
HETATM    7  C10 UNL     1      31.332  66.701   7.930  1.00  0.00     0.328 C 
HETATM    8  O1  UNL     1      32.503  67.141   7.909  1.00  0.00    -0.261 OA
HETATM    9  C11 UNL     1      30.561  66.981   6.823  1.00  0.00     0.328 C 
HETATM   10  O2  UNL     1      31.142  67.395   5.789  1.00  0.00    -0.261 OA
HETATM   11  N6  UNL     1      29.231  66.874   6.685  1.00  0.00    -0.151 N 
ATOM     12  H6  UNL     1      28.829  67.273   5.836  1.00  0.00     0.188 HD
ENDROOT
BRANCH   4  13
HETATM   13  N3  UNL     1      29.668  64.777  10.422  1.00  0.00    -0.166 N 
ATOM     14  H3  UNL     1      29.952  63.798  10.426  1.00  0.00     0.186 HD
BRANCH  13  15
HETATM   15  C5  UNL     1      29.164  65.340  11.631  1.00  0.00     0.186 C 
HETATM   16  S1  UNL     1      28.514  66.834  11.673  1.00  0.00    -0.040 SA
BRANCH  15  17
HETATM   17  N4  UNL     1      29.236  64.573  12.814  1.00  0.00    -0.366 N 
ATOM     18  H4  UNL     1      29.905  64.807  13.547  1.00  0.00     0.161 HD
BRANCH  17  19
HETATM   19  C6  UNL     1      28.341  63.453  12.961  1.00  0.00     0.126 C 
BRANCH  19  20
HETATM   20  C7  UNL     1      27.258  63.688  13.972  1.00  0.00    -0.005 C 
HETATM   21  C8  UNL     1      25.971  63.984  13.194  1.00  0.00     0.011 C 
HETATM   22  C9  UNL     1      27.501  64.842  14.876  1.00  0.00     0.011 C 
ENDBRANCH  19  20
ENDBRANCH  17  19
ENDBRANCH  15  17
ENDBRANCH  13  15
ENDBRANCH   4  13
BRANCH   1  23
HETATM   23  N1  UNL     1      27.118  66.537   7.358  1.00  0.00    -0.226 N 
ATOM     24  H1  UNL     1      26.809  67.004   6.505  1.00  0.00     0.177 HD
BRANCH  23  25
HETATM   25  C2  UNL     1      26.161  66.144   8.361  1.00  0.00     0.133 C 
HETATM   26  C1  UNL     1      25.379  64.970   7.755  1.00  0.00     0.027 C 
ENDBRANCH  23  25
ENDBRANCH   1  23
TORSDOF 7
ENDMDL
MODEL 3
REMARK VINA RESULT: -6.754376149      1.276      3.350
REMARK  7 active torsions:
REMARK  status: ('A' for Active; 'I' for Inactive)
REMARK    1  A    between atoms: C2_2  and  N1_3 
REMARK    2  A    between atoms: N1_3  and  C3_5 
REMARK    3  A    between atoms: C4_8  and  N3_9 
REMARK    4  A    between atoms: N3_9  and  C5_11 
REMARK    5  A    between atoms: C5_11  and  N4_13 
REMARK    6  A    between atoms: N4_13  and  C6_15 
REMARK    7  A    between atoms: C6_15  and  C7_16 
ROOT
HETATM    1  C3  UNL     1      30.037  65.852  10.005  1.00  0.00     0.695 C 
HETATM    2  N2  UNL     1      28.904  66.300   9.421  1.00  0.00    -0.022 N 
ATOM      3  H2  UNL     1      28.106  66.413  10.047  1.00  0.00     0.203 HD
HETATM    4  C4  UNL     1      28.675  66.619   8.134  1.00  0.00     0.702 C 
HETATM    5  N5  UNL     1      29.596  66.819   7.184  1.00  0.00    -0.151 N 
ATOM      6  H5  UNL     1      29.229  67.015   6.253  1.00  0.00     0.188 HD
HETATM    7  C10 UNL     1      30.960  66.796   7.285  1.00  0.00     0.328 C 
HETATM    8  O1  UNL     1      31.603  66.997   6.231  1.00  0.00    -0.261 OA
HETATM    9  C11 UNL     1      31.710  66.577   8.419  1.00  0.00     0.328 C 
HETATM   10  O2  UNL     1      32.933  66.863   8.382  1.00  0.00    -0.261 OA
HETATM   11  N6  UNL     1      31.311  66.082   9.601  1.00  0.00    -0.151 N 
ATOM     12  H6  UNL     1      32.047  65.853  10.269  1.00  0.00     0.188 HD
ENDROOT
BRANCH   4  13
HETATM   13  N3  UNL     1      27.441  66.736   7.827  1.00  0.00    -0.166 N 
ATOM     14  H3  UNL     1      27.201  67.233   6.969  1.00  0.00     0.186 HD
BRANCH  13  15
HETATM   15  C5  UNL     1      26.382  66.208   8.621  1.00  0.00     0.186 C 
HETATM   16  S1  UNL     1      25.687  67.080   9.810  1.00  0.00    -0.040 SA
BRANCH  15  17
HETATM   17  N4  UNL     1      25.932  64.896   8.361  1.00  0.00    -0.366 N 
ATOM     18  H4  UNL     1      26.309  64.361   7.579  1.00  0.00     0.161 HD
BRANCH  17  19
HETATM   19  C6  UNL     1      24.928  64.330   9.228  1.00  0.00     0.126 C 
BRANCH  19  20
HETATM   20  C7  UNL     1      25.478  63.325  10.195  1.00  0.00    -0.005 C 
HETATM   21  C8  UNL     1      25.014  61.942   9.722  1.00  0.00     0.011 C 
HETATM   22  C9  UNL     1      25.004  63.493  11.593  1.00  0.00     0.011 C 
ENDBRANCH  19  20
ENDBRANCH  17  19
ENDBRANCH  15  17
ENDBRANCH  13  15
ENDBRANCH   4  13
BRANCH   1  23
HETATM   23  N1  UNL     1      29.891  65.131  11.054  1.00  0.00    -0.226 N 
ATOM     24  H1  UNL     1      30.700  64.700  11.499  1.00  0.00     0.177 HD
BRANCH  23  25
HETATM   25  C2  UNL     1      28.571  64.938  11.597  1.00  0.00     0.133 C 
HETATM   26  C1  UNL     1      28.778  64.423  13.028  1.00  0.00     0.027 C 
ENDBRANCH  23  25
ENDBRANCH   1  23
TORSDOF 7
ENDMDL
MODEL 4
REMARK VINA RESULT: -6.687818611      1.769      2.504
REMARK  7 active torsions:
REMARK  status: ('A' for Active; 'I' for Inactive)
REMARK    1  A    between atoms: C2_2  and  N1_3 
REMARK    2  A    between atoms: N1_3  and  C3_5 
REMARK    3  A    between atoms: C4_8  and  N3_9 
REMARK    4  A    between atoms: N3_9  and  C5_11 
REMARK    5  A    between atoms: C5_11  and  N4_13 
REMARK    6  A    between atoms: N4_13  and  C6_15 
REMARK    7  A    between atoms: C6_15  and  C7_16 
ROOT
HETATM    1  C3  UNL     1      28.547  66.358   7.832  1.00  0.00     0.695 C 
HETATM    2  N2  UNL     1      28.932  65.630   8.902  1.00  0.00    -0.022 N 
ATOM      3  H2  UNL     1      28.228  64.990   9.271  1.00  0.00     0.203 HD
HETATM    4  C4  UNL     1      30.110  65.625   9.552  1.00  0.00     0.702 C 
HETATM    5  N5  UNL     1      31.263  66.151   9.122  1.00  0.00    -0.151 N 
ATOM      6  H5  UNL     1      32.045  66.085   9.773  1.00  0.00     0.188 HD
HETATM    7  C10 UNL     1      31.540  66.766   7.932  1.00  0.00     0.328 C 
HETATM    8  O1  UNL     1      32.706  67.193   7.780  1.00  0.00    -0.261 OA
HETATM    9  C11 UNL     1      30.680  66.969   6.875  1.00  0.00     0.328 C 
HETATM   10  O2  UNL     1      31.173  67.299   5.768  1.00  0.00    -0.261 OA
HETATM   11  N6  UNL     1      29.342  66.864   6.857  1.00  0.00    -0.151 N 
ATOM     12  H6  UNL     1      28.872  67.202   6.017  1.00  0.00     0.188 HD
ENDROOT
BRANCH   4  13
HETATM   13  N3  UNL     1      30.087  65.050  10.692  1.00  0.00    -0.166 N 
ATOM     14  H3  UNL     1      30.870  64.449  10.947  1.00  0.00     0.186 HD
BRANCH  13  15
HETATM   15  C5  UNL     1      29.021  65.205  11.627  1.00  0.00     0.186 C 
HETATM   16  S1  UNL     1      27.878  64.059  11.817  1.00  0.00    -0.040 SA
BRANCH  15  17
HETATM   17  N4  UNL     1      28.966  66.384  12.399  1.00  0.00    -0.366 N 
ATOM     18  H4  UNL     1      29.791  66.723  12.894  1.00  0.00     0.161 HD
BRANCH  17  19
HETATM   19  C6  UNL     1      27.716  67.099  12.473  1.00  0.00     0.126 C 
BRANCH  19  20
HETATM   20  C7  UNL     1      27.655  68.282  11.554  1.00  0.00    -0.005 C 
HETATM   21  C8  UNL     1      28.323  69.454  12.281  1.00  0.00     0.011 C 
HETATM   22  C9  UNL     1      26.278  68.713  11.198  1.00  0.00     0.011 C 
ENDBRANCH  19  20
ENDBRANCH  17  19
ENDBRANCH  15  17
ENDBRANCH  13  15
ENDBRANCH   4  13
BRANCH   1  23
HETATM   23  N1  UNL     1      27.292  66.598   7.728  1.00  0.00    -0.226 N 
ATOM     24  H1  UNL     1      26.945  67.219   6.997  1.00  0.00     0.177 HD
BRANCH  23  25
HETATM   25  C2  UNL     1      26.379  65.980   8.654  1.00  0.00     0.133 C 
HETATM   26  C1  UNL     1      25.517  65.024   7.816  1.00  0.00     0.027 C 
ENDBRANCH  23  25
ENDBRANCH   1  23
TORSDOF 7
ENDMDL
MODEL 5
REMARK VINA RESULT: -6.580119384      3.268      6.173
REMARK  7 active torsions:
REMARK  status: ('A' for Active; 'I' for Inactive)
REMARK    1  A    between atoms: C2_2  and  N1_3 
REMARK    2  A    between atoms: N1_3  and  C3_5 
REMARK    3  A    between atoms: C4_8  and  N3_9 
REMARK    4  A    between atoms: N3_9  and  C5_11 
REMARK    5  A    between atoms: C5_11  and  N4_13 
REMARK    6  A    between atoms: N4_13  and  C6_15 
REMARK    7  A    between atoms: C6_15  and  C7_16 
ROOT
HETATM    1  C3  UNL     1      26.203  63.613  11.869  1.00  0.00     0.695 C 
HETATM    2  N2  UNL     1      26.711  64.799  11.470  1.00  0.00    -0.022 N 
ATOM      3  H2  UNL     1      27.438  65.187  12.072  1.00  0.00     0.203 HD
HETATM    4  C4  UNL     1      26.399  65.543  10.393  1.00  0.00     0.702 C 
HETATM    5  N5  UNL     1      25.697  65.147   9.324  1.00  0.00    -0.151 N 
ATOM      6  H5  UNL     1      25.526  65.866   8.621  1.00  0.00     0.188 HD
HETATM    7  C10 UNL     1      25.174  63.915   9.043  1.00  0.00     0.328 C 
HETATM    8  O1  UNL     1      24.534  63.809   7.973  1.00  0.00    -0.261 OA
HETATM    9  C11 UNL     1      25.273  62.771   9.804  1.00  0.00     0.328 C 
HETATM   10  O2  UNL     1      24.974  61.676   9.265  1.00  0.00    -0.261 OA
HETATM   11  N6  UNL     1      25.655  62.652  11.085  1.00  0.00    -0.151 N 
ATOM     12  H6  UNL     1      25.518  61.738  11.517  1.00  0.00     0.188 HD
ENDROOT
BRANCH   4  13
HETATM   13  N3  UNL     1      26.836  66.742  10.429  1.00  0.00    -0.166 N 
ATOM     14  H3  UNL     1      26.167  67.496  10.581  1.00  0.00     0.186 HD
BRANCH  13  15
HETATM   15  C5  UNL     1      28.212  67.080  10.269  1.00  0.00     0.186 C 
HETATM   16  S1  UNL     1      29.154  67.455  11.545  1.00  0.00    -0.040 SA
BRANCH  15  17
HETATM   17  N4  UNL     1      28.759  67.087   8.968  1.00  0.00    -0.366 N 
ATOM     18  H4  UNL     1      28.504  67.813   8.299  1.00  0.00     0.161 HD
BRANCH  17  19
HETATM   19  C6  UNL     1      29.687  66.043   8.609  1.00  0.00     0.126 C 
BRANCH  19  20
HETATM   20  C7  UNL     1      30.099  66.088   7.168  1.00  0.00    -0.005 C 
HETATM   21  C8  UNL     1      31.320  67.010   7.076  1.00  0.00     0.011 C 
HETATM   22  C9  UNL     1      29.066  66.632   6.249  1.00  0.00     0.011 C 
ENDBRANCH  19  20
ENDBRANCH  17  19
ENDBRANCH  15  17
ENDBRANCH  13  15
ENDBRANCH   4  13
BRANCH   1  23
HETATM   23  N1  UNL     1      26.242  63.371  13.127  1.00  0.00    -0.226 N 
ATOM     24  H1  UNL     1      25.418  63.011  13.608  1.00  0.00     0.177 HD
BRANCH  23  25
HETATM   25  C2  UNL     1      27.463  63.614  13.852  1.00  0.00     0.133 C 
HETATM   26  C1  UNL     1      27.065  64.462  15.068  1.00  0.00     0.027 C 
ENDBRANCH  23  25
ENDBRANCH   1  23
TORSDOF 7
ENDMDL
