MODEL 1
REMARK VINA RESULT: -7.557256725      0.000      0.000
REMARK  4 active torsions:
REMARK  status: ('A' for Active; 'I' for Inactive)
REMARK    1  A    between atoms: C3_5  and  C4_6 
REMARK    2  A    between atoms: C4_6  and  C5_7 
REMARK    3  A    between atoms: C6_10  and  C7_11 
REMARK    4  A    between atoms: C7_11  and  C9_16 
ROOT
HETATM    1  C7  UNL     1      26.787  64.796  10.714  1.00  0.00     0.072 C 
HETATM    2  N3  UNL     1      26.782  63.837  11.491  1.00  0.00    -0.292 N 
ATOM      3  H3  UNL     1      25.951  63.292  11.263  1.00  0.00     0.178 HD
HETATM    4  C8  UNL     1      27.355  63.225  12.455  1.00  0.00     0.182 C 
HETATM    5  N4  UNL     1      27.850  62.659  13.325  1.00  0.00    -0.172 NA
ENDROOT
BRANCH   1   6
HETATM    6  C6  UNL     1      27.781  65.835  10.660  1.00  0.00     0.027 A 
HETATM    7  C3  UNL     1      29.090  65.951  10.246  1.00  0.00     0.050 A 
HETATM    8  N1  UNL     1      29.797  66.847  10.910  1.00  0.00    -0.356 N 
HETATM    9  C2  UNL     1      29.013  67.420  11.835  1.00  0.00     0.030 A 
ATOM     10  H1  UNL     1      30.779  67.067  10.746  1.00  0.00     0.166 HD
HETATM   11  C1  UNL     1      29.367  68.366  12.686  1.00  0.00     0.043 C 
HETATM   12  C13 UNL     1      27.771  66.827  11.720  1.00  0.00    -0.021 A 
HETATM   13  C14 UNL     1      26.739  67.068  12.748  1.00  0.00     0.051 C 
BRANCH   7  14
HETATM   14  C4  UNL     1      29.540  65.248   9.192  1.00  0.00     0.101 C 
BRANCH  14  15
HETATM   15  C5  UNL     1      29.650  65.721   7.853  1.00  0.00     0.256 C 
HETATM   16  N2  UNL     1      29.318  65.050   6.673  1.00  0.00    -0.058 NA
HETATM   17  O1  UNL     1      30.114  66.926   7.710  1.00  0.00    -0.272 OA
ENDBRANCH  14  15
ENDBRANCH   7  14
ENDBRANCH   1   6
BRANCH   1  18
HETATM   18  C9  UNL     1      25.744  64.638   9.627  1.00  0.00     0.085 A 
HETATM   19  C10 UNL     1      24.941  65.635   9.145  1.00  0.00     0.040 A 
HETATM   20  C11 UNL     1      25.123  67.111   9.325  1.00  0.00     0.071 C 
HETATM   21  N5  UNL     1      23.933  65.079   8.466  1.00  0.00    -0.301 N 
HETATM   22  N6  UNL     1      24.046  63.780   8.488  1.00  0.00    -0.266 N 
ATOM     23  H5  UNL     1      23.187  65.594   8.000  1.00  0.00     0.186 HD
HETATM   24  C12 UNL     1      25.167  63.471   9.209  1.00  0.00     0.274 A 
ATOM     25  H6  UNL     1      23.412  63.114   8.048  1.00  0.00     0.190 HD
HETATM   26  O2  UNL     1      25.447  62.262   9.366  1.00  0.00    -0.266 OA
ENDBRANCH   1  18
TORSDOF 4
ENDMDL
MODEL 2
REMARK VINA RESULT: -7.550528230      2.455      4.231
REMARK  4 active torsions:
REMARK  status: ('A' for Active; 'I' for Inactive)
REMARK    1  A    between atoms: C3_5  and  C4_6 
REMARK    2  A    between atoms: C4_6  and  C5_7 
REMARK    3  A    between atoms: C6_10  and  C7_11 
REMARK    4  A    between atoms: C7_11  and  C9_16 
ROOT
HETATM    1  C7  UNL     1      27.882  65.771  10.457  1.00  0.00     0.072 C 
HETATM    2  N3  UNL     1      27.557  66.769  11.107  1.00  0.00    -0.292 N 
ATOM      3  H3  UNL     1      26.995  66.428  11.888  1.00  0.00     0.178 HD
HETATM    4  C8  UNL     1      27.611  68.038  11.236  1.00  0.00     0.182 C 
HETATM    5  N4  UNL     1      27.642  69.180  11.370  1.00  0.00    -0.172 NA
ENDROOT
BRANCH   1   6
HETATM    6  C6  UNL     1      28.689  65.764   9.266  1.00  0.00     0.027 A 
HETATM    7  C3  UNL     1      29.971  66.131   8.922  1.00  0.00     0.050 A 
HETATM    8  N1  UNL     1      30.109  66.531   7.671  1.00  0.00    -0.356 N 
HETATM    9  C2  UNL     1      28.917  66.463   7.059  1.00  0.00     0.030 A 
ATOM     10  H1  UNL     1      30.979  66.842   7.240  1.00  0.00     0.166 HD
HETATM   11  C1  UNL     1      28.661  66.776   5.802  1.00  0.00     0.043 C 
HETATM   12  C13 UNL     1      28.018  66.002   8.001  1.00  0.00    -0.021 A 
HETATM   13  C14 UNL     1      26.569  66.032   7.717  1.00  0.00     0.051 C 
BRANCH   7  14
HETATM   14  C4  UNL     1      30.982  65.994   9.797  1.00  0.00     0.101 C 
BRANCH  14  15
HETATM   15  C5  UNL     1      32.370  65.969   9.479  1.00  0.00     0.256 C 
HETATM   16  N2  UNL     1      33.049  66.738   8.529  1.00  0.00    -0.058 NA
HETATM   17  O1  UNL     1      33.096  65.130  10.154  1.00  0.00    -0.272 OA
ENDBRANCH  14  15
ENDBRANCH   7  14
ENDBRANCH   1   6
BRANCH   1  18
HETATM   18  C9  UNL     1      27.541  64.491  11.192  1.00  0.00     0.085 A 
HETATM   19  C10 UNL     1      26.336  63.847  11.150  1.00  0.00     0.040 A 
HETATM   20  C11 UNL     1      25.234  64.052  10.156  1.00  0.00     0.071 C 
HETATM   21  N5  UNL     1      26.282  62.976  12.162  1.00  0.00    -0.301 N 
HETATM   22  N6  UNL     1      27.388  63.029  12.852  1.00  0.00    -0.266 N 
ATOM     23  H5  UNL     1      25.494  62.361  12.364  1.00  0.00     0.186 HD
HETATM   24  C12 UNL     1      28.196  63.969  12.274  1.00  0.00     0.274 A 
ATOM     25  H6  UNL     1      27.610  62.469  13.675  1.00  0.00     0.190 HD
HETATM   26  O2  UNL     1      29.308  64.188  12.801  1.00  0.00    -0.266 OA
ENDBRANCH   1  18
TORSDOF 4
ENDMDL
MODEL 3
REMARK VINA RESULT: -7.409021687      1.898      4.765
REMARK  4 active torsions:
REMARK  status: ('A' for Active; 'I' for Inactive)
REMARK    1  A    between atoms: C3_5  and  C4_6 
REMARK    2  A    between atoms: C4_6  and  C5_7 
REMARK    3  A    between atoms: C6_10  and  C7_11 
REMARK    4  A    between atoms: C7_11  and  C9_16 
ROOT
HETATM    1  C7  UNL     1      27.796  66.332  10.165  1.00  0.00     0.072 C 
HETATM    2  N3  UNL     1      27.442  67.505  10.315  1.00  0.00    -0.292 N 
ATOM      3  H3  UNL     1      27.976  68.051   9.639  1.00  0.00     0.178 HD
HETATM    4  C8  UNL     1      26.704  68.339  10.941  1.00  0.00     0.182 C 
HETATM    5  N4  UNL     1      26.053  69.108  11.494  1.00  0.00    -0.172 NA
ENDROOT
BRANCH   1   6
HETATM    6  C6  UNL     1      27.302  65.199  10.902  1.00  0.00     0.027 A 
HETATM    7  C3  UNL     1      26.105  64.529  11.026  1.00  0.00     0.050 A 
HETATM    8  N1  UNL     1      25.911  63.971  12.207  1.00  0.00    -0.356 N 
HETATM    9  C2  UNL     1      26.975  64.217  12.985  1.00  0.00     0.030 A 
ATOM     10  H1  UNL     1      25.086  63.439  12.484  1.00  0.00     0.166 HD
HETATM   11  C1  UNL     1      27.148  63.814  14.230  1.00  0.00     0.043 C 
HETATM   12  C13 UNL     1      27.850  64.970  12.226  1.00  0.00    -0.021 A 
HETATM   13  C14 UNL     1      29.022  65.605  12.861  1.00  0.00     0.051 C 
BRANCH   7  14
HETATM   14  C4  UNL     1      25.273  64.410   9.977  1.00  0.00     0.101 C 
BRANCH  14  15
HETATM   15  C5  UNL     1      24.969  63.206   9.280  1.00  0.00     0.256 C 
HETATM   16  N2  UNL     1      25.359  61.903   9.604  1.00  0.00    -0.058 NA
HETATM   17  O1  UNL     1      24.239  63.331   8.213  1.00  0.00    -0.272 OA
ENDBRANCH  14  15
ENDBRANCH   7  14
ENDBRANCH   1   6
BRANCH   1  18
HETATM   18  C9  UNL     1      28.651  66.162   8.926  1.00  0.00     0.085 A 
HETATM   19  C10 UNL     1      28.189  65.847   7.679  1.00  0.00     0.040 A 
HETATM   20  C11 UNL     1      26.775  65.924   7.190  1.00  0.00     0.071 C 
HETATM   21  N5  UNL     1      29.221  65.444   6.931  1.00  0.00    -0.301 N 
HETATM   22  N6  UNL     1      30.319  65.482   7.633  1.00  0.00    -0.266 N 
ATOM     23  H5  UNL     1      29.159  65.151   5.956  1.00  0.00     0.186 HD
HETATM   24  C12 UNL     1      29.998  65.924   8.887  1.00  0.00     0.274 A 
ATOM     25  H6  UNL     1      31.251  65.228   7.306  1.00  0.00     0.190 HD
HETATM   26  O2  UNL     1      30.917  66.016   9.729  1.00  0.00    -0.266 OA
ENDBRANCH   1  18
TORSDOF 4
ENDMDL
MODEL 4
REMARK VINA RESULT: -7.360023814      2.720      5.097
REMARK  4 active torsions:
REMARK  status: ('A' for Active; 'I' for Inactive)
REMARK    1  A    between atoms: C3_5  and  C4_6 
REMARK    2  A    between atoms: C4_6  and  C5_7 
REMARK    3  A    between atoms: C6_10  and  C7_11 
REMARK    4  A    between atoms: C7_11  and  C9_16 
ROOT
HETATM    1  C7  UNL     1      28.716  66.063   9.248  1.00  0.00     0.072 C 
HETATM    2  N3  UNL     1      28.915  64.955   9.754  1.00  0.00    -0.292 N 
ATOM      3  H3  UNL     1      29.778  64.605   9.336  1.00  0.00     0.178 HD
HETATM    4  C8  UNL     1      28.522  64.052  10.566  1.00  0.00     0.182 C 
HETATM    5  N4  UNL     1      28.185  63.223  11.288  1.00  0.00    -0.172 NA
ENDROOT
BRANCH   1   6
HETATM    6  C6  UNL     1      27.612  66.939   9.541  1.00  0.00     0.027 A 
HETATM    7  C3  UNL     1      27.227  67.753  10.584  1.00  0.00     0.050 A 
HETATM    8  N1  UNL     1      25.920  67.885  10.721  1.00  0.00    -0.356 N 
HETATM    9  C2  UNL     1      25.308  67.167   9.768  1.00  0.00     0.030 A 
ATOM     10  H1  UNL     1      25.452  68.443  11.435  1.00  0.00     0.166 HD
HETATM   11  C1  UNL     1      24.006  67.059   9.581  1.00  0.00     0.043 C 
HETATM   12  C13 UNL     1      26.307  66.568   9.026  1.00  0.00    -0.021 A 
HETATM   13  C14 UNL     1      25.968  65.522   8.039  1.00  0.00     0.051 C 
BRANCH   7  14
HETATM   14  C4  UNL     1      28.144  68.403  11.321  1.00  0.00     0.101 C 
BRANCH  14  15
HETATM   15  C5  UNL     1      28.849  67.874  12.440  1.00  0.00     0.256 C 
HETATM   16  N2  UNL     1      28.659  66.641  13.072  1.00  0.00    -0.058 NA
HETATM   17  O1  UNL     1      29.784  68.628  12.935  1.00  0.00    -0.272 OA
ENDBRANCH  14  15
ENDBRANCH   7  14
ENDBRANCH   1   6
BRANCH   1  18
HETATM   18  C9  UNL     1      29.910  66.533   8.444  1.00  0.00     0.085 A 
HETATM   19  C10 UNL     1      29.928  66.732   7.091  1.00  0.00     0.040 A 
HETATM   20  C11 UNL     1      28.748  66.853   6.177  1.00  0.00     0.071 C 
HETATM   21  N5  UNL     1      31.201  66.803   6.689  1.00  0.00    -0.301 N 
HETATM   22  N6  UNL     1      31.999  66.660   7.711  1.00  0.00    -0.266 N 
ATOM     23  H5  UNL     1      31.504  66.949   5.726  1.00  0.00     0.186 HD
HETATM   24  C12 UNL     1      31.223  66.485   8.824  1.00  0.00     0.274 A 
ATOM     25  H6  UNL     1      33.018  66.674   7.685  1.00  0.00     0.190 HD
HETATM   26  O2  UNL     1      31.802  66.310   9.918  1.00  0.00    -0.266 OA
ENDBRANCH   1  18
TORSDOF 4
ENDMDL
MODEL 5
REMARK VINA RESULT: -7.343430491      2.112      4.726
REMARK  4 active torsions:
REMARK  status: ('A' for Active; 'I' for Inactive)
REMARK    1  A    between atoms: C3_5  and  C4_6 
REMARK    2  A    between atoms: C4_6  and  C5_7 
REMARK    3  A    between atoms: C6_10  and  C7_11 
REMARK    4  A    between atoms: C7_11  and  C9_16 
ROOT
HETATM    1  C7  UNL     1      27.914  65.546  10.891  1.00  0.00     0.072 C 
HETATM    2  N3  UNL     1      27.360  64.477  11.163  1.00  0.00    -0.292 N 
ATOM      3  H3  UNL     1      27.424  64.376  12.176  1.00  0.00     0.178 HD
HETATM    4  C8  UNL     1      26.744  63.442  10.740  1.00  0.00     0.182 C 
HETATM    5  N4  UNL     1      26.191  62.499  10.382  1.00  0.00    -0.172 NA
ENDROOT
BRANCH   1   6
HETATM    6  C6  UNL     1      28.061  66.111   9.575  1.00  0.00     0.027 A 
HETATM    7  C3  UNL     1      27.306  66.182   8.425  1.00  0.00     0.050 A 
HETATM    8  N1  UNL     1      28.012  66.232   7.310  1.00  0.00    -0.356 N 
HETATM    9  C2  UNL     1      29.317  66.202   7.619  1.00  0.00     0.030 A 
ATOM     10  H1  UNL     1      27.628  66.284   6.367  1.00  0.00     0.166 HD
HETATM   11  C1  UNL     1      30.326  66.240   6.769  1.00  0.00     0.043 C 
HETATM   12  C13 UNL     1      29.392  66.123   8.996  1.00  0.00    -0.021 A 
HETATM   13  C14 UNL     1      30.685  65.841   9.651  1.00  0.00     0.051 C 
BRANCH   7  14
HETATM   14  C4  UNL     1      25.967  66.277   8.488  1.00  0.00     0.101 C 
BRANCH  14  15
HETATM   15  C5  UNL     1      25.039  65.233   8.211  1.00  0.00     0.256 C 
HETATM   16  N2  UNL     1      23.710  65.127   8.635  1.00  0.00    -0.058 NA
HETATM   17  O1  UNL     1      25.478  64.259   7.471  1.00  0.00    -0.272 OA
ENDBRANCH  14  15
ENDBRANCH   7  14
ENDBRANCH   1   6
BRANCH   1  18
HETATM   18  C9  UNL     1      28.221  66.350  12.138  1.00  0.00     0.085 A 
HETATM   19  C10 UNL     1      28.269  67.714  12.212  1.00  0.00     0.040 A 
HETATM   20  C11 UNL     1      27.726  68.695  11.219  1.00  0.00     0.071 C 
HETATM   21  N5  UNL     1      28.894  68.057  13.343  1.00  0.00    -0.301 N 
HETATM   22  N6  UNL     1      29.251  66.986  13.995  1.00  0.00    -0.266 N 
ATOM     23  H5  UNL     1      29.066  69.014  13.650  1.00  0.00     0.186 HD
HETATM   24  C12 UNL     1      28.848  65.900  13.267  1.00  0.00     0.274 A 
ATOM     25  H6  UNL     1      29.743  66.961  14.888  1.00  0.00     0.190 HD
HETATM   26  O2  UNL     1      29.114  64.763  13.715  1.00  0.00    -0.266 OA
ENDBRANCH   1  18
TORSDOF 4
ENDMDL
