MODEL 1
REMARK VINA RESULT: -7.165325569      0.000      0.000
REMARK  8 active torsions:
REMARK  status: ('A' for Active; 'I' for Inactive)
REMARK    1  A    between atoms: C2_2  and  N1_3 
REMARK    2  A    between atoms: N1_3  and  C3_5 
REMARK    3  A    between atoms: C3_5  and  N2_7 
REMARK    4  A    between atoms: N2_7  and  C4_9 
REMARK    5  A    between atoms: C5_14  and  N5_15 
REMARK       I    between atoms: N5_15  and  C6_16 
REMARK    6  A    between atoms: C6_16  and  C7_18 
REMARK    7  A    between atoms: C7_18  and  N6_20 
REMARK    8  A    between atoms: C7_18  and  C9_24 
ROOT
HETATM    1  C4  UNL     1      28.100  64.017  12.514  1.00  0.00     0.704 A 
HETATM    2  N3  UNL     1      29.378  64.535  12.519  1.00  0.00    -0.128 N 
ATOM      3  H3  UNL     1      30.015  64.513  13.316  1.00  0.00     0.205 HD
HETATM    4  N4  UNL     1      29.654  65.056  11.361  1.00  0.00    -0.244 N 
ATOM      5  H4  UNL     1      30.528  65.506  11.091  1.00  0.00     0.191 HD
HETATM    6  C5  UNL     1      28.543  64.885  10.569  1.00  0.00     0.294 A 
HETATM    7  N7  UNL     1      27.579  64.230  11.314  1.00  0.00    -0.142 N 
HETATM    8  C11 UNL     1      26.253  63.873  10.798  1.00  0.00     0.180 C 
ENDROOT
BRANCH   6   9
HETATM    9  N5  UNL     1      28.433  65.242   9.429  1.00  0.00    -0.331 NA
HETATM   10  C6  UNL     1      28.327  65.633   8.182  1.00  0.00     0.330 C 
HETATM   11  O1  UNL     1      27.175  65.907   7.672  1.00  0.00    -0.254 OA
BRANCH  10  12
HETATM   12  C7  UNL     1      29.529  65.793   7.255  1.00  0.00     0.213 C 
HETATM   13  C8  UNL     1      29.058  66.668   6.123  1.00  0.00     0.058 C 
BRANCH  12  14
HETATM   14  N6  UNL     1      29.854  64.513   6.746  1.00  0.00    -0.061 N 
ATOM     15  H63 UNL     1      29.425  63.755   7.277  1.00  0.00     0.275 HD
ATOM     16  H62 UNL     1      29.409  64.317   5.849  1.00  0.00     0.275 HD
ATOM     17  H61 UNL     1      30.871  64.444   6.708  1.00  0.00     0.275 HD
ENDBRANCH  12  14
BRANCH  12  18
HETATM   18  C9  UNL     1      30.588  66.432   8.099  1.00  0.00     0.045 C 
HETATM   19  C10 UNL     1      31.818  66.826   7.345  1.00  0.00     0.008 C 
ENDBRANCH  12  18
ENDBRANCH  10  12
ENDBRANCH   6   9
BRANCH   1  20
HETATM   20  N2  UNL     1      27.614  63.456  13.542  1.00  0.00    -0.165 N 
ATOM     21  H2  UNL     1      27.865  62.471  13.640  1.00  0.00     0.186 HD
BRANCH  20  22
HETATM   22  C3  UNL     1      26.804  63.940  14.550  1.00  0.00     0.186 C 
HETATM   23  S1  UNL     1      25.373  64.652  14.210  1.00  0.00    -0.040 SA
BRANCH  22  24
HETATM   24  N1  UNL     1      27.177  63.827  15.935  1.00  0.00    -0.367 N 
ATOM     25  H1  UNL     1      27.909  63.182  16.234  1.00  0.00     0.161 HD
BRANCH  24  26
HETATM   26  C2  UNL     1      26.476  64.659  16.887  1.00  0.00     0.117 C 
HETATM   27  C1  UNL     1      27.446  65.693  17.394  1.00  0.00     0.026 C 
ENDBRANCH  24  26
ENDBRANCH  22  24
ENDBRANCH  20  22
ENDBRANCH   1  20
TORSDOF 8
ENDMDL
MODEL 2
REMARK VINA RESULT: -7.037885676      1.348      1.785
REMARK  8 active torsions:
REMARK  status: ('A' for Active; 'I' for Inactive)
REMARK    1  A    between atoms: C2_2  and  N1_3 
REMARK    2  A    between atoms: N1_3  and  C3_5 
REMARK    3  A    between atoms: C3_5  and  N2_7 
REMARK    4  A    between atoms: N2_7  and  C4_9 
REMARK    5  A    between atoms: C5_14  and  N5_15 
REMARK       I    between atoms: N5_15  and  C6_16 
REMARK    6  A    between atoms: C6_16  and  C7_18 
REMARK    7  A    between atoms: C7_18  and  N6_20 
REMARK    8  A    between atoms: C7_18  and  C9_24 
ROOT
HETATM    1  C4  UNL     1      28.165  63.904  12.349  1.00  0.00     0.704 A 
HETATM    2  N3  UNL     1      29.427  64.459  12.393  1.00  0.00    -0.128 N 
ATOM      3  H3  UNL     1      30.055  64.419  13.195  1.00  0.00     0.205 HD
HETATM    4  N4  UNL     1      29.698  65.041  11.264  1.00  0.00    -0.244 N 
ATOM      5  H4  UNL     1      30.561  65.529  11.025  1.00  0.00     0.191 HD
HETATM    6  C5  UNL     1      28.602  64.874  10.451  1.00  0.00     0.294 A 
HETATM    7  N7  UNL     1      27.650  64.157  11.154  1.00  0.00    -0.142 N 
HETATM    8  C11 UNL     1      26.341  63.785  10.606  1.00  0.00     0.180 C 
ENDROOT
BRANCH   6   9
HETATM    9  N5  UNL     1      28.493  65.280   9.328  1.00  0.00    -0.331 NA
HETATM   10  C6  UNL     1      28.388  65.725   8.099  1.00  0.00     0.330 C 
HETATM   11  O1  UNL     1      27.246  66.091   7.625  1.00  0.00    -0.254 OA
BRANCH  10  12
HETATM   12  C7  UNL     1      29.579  65.842   7.151  1.00  0.00     0.213 C 
HETATM   13  C8  UNL     1      29.106  66.690   6.001  1.00  0.00     0.058 C 
BRANCH  12  14
HETATM   14  N6  UNL     1      29.881  64.543   6.676  1.00  0.00    -0.061 N 
ATOM     15  H63 UNL     1      29.048  63.976   6.516  1.00  0.00     0.275 HD
ATOM     16  H62 UNL     1      30.230  64.543   5.717  1.00  0.00     0.275 HD
ATOM     17  H61 UNL     1      30.531  64.115   7.335  1.00  0.00     0.275 HD
ENDBRANCH  12  14
BRANCH  12  18
HETATM   18  C9  UNL     1      30.658  66.490   7.963  1.00  0.00     0.045 C 
HETATM   19  C10 UNL     1      31.888  66.834   7.185  1.00  0.00     0.008 C 
ENDBRANCH  12  18
ENDBRANCH  10  12
ENDBRANCH   6   9
BRANCH   1  20
HETATM   20  N2  UNL     1      27.685  63.281  13.343  1.00  0.00    -0.165 N 
ATOM     21  H2  UNL     1      28.188  62.427  13.586  1.00  0.00     0.186 HD
BRANCH  20  22
HETATM   22  C3  UNL     1      26.602  63.554  14.155  1.00  0.00     0.186 C 
HETATM   23  S1  UNL     1      26.779  64.411  15.535  1.00  0.00    -0.040 SA
BRANCH  22  24
HETATM   24  N1  UNL     1      25.275  63.110  13.815  1.00  0.00    -0.367 N 
ATOM     25  H1  UNL     1      25.063  62.119  13.698  1.00  0.00     0.161 HD
BRANCH  24  26
HETATM   26  C2  UNL     1      24.255  64.120  13.645  1.00  0.00     0.117 C 
HETATM   27  C1  UNL     1      22.967  63.569  14.196  1.00  0.00     0.026 C 
ENDBRANCH  24  26
ENDBRANCH  22  24
ENDBRANCH  20  22
ENDBRANCH   1  20
TORSDOF 8
ENDMDL
MODEL 3
REMARK VINA RESULT: -6.712341647      1.483      1.890
REMARK  8 active torsions:
REMARK  status: ('A' for Active; 'I' for Inactive)
REMARK    1  A    between atoms: C2_2  and  N1_3 
REMARK    2  A    between atoms: N1_3  and  C3_5 
REMARK    3  A    between atoms: C3_5  and  N2_7 
REMARK    4  A    between atoms: N2_7  and  C4_9 
REMARK    5  A    between atoms: C5_14  and  N5_15 
REMARK       I    between atoms: N5_15  and  C6_16 
REMARK    6  A    between atoms: C6_16  and  C7_18 
REMARK    7  A    between atoms: C7_18  and  N6_20 
REMARK    8  A    between atoms: C7_18  and  C9_24 
ROOT
HETATM    1  C4  UNL     1      28.799  64.762  12.836  1.00  0.00     0.704 A 
HETATM    2  N3  UNL     1      28.489  63.496  12.386  1.00  0.00    -0.128 N 
ATOM      3  H3  UNL     1      28.431  62.665  12.974  1.00  0.00     0.205 HD
HETATM    4  N4  UNL     1      28.283  63.516  11.104  1.00  0.00    -0.244 N 
ATOM      5  H4  UNL     1      28.037  62.720  10.517  1.00  0.00     0.191 HD
HETATM    6  C5  UNL     1      28.458  64.815  10.688  1.00  0.00     0.294 A 
HETATM    7  N7  UNL     1      28.782  65.581  11.794  1.00  0.00    -0.142 N 
HETATM    8  C11 UNL     1      29.043  67.024  11.738  1.00  0.00     0.180 C 
ENDROOT
BRANCH   6   9
HETATM    9  N5  UNL     1      28.347  65.212   9.562  1.00  0.00    -0.331 NA
HETATM   10  C6  UNL     1      28.240  65.649   8.330  1.00  0.00     0.330 C 
HETATM   11  O1  UNL     1      27.091  65.972   7.842  1.00  0.00    -0.254 OA
BRANCH  10  12
HETATM   12  C7  UNL     1      29.437  65.806   7.396  1.00  0.00     0.213 C 
HETATM   13  C8  UNL     1      28.962  66.681   6.266  1.00  0.00     0.058 C 
BRANCH  12  14
HETATM   14  N6  UNL     1      29.757  64.525   6.887  1.00  0.00    -0.061 N 
ATOM     15  H63 UNL     1      30.221  63.930   7.573  1.00  0.00     0.275 HD
ATOM     16  H62 UNL     1      28.934  63.940   6.737  1.00  0.00     0.275 HD
ATOM     17  H61 UNL     1      30.310  64.657   6.040  1.00  0.00     0.275 HD
ENDBRANCH  12  14
BRANCH  12  18
HETATM   18  C9  UNL     1      30.502  66.443   8.234  1.00  0.00     0.045 C 
HETATM   19  C10 UNL     1      31.740  66.808   7.479  1.00  0.00     0.008 C 
ENDBRANCH  12  18
ENDBRANCH  10  12
ENDBRANCH   6   9
BRANCH   1  20
HETATM   20  N2  UNL     1      29.041  64.984  14.061  1.00  0.00    -0.165 N 
ATOM     21  H2  UNL     1      30.003  64.793  14.341  1.00  0.00     0.186 HD
BRANCH  20  22
HETATM   22  C3  UNL     1      28.231  65.439  15.083  1.00  0.00     0.186 C 
HETATM   23  S1  UNL     1      26.717  65.977  14.781  1.00  0.00    -0.040 SA
BRANCH  22  24
HETATM   24  N1  UNL     1      28.676  65.444  16.451  1.00  0.00    -0.367 N 
ATOM     25  H1  UNL     1      28.425  64.690  17.092  1.00  0.00     0.161 HD
BRANCH  24  26
HETATM   26  C2  UNL     1      29.492  66.556  16.886  1.00  0.00     0.117 C 
HETATM   27  C1  UNL     1      30.712  65.992  17.564  1.00  0.00     0.026 C 
ENDBRANCH  24  26
ENDBRANCH  22  24
ENDBRANCH  20  22
ENDBRANCH   1  20
TORSDOF 8
ENDMDL
MODEL 4
REMARK VINA RESULT: -6.685727688      1.399      1.876
REMARK  8 active torsions:
REMARK  status: ('A' for Active; 'I' for Inactive)
REMARK    1  A    between atoms: C2_2  and  N1_3 
REMARK    2  A    between atoms: N1_3  and  C3_5 
REMARK    3  A    between atoms: C3_5  and  N2_7 
REMARK    4  A    between atoms: N2_7  and  C4_9 
REMARK    5  A    between atoms: C5_14  and  N5_15 
REMARK       I    between atoms: N5_15  and  C6_16 
REMARK    6  A    between atoms: C6_16  and  C7_18 
REMARK    7  A    between atoms: C7_18  and  N6_20 
REMARK    8  A    between atoms: C7_18  and  C9_24 
ROOT
HETATM    1  C4  UNL     1      28.852  64.780  12.856  1.00  0.00     0.704 A 
HETATM    2  N3  UNL     1      28.534  63.511  12.420  1.00  0.00    -0.128 N 
ATOM      3  H3  UNL     1      28.483  62.685  13.015  1.00  0.00     0.205 HD
HETATM    4  N4  UNL     1      28.308  63.522  11.141  1.00  0.00    -0.244 N 
ATOM      5  H4  UNL     1      28.052  62.721  10.564  1.00  0.00     0.191 HD
HETATM    6  C5  UNL     1      28.479  64.817  10.712  1.00  0.00     0.294 A 
HETATM    7  N7  UNL     1      28.821  65.591  11.807  1.00  0.00    -0.142 N 
HETATM    8  C11 UNL     1      29.083  67.033  11.736  1.00  0.00     0.180 C 
ENDROOT
BRANCH   6   9
HETATM    9  N5  UNL     1      28.351  65.206   9.585  1.00  0.00    -0.331 NA
HETATM   10  C6  UNL     1      28.227  65.633   8.352  1.00  0.00     0.330 C 
HETATM   11  O1  UNL     1      27.069  65.932   7.871  1.00  0.00    -0.254 OA
BRANCH  10  12
HETATM   12  C7  UNL     1      29.413  65.806   7.407  1.00  0.00     0.213 C 
HETATM   13  C8  UNL     1      28.922  66.691   6.291  1.00  0.00     0.058 C 
BRANCH  12  14
HETATM   14  N6  UNL     1      29.735  64.532   6.880  1.00  0.00    -0.061 N 
ATOM     15  H63 UNL     1      30.592  64.536   6.328  1.00  0.00     0.275 HD
ATOM     16  H62 UNL     1      30.039  63.873   7.597  1.00  0.00     0.275 HD
ATOM     17  H61 UNL     1      28.926  64.201   6.355  1.00  0.00     0.275 HD
ENDBRANCH  12  14
BRANCH  12  18
HETATM   18  C9  UNL     1      30.484  66.440   8.241  1.00  0.00     0.045 C 
HETATM   19  C10 UNL     1      31.713  66.819   7.476  1.00  0.00     0.008 C 
ENDBRANCH  12  18
ENDBRANCH  10  12
ENDBRANCH   6   9
BRANCH   1  20
HETATM   20  N2  UNL     1      29.112  65.012  14.075  1.00  0.00    -0.165 N 
ATOM     21  H2  UNL     1      30.081  64.831  14.339  1.00  0.00     0.186 HD
BRANCH  20  22
HETATM   22  C3  UNL     1      28.316  65.464  15.108  1.00  0.00     0.186 C 
HETATM   23  S1  UNL     1      28.262  67.051  15.495  1.00  0.00    -0.040 SA
BRANCH  22  24
HETATM   24  N1  UNL     1      27.492  64.566  15.873  1.00  0.00    -0.367 N 
ATOM     25  H1  UNL     1      27.892  63.754  16.343  1.00  0.00     0.161 HD
BRANCH  24  26
HETATM   26  C2  UNL     1      26.078  64.856  15.951  1.00  0.00     0.117 C 
HETATM   27  C1  UNL     1      25.477  64.576  14.600  1.00  0.00     0.026 C 
ENDBRANCH  24  26
ENDBRANCH  22  24
ENDBRANCH  20  22
ENDBRANCH   1  20
TORSDOF 8
ENDMDL
MODEL 5
REMARK VINA RESULT: -6.632040596      3.215      6.952
REMARK  8 active torsions:
REMARK  status: ('A' for Active; 'I' for Inactive)
REMARK    1  A    between atoms: C2_2  and  N1_3 
REMARK    2  A    between atoms: N1_3  and  C3_5 
REMARK    3  A    between atoms: C3_5  and  N2_7 
REMARK    4  A    between atoms: N2_7  and  C4_9 
REMARK    5  A    between atoms: C5_14  and  N5_15 
REMARK       I    between atoms: N5_15  and  C6_16 
REMARK    6  A    between atoms: C6_16  and  C7_18 
REMARK    7  A    between atoms: C7_18  and  N6_20 
REMARK    8  A    between atoms: C7_18  and  C9_24 
ROOT
HETATM    1  C4  UNL     1      29.093  66.109   9.672  1.00  0.00     0.704 A 
HETATM    2  N3  UNL     1      30.084  65.784  10.574  1.00  0.00    -0.128 N 
ATOM      3  H3  UNL     1      31.054  66.091  10.513  1.00  0.00     0.205 HD
HETATM    4  N4  UNL     1      29.601  65.028  11.515  1.00  0.00    -0.244 N 
ATOM      5  H4  UNL     1      30.114  64.645  12.308  1.00  0.00     0.191 HD
HETATM    6  C5  UNL     1      28.267  64.844  11.238  1.00  0.00     0.294 A 
HETATM    7  N7  UNL     1      27.969  65.532  10.075  1.00  0.00    -0.142 N 
HETATM    8  C11 UNL     1      26.634  65.567   9.468  1.00  0.00     0.180 C 
ENDROOT
BRANCH   6   9
HETATM    9  N5  UNL     1      27.497  64.199  11.894  1.00  0.00    -0.331 NA
HETATM   10  C6  UNL     1      26.644  63.503  12.606  1.00  0.00     0.330 C 
HETATM   11  O1  UNL     1      27.055  62.610  13.440  1.00  0.00    -0.254 OA
BRANCH  10  12
HETATM   12  C7  UNL     1      25.132  63.688  12.509  1.00  0.00     0.213 C 
HETATM   13  C8  UNL     1      24.850  65.056  13.073  1.00  0.00     0.058 C 
BRANCH  12  14
HETATM   14  N6  UNL     1      24.524  62.712  13.334  1.00  0.00    -0.061 N 
ATOM     15  H63 UNL     1      25.008  61.815  13.309  1.00  0.00     0.275 HD
ATOM     16  H62 UNL     1      24.645  62.903  14.329  1.00  0.00     0.275 HD
ATOM     17  H61 UNL     1      23.544  62.642  13.060  1.00  0.00     0.275 HD
ENDBRANCH  12  14
BRANCH  12  18
HETATM   18  C9  UNL     1      24.820  63.572  11.048  1.00  0.00     0.045 C 
HETATM   19  C10 UNL     1      25.078  62.215  10.473  1.00  0.00     0.008 C 
ENDBRANCH  12  18
ENDBRANCH  10  12
ENDBRANCH   6   9
BRANCH   1  20
HETATM   20  N2  UNL     1      29.334  66.842   8.667  1.00  0.00    -0.165 N 
ATOM     21  H2  UNL     1      29.154  67.835   8.818  1.00  0.00     0.186 HD
BRANCH  20  22
HETATM   22  C3  UNL     1      29.795  66.534   7.402  1.00  0.00     0.186 C 
HETATM   23  S1  UNL     1      29.071  65.380   6.500  1.00  0.00    -0.040 SA
BRANCH  22  24
HETATM   24  N1  UNL     1      30.917  67.223   6.821  1.00  0.00    -0.367 N 
ATOM     25  H1  UNL     1      30.813  68.151   6.410  1.00  0.00     0.161 HD
BRANCH  24  26
HETATM   26  C2  UNL     1      32.198  66.552   6.841  1.00  0.00     0.117 C 
HETATM   27  C1  UNL     1      32.771  66.698   8.225  1.00  0.00     0.026 C 
ENDBRANCH  24  26
ENDBRANCH  22  24
ENDBRANCH  20  22
ENDBRANCH   1  20
TORSDOF 8
ENDMDL
