MODEL 1
REMARK VINA RESULT: -7.009579951      0.000      0.000
REMARK  6 active torsions:
REMARK  status: ('A' for Active; 'I' for Inactive)
REMARK    1  A    between atoms: C3_5  and  C4_6 
REMARK    2  A    between atoms: C4_6  and  C5_7 
REMARK    3  A    between atoms: C6_9  and  N2_10 
REMARK    4  A    between atoms: C8_15  and  O1_16 
REMARK    5  A    between atoms: C10_19  and  C11_20 
REMARK    6  A    between atoms: C11_20  and  N4_22 
ROOT
HETATM    1  C1  UNL     1      24.846  63.647  11.467  1.00  0.00     0.043 C 
HETATM    2  C2  UNL     1      25.693  64.409  10.774  1.00  0.00     0.031 A 
HETATM    3  N1  UNL     1      25.849  64.450   9.416  1.00  0.00    -0.356 N 
ATOM      4  H1  UNL     1      25.346  63.846   8.766  1.00  0.00     0.166 HD
HETATM    5  C3  UNL     1      26.744  65.380   9.040  1.00  0.00     0.034 A 
HETATM    6  C9  UNL     1      27.165  65.961  10.241  1.00  0.00     0.041 A 
HETATM    7  C10 UNL     1      26.537  65.382  11.282  1.00  0.00    -0.006 A 
ENDROOT
BRANCH   5   8
HETATM    8  C4  UNL     1      27.192  65.689   7.851  1.00  0.00     0.053 C 
BRANCH   8   9
HETATM    9  C5  UNL     1      28.607  65.778   7.514  1.00  0.00     0.061 A 
HETATM   10  S1  UNL     1      29.793  66.874   8.006  1.00  0.00    -0.050 SA
HETATM   11  C6  UNL     1      31.135  66.244   7.160  1.00  0.00     0.146 A 
HETATM   12  N3  UNL     1      30.616  65.196   6.526  1.00  0.00    -0.316 N 
HETATM   13  C8  UNL     1      29.336  64.952   6.693  1.00  0.00     0.159 A 
ATOM     14  H3  UNL     1      31.193  64.602   5.929  1.00  0.00     0.170 HD
BRANCH  11  15
HETATM   15  N2  UNL     1      32.382  66.695   7.158  1.00  0.00    -0.375 N 
HETATM   16  C7  UNL     1      33.078  66.712   8.485  1.00  0.00     0.148 C 
ATOM     17  H2  UNL     1      32.841  67.011   6.304  1.00  0.00     0.161 HD
ENDBRANCH  11  15
BRANCH  13  18
HETATM   18  O1  UNL     1      28.643  63.864   6.064  1.00  0.00    -0.345 OA
ATOM     19  H1  UNL     1      29.132  63.064   5.909  1.00  0.00     0.219 HD
ENDBRANCH  13  18
ENDBRANCH   8   9
ENDBRANCH   5   8
BRANCH   7  20
HETATM   20  C11 UNL     1      26.787  65.493  12.767  1.00  0.00     0.144 C 
HETATM   21  C12 UNL     1      27.259  66.934  13.110  1.00  0.00     0.040 C 
BRANCH  20  22
HETATM   22  N4  UNL     1      27.953  64.614  13.034  1.00  0.00    -0.228 N 
HETATM   23  N5  UNL     1      29.233  64.178  13.240  1.00  0.00    -0.243 N 
HETATM   24  C13 UNL     1      28.262  63.213  13.301  1.00  0.00     0.356 A 
ATOM     25  H5  UNL     1      30.224  64.410  13.305  1.00  0.00     0.192 HD
HETATM   26  O2  UNL     1      27.951  61.998  13.473  1.00  0.00    -0.244 OA
ENDBRANCH  20  22
ENDBRANCH   7  20
TORSDOF 6
ENDMDL
MODEL 2
REMARK VINA RESULT: -6.719277340      1.657      2.061
REMARK  6 active torsions:
REMARK  status: ('A' for Active; 'I' for Inactive)
REMARK    1  A    between atoms: C3_5  and  C4_6 
REMARK    2  A    between atoms: C4_6  and  C5_7 
REMARK    3  A    between atoms: C6_9  and  N2_10 
REMARK    4  A    between atoms: C8_15  and  O1_16 
REMARK    5  A    between atoms: C10_19  and  C11_20 
REMARK    6  A    between atoms: C11_20  and  N4_22 
ROOT
HETATM    1  C1  UNL     1      24.689  61.939  10.037  1.00  0.00     0.043 C 
HETATM    2  C2  UNL     1      25.212  63.154  10.197  1.00  0.00     0.031 A 
HETATM    3  N1  UNL     1      25.937  63.871   9.285  1.00  0.00    -0.356 N 
ATOM      4  H1  UNL     1      26.202  63.519   8.365  1.00  0.00     0.166 HD
HETATM    5  C3  UNL     1      26.258  65.092   9.744  1.00  0.00     0.034 A 
HETATM    6  C9  UNL     1      25.687  65.143  11.021  1.00  0.00     0.041 A 
HETATM    7  C10 UNL     1      25.060  63.984  11.296  1.00  0.00    -0.006 A 
ENDROOT
BRANCH   5   8
HETATM    8  C4  UNL     1      26.969  66.042   9.194  1.00  0.00     0.053 C 
BRANCH   8   9
HETATM    9  C5  UNL     1      28.412  65.969   9.003  1.00  0.00     0.061 A 
HETATM   10  S1  UNL     1      29.684  66.488   9.984  1.00  0.00    -0.050 SA
HETATM   11  C6  UNL     1      31.006  66.006   9.017  1.00  0.00     0.146 A 
HETATM   12  N3  UNL     1      30.413  65.452   7.963  1.00  0.00    -0.316 N 
HETATM   13  C8  UNL     1      29.100  65.431   7.942  1.00  0.00     0.159 A 
ATOM     14  H3  UNL     1      30.960  65.057   7.198  1.00  0.00     0.170 HD
BRANCH  11  15
HETATM   15  N2  UNL     1      32.299  66.149   9.276  1.00  0.00    -0.375 N 
HETATM   16  C7  UNL     1      33.122  66.777   8.194  1.00  0.00     0.148 C 
ATOM     17  H2  UNL     1      32.709  65.848  10.161  1.00  0.00     0.161 HD
ENDBRANCH  11  15
BRANCH  13  18
HETATM   18  O1  UNL     1      28.329  64.874   6.867  1.00  0.00    -0.345 OA
ATOM     19  H1  UNL     1      27.876  65.480   6.292  1.00  0.00     0.219 HD
ENDBRANCH  13  18
ENDBRANCH   8   9
ENDBRANCH   5   8
BRANCH   7  20
HETATM   20  C11 UNL     1      24.484  63.460  12.588  1.00  0.00     0.144 C 
HETATM   21  C12 UNL     1      23.373  64.423  13.093  1.00  0.00     0.040 C 
BRANCH  20  22
HETATM   22  N4  UNL     1      25.586  63.563  13.578  1.00  0.00    -0.228 N 
HETATM   23  N5  UNL     1      26.311  63.906  14.686  1.00  0.00    -0.243 N 
HETATM   24  C13 UNL     1      26.946  63.080  13.795  1.00  0.00     0.356 A 
ATOM     25  H5  UNL     1      26.352  64.420  15.566  1.00  0.00     0.192 HD
HETATM   26  O2  UNL     1      27.977  62.420  13.475  1.00  0.00    -0.244 OA
ENDBRANCH  20  22
ENDBRANCH   7  20
TORSDOF 6
ENDMDL
MODEL 3
REMARK VINA RESULT: -6.707540991      2.961      6.327
REMARK  6 active torsions:
REMARK  status: ('A' for Active; 'I' for Inactive)
REMARK    1  A    between atoms: C3_5  and  C4_6 
REMARK    2  A    between atoms: C4_6  and  C5_7 
REMARK    3  A    between atoms: C6_9  and  N2_10 
REMARK    4  A    between atoms: C8_15  and  O1_16 
REMARK    5  A    between atoms: C10_19  and  C11_20 
REMARK    6  A    between atoms: C11_20  and  N4_22 
ROOT
HETATM    1  C1  UNL     1      27.927  65.963   7.283  1.00  0.00     0.043 C 
HETATM    2  C2  UNL     1      27.826  65.782   8.600  1.00  0.00     0.031 A 
HETATM    3  N1  UNL     1      28.821  65.419   9.465  1.00  0.00    -0.356 N 
ATOM      4  H1  UNL     1      29.773  65.197   9.177  1.00  0.00     0.166 HD
HETATM    5  C3  UNL     1      28.395  65.390  10.740  1.00  0.00     0.034 A 
HETATM    6  C9  UNL     1      27.050  65.770  10.663  1.00  0.00     0.041 A 
HETATM    7  C10 UNL     1      26.705  66.005   9.383  1.00  0.00    -0.006 A 
ENDROOT
BRANCH   5   8
HETATM    8  C4  UNL     1      29.026  65.055  11.835  1.00  0.00     0.053 C 
BRANCH   8   9
HETATM    9  C5  UNL     1      28.363  64.573  13.040  1.00  0.00     0.061 A 
HETATM   10  S1  UNL     1      28.103  65.320  14.531  1.00  0.00    -0.050 SA
HETATM   11  C6  UNL     1      27.260  64.071  15.334  1.00  0.00     0.146 A 
HETATM   12  N3  UNL     1      27.205  63.114  14.411  1.00  0.00    -0.316 N 
HETATM   13  C8  UNL     1      27.764  63.355  13.247  1.00  0.00     0.159 A 
ATOM     14  H3  UNL     1      26.744  62.224  14.601  1.00  0.00     0.170 HD
BRANCH  11  15
HETATM   15  N2  UNL     1      26.778  64.077  16.569  1.00  0.00    -0.375 N 
HETATM   16  C7  UNL     1      25.566  64.928  16.798  1.00  0.00     0.148 C 
ATOM     17  H2  UNL     1      27.206  63.534  17.319  1.00  0.00     0.161 HD
ENDBRANCH  11  15
BRANCH  13  18
HETATM   18  O1  UNL     1      27.787  62.412  12.165  1.00  0.00    -0.345 OA
ATOM     19  H1  UNL     1      27.277  62.620  11.390  1.00  0.00     0.219 HD
ENDBRANCH  13  18
ENDBRANCH   8   9
ENDBRANCH   5   8
BRANCH   7  20
HETATM   20  C11 UNL     1      25.352  66.226   8.754  1.00  0.00     0.144 C 
HETATM   21  C12 UNL     1      24.432  66.987   9.750  1.00  0.00     0.040 C 
BRANCH  20  22
HETATM   22  N4  UNL     1      24.759  64.873   8.613  1.00  0.00    -0.228 N 
HETATM   23  N5  UNL     1      23.943  63.843   8.232  1.00  0.00    -0.243 N 
HETATM   24  C13 UNL     1      24.970  63.503   9.073  1.00  0.00     0.356 A 
ATOM     25  H5  UNL     1      23.131  63.539   7.694  1.00  0.00     0.192 HD
HETATM   26  O2  UNL     1      25.584  62.612   9.728  1.00  0.00    -0.244 OA
ENDBRANCH  20  22
ENDBRANCH   7  20
TORSDOF 6
ENDMDL
MODEL 4
REMARK VINA RESULT: -6.672566499      3.611      4.707
REMARK  6 active torsions:
REMARK  status: ('A' for Active; 'I' for Inactive)
REMARK    1  A    between atoms: C3_5  and  C4_6 
REMARK    2  A    between atoms: C4_6  and  C5_7 
REMARK    3  A    between atoms: C6_9  and  N2_10 
REMARK    4  A    between atoms: C8_15  and  O1_16 
REMARK    5  A    between atoms: C10_19  and  C11_20 
REMARK    6  A    between atoms: C11_20  and  N4_22 
ROOT
HETATM    1  C1  UNL     1      25.576  68.591  11.775  1.00  0.00     0.043 C 
HETATM    2  C2  UNL     1      25.492  67.695  10.791  1.00  0.00     0.031 A 
HETATM    3  N1  UNL     1      26.485  67.310   9.934  1.00  0.00    -0.356 N 
ATOM      4  H1  UNL     1      27.422  67.714   9.929  1.00  0.00     0.166 HD
HETATM    5  C3  UNL     1      26.083  66.335   9.101  1.00  0.00     0.034 A 
HETATM    6  C9  UNL     1      24.755  66.092   9.469  1.00  0.00     0.041 A 
HETATM    7  C10 UNL     1      24.397  66.905  10.481  1.00  0.00    -0.006 A 
ENDROOT
BRANCH   5   8
HETATM    8  C4  UNL     1      26.720  65.740   8.126  1.00  0.00     0.053 C 
BRANCH   8   9
HETATM    9  C5  UNL     1      28.167  65.777   7.959  1.00  0.00     0.061 A 
HETATM   10  S1  UNL     1      29.128  66.584   6.830  1.00  0.00    -0.050 SA
HETATM   11  C6  UNL     1      30.673  66.091   7.365  1.00  0.00     0.146 A 
HETATM   12  N3  UNL     1      30.389  65.317   8.409  1.00  0.00    -0.316 N 
HETATM   13  C8  UNL     1      29.123  65.146   8.717  1.00  0.00     0.159 A 
ATOM     14  H3  UNL     1      31.129  64.871   8.951  1.00  0.00     0.170 HD
BRANCH  11  15
HETATM   15  N2  UNL     1      31.853  66.418   6.858  1.00  0.00    -0.375 N 
HETATM   16  C7  UNL     1      32.931  66.737   7.849  1.00  0.00     0.148 C 
ATOM     17  H2  UNL     1      32.019  66.451   5.851  1.00  0.00     0.161 HD
ENDBRANCH  11  15
BRANCH  13  18
HETATM   18  O1  UNL     1      28.672  64.332   9.810  1.00  0.00    -0.345 OA
ATOM     19  H1  UNL     1      29.320  64.055  10.447  1.00  0.00     0.219 HD
ENDBRANCH  13  18
ENDBRANCH   8   9
ENDBRANCH   5   8
BRANCH   7  20
HETATM   20  C11 UNL     1      23.043  67.185  11.085  1.00  0.00     0.144 C 
HETATM   21  C12 UNL     1      22.751  66.154  12.211  1.00  0.00     0.040 C 
BRANCH  20  22
HETATM   22  N4  UNL     1      22.065  66.892  10.008  1.00  0.00    -0.228 N 
HETATM   23  N5  UNL     1      21.484  66.368   8.885  1.00  0.00    -0.243 N 
HETATM   24  C13 UNL     1      20.715  67.257   9.590  1.00  0.00     0.356 A 
ATOM     25  H5  UNL     1      21.566  65.747   8.081  1.00  0.00     0.192 HD
HETATM   26  O2  UNL     1      19.623  67.885   9.714  1.00  0.00    -0.244 OA
ENDBRANCH  20  22
ENDBRANCH   7  20
TORSDOF 6
ENDMDL
MODEL 5
REMARK VINA RESULT: -6.650741780      2.719      6.763
REMARK  6 active torsions:
REMARK  status: ('A' for Active; 'I' for Inactive)
REMARK    1  A    between atoms: C3_5  and  C4_6 
REMARK    2  A    between atoms: C4_6  and  C5_7 
REMARK    3  A    between atoms: C6_9  and  N2_10 
REMARK    4  A    between atoms: C8_15  and  O1_16 
REMARK    5  A    between atoms: C10_19  and  C11_20 
REMARK    6  A    between atoms: C11_20  and  N4_22 
ROOT
HETATM    1  C1  UNL     1      26.927  66.079   7.794  1.00  0.00     0.043 C 
HETATM    2  C2  UNL     1      27.933  65.846   8.637  1.00  0.00     0.031 A 
HETATM    3  N1  UNL     1      27.859  65.268   9.874  1.00  0.00    -0.356 N 
ATOM      4  H1  UNL     1      26.986  64.982  10.319  1.00  0.00     0.166 HD
HETATM    5  C3  UNL     1      29.072  65.120  10.435  1.00  0.00     0.034 A 
HETATM    6  C9  UNL     1      29.958  65.631   9.480  1.00  0.00     0.041 A 
HETATM    7  C10 UNL     1      29.280  66.067   8.402  1.00  0.00    -0.006 A 
ENDROOT
BRANCH   5   8
HETATM    8  C4  UNL     1      29.409  64.655  11.609  1.00  0.00     0.053 C 
BRANCH   8   9
HETATM    9  C5  UNL     1      28.450  64.286  12.643  1.00  0.00     0.061 A 
HETATM   10  S1  UNL     1      28.062  65.034  14.106  1.00  0.00    -0.050 SA
HETATM   11  C6  UNL     1      26.858  63.960  14.666  1.00  0.00     0.146 A 
HETATM   12  N3  UNL     1      26.795  63.057  13.691  1.00  0.00    -0.316 N 
HETATM   13  C8  UNL     1      27.599  63.208  12.664  1.00  0.00     0.159 A 
ATOM     14  H3  UNL     1      26.143  62.273  13.741  1.00  0.00     0.170 HD
BRANCH  11  15
HETATM   15  N2  UNL     1      26.162  64.033  15.792  1.00  0.00    -0.375 N 
HETATM   16  C7  UNL     1      26.685  64.978  16.830  1.00  0.00     0.148 C 
ATOM     17  H2  UNL     1      25.319  63.478  15.943  1.00  0.00     0.161 HD
ENDBRANCH  11  15
BRANCH  13  18
HETATM   18  O1  UNL     1      27.644  62.307  11.548  1.00  0.00    -0.345 OA
ATOM     19  H1  UNL     1      27.736  61.380  11.736  1.00  0.00     0.219 HD
ENDBRANCH  13  18
ENDBRANCH   8   9
ENDBRANCH   5   8
BRANCH   7  20
HETATM   20  C11 UNL     1      29.736  66.880   7.216  1.00  0.00     0.144 C 
HETATM   21  C12 UNL     1      29.032  66.365   5.929  1.00  0.00     0.040 C 
BRANCH  20  22
HETATM   22  N4  UNL     1      31.174  66.553   7.046  1.00  0.00    -0.228 N 
HETATM   23  N5  UNL     1      32.358  66.138   6.501  1.00  0.00    -0.243 N 
HETATM   24  C13 UNL     1      32.428  66.593   7.792  1.00  0.00     0.356 A 
ATOM     25  H5  UNL     1      32.849  65.755   5.694  1.00  0.00     0.192 HD
HETATM   26  O2  UNL     1      33.127  66.838   8.819  1.00  0.00    -0.244 OA
ENDBRANCH  20  22
ENDBRANCH   7  20
TORSDOF 6
ENDMDL
