MODEL 1
REMARK VINA RESULT: -7.373398565      0.000      0.000
REMARK  4 active torsions:
REMARK  status: ('A' for Active; 'I' for Inactive)
REMARK    1  A    between atoms: O1_2  and  C2_3 
REMARK    2  A    between atoms: C2_3  and  C3_4 
REMARK    3  A    between atoms: C3_4  and  N1_5 
REMARK    4  A    between atoms: N1_5  and  C4_7 
ROOT
HETATM    1  C4  UNL     1      25.421  63.733  11.836  1.00  0.00     0.681 A 
HETATM    2  N2  UNL     1      26.364  63.210  12.632  1.00  0.00    -0.154 N 
ATOM      3  H2  UNL     1      26.067  62.662  13.440  1.00  0.00     0.187 HD
HETATM    4  C5  UNL     1      27.695  63.372  12.419  1.00  0.00     0.288 A 
HETATM    5  O2  UNL     1      28.567  62.872  13.178  1.00  0.00    -0.265 OA
HETATM    6  C6  UNL     1      28.093  64.107  11.335  1.00  0.00     0.130 A 
HETATM    7  N3  UNL     1      29.284  64.461  10.834  1.00  0.00    -0.352 N 
ATOM      8  H3  UNL     1      30.188  64.206  11.233  1.00  0.00     0.166 HD
HETATM    9  C7  UNL     1      29.103  65.223   9.699  1.00  0.00     0.030 A 
HETATM   10  C8  UNL     1      27.760  65.350   9.481  1.00  0.00     0.084 A 
HETATM   11  C9  UNL     1      27.134  64.651  10.508  1.00  0.00     0.099 A 
HETATM   12  N4  UNL     1      25.821  64.452  10.776  1.00  0.00    -0.188 N 
ATOM     13  H4  UNL     1      25.120  64.859  10.157  1.00  0.00     0.184 HD
HETATM   14  C10 UNL     1      27.267  66.090   8.334  1.00  0.00     0.256 C 
HETATM   15  O3  UNL     1      26.064  66.244   8.082  1.00  0.00    -0.267 OA
HETATM   16  N5  UNL     1      28.217  66.686   7.428  1.00  0.00    -0.348 N 
ATOM     17  H5  UNL     1      27.964  67.475   6.833  1.00  0.00     0.163 HD
HETATM   18  C11 UNL     1      29.564  66.105   7.400  1.00  0.00     0.031 C 
HETATM   19  C12 UNL     1      30.468  67.126   6.745  1.00  0.00     0.038 C 
HETATM   20  C13 UNL     1      29.565  64.783   6.666  1.00  0.00     0.038 C 
HETATM   21  C14 UNL     1      30.066  65.868   8.790  1.00  0.00     0.088 C 
ENDROOT
BRANCH   1  22
HETATM   22  N1  UNL     1      24.192  63.529  12.113  1.00  0.00    -0.224 N 
ATOM     23  H1  UNL     1      23.666  62.889  11.518  1.00  0.00     0.177 HD
BRANCH  22  24
HETATM   24  C3  UNL     1      23.499  64.151  13.224  1.00  0.00     0.164 C 
BRANCH  24  25
HETATM   25  C2  UNL     1      23.213  65.573  12.809  1.00  0.00     0.187 C 
BRANCH  25  26
HETATM   26  O1  UNL     1      22.816  65.721  11.494  1.00  0.00    -0.394 OA
HETATM   27  C1  UNL     1      23.100  66.980  11.025  1.00  0.00     0.201 C 
ENDBRANCH  25  26
ENDBRANCH  24  25
ENDBRANCH  22  24
ENDBRANCH   1  22
TORSDOF 4
ENDMDL
MODEL 2
REMARK VINA RESULT: -7.046996079      2.253      6.431
REMARK  4 active torsions:
REMARK  status: ('A' for Active; 'I' for Inactive)
REMARK    1  A    between atoms: O1_2  and  C2_3 
REMARK    2  A    between atoms: C2_3  and  C3_4 
REMARK    3  A    between atoms: C3_4  and  N1_5 
REMARK    4  A    between atoms: N1_5  and  C4_7 
ROOT
HETATM    1  C4  UNL     1      27.552  66.026   7.804  1.00  0.00     0.681 A 
HETATM    2  N2  UNL     1      26.482  65.324   7.405  1.00  0.00    -0.154 N 
ATOM      3  H2  UNL     1      26.247  65.321   6.411  1.00  0.00     0.187 HD
HETATM    4  C5  UNL     1      25.695  64.616   8.253  1.00  0.00     0.288 A 
HETATM    5  O2  UNL     1      24.694  63.961   7.860  1.00  0.00    -0.265 OA
HETATM    6  C6  UNL     1      26.010  64.620   9.586  1.00  0.00     0.130 A 
HETATM    7  N3  UNL     1      25.473  64.053  10.674  1.00  0.00    -0.352 N 
ATOM      8  H3  UNL     1      24.645  63.457  10.678  1.00  0.00     0.166 HD
HETATM    9  C7  UNL     1      26.210  64.396  11.789  1.00  0.00     0.030 A 
HETATM   10  C8  UNL     1      27.238  65.201  11.389  1.00  0.00     0.084 A 
HETATM   11  C9  UNL     1      27.108  65.338  10.010  1.00  0.00     0.099 A 
HETATM   12  N4  UNL     1      27.853  66.025   9.111  1.00  0.00    -0.188 N 
ATOM     13  H4  UNL     1      28.663  66.553   9.436  1.00  0.00     0.184 HD
HETATM   14  C10 UNL     1      28.198  65.704  12.353  1.00  0.00     0.256 C 
HETATM   15  O3  UNL     1      29.150  66.438  12.057  1.00  0.00    -0.267 OA
HETATM   16  N5  UNL     1      28.050  65.337  13.740  1.00  0.00    -0.348 N 
ATOM     17  H5  UNL     1      28.450  65.905  14.488  1.00  0.00     0.163 HD
HETATM   18  C11 UNL     1      27.297  64.111  14.027  1.00  0.00     0.031 C 
HETATM   19  C12 UNL     1      26.904  64.170  15.487  1.00  0.00     0.038 C 
HETATM   20  C13 UNL     1      28.122  62.886  13.703  1.00  0.00     0.038 C 
HETATM   21  C14 UNL     1      26.043  64.059  13.213  1.00  0.00     0.088 C 
ENDROOT
BRANCH   1  22
HETATM   22  N1  UNL     1      28.235  66.663   6.934  1.00  0.00    -0.224 N 
ATOM     23  H1  UNL     1      27.962  67.622   6.718  1.00  0.00     0.177 HD
BRANCH  22  24
HETATM   24  C3  UNL     1      29.375  66.106   6.233  1.00  0.00     0.164 C 
BRANCH  24  25
HETATM   25  C2  UNL     1      30.586  66.873   6.706  1.00  0.00     0.187 C 
BRANCH  25  26
HETATM   26  O1  UNL     1      30.949  66.626   8.016  1.00  0.00    -0.394 OA
HETATM   27  C1  UNL     1      32.311  66.693   8.178  1.00  0.00     0.201 C 
ENDBRANCH  25  26
ENDBRANCH  24  25
ENDBRANCH  22  24
ENDBRANCH   1  22
TORSDOF 4
ENDMDL
MODEL 3
REMARK VINA RESULT: -6.902135238      2.936      6.993
REMARK  4 active torsions:
REMARK  status: ('A' for Active; 'I' for Inactive)
REMARK    1  A    between atoms: O1_2  and  C2_3 
REMARK    2  A    between atoms: C2_3  and  C3_4 
REMARK    3  A    between atoms: C3_4  and  N1_5 
REMARK    4  A    between atoms: N1_5  and  C4_7 
ROOT
HETATM    1  C4  UNL     1      27.580  66.248   9.040  1.00  0.00     0.681 A 
HETATM    2  N2  UNL     1      27.095  65.138   8.465  1.00  0.00    -0.154 N 
ATOM      3  H2  UNL     1      27.748  64.513   7.991  1.00  0.00     0.187 HD
HETATM    4  C5  UNL     1      25.780  64.801   8.482  1.00  0.00     0.288 A 
HETATM    5  O2  UNL     1      25.343  63.754   7.937  1.00  0.00    -0.265 OA
HETATM    6  C6  UNL     1      24.905  65.640   9.119  1.00  0.00     0.130 A 
HETATM    7  N3  UNL     1      23.582  65.626   9.326  1.00  0.00    -0.352 N 
ATOM      8  H3  UNL     1      22.944  64.898   9.001  1.00  0.00     0.166 HD
HETATM    9  C7  UNL     1      23.211  66.743  10.045  1.00  0.00     0.030 A 
HETATM   10  C8  UNL     1      24.334  67.480  10.295  1.00  0.00     0.084 A 
HETATM   11  C9  UNL     1      25.390  66.785   9.714  1.00  0.00     0.099 A 
HETATM   12  N4  UNL     1      26.714  67.064   9.661  1.00  0.00    -0.188 N 
ATOM     13  H4  UNL     1      27.062  67.914  10.105  1.00  0.00     0.184 HD
HETATM   14  C10 UNL     1      24.251  68.711  11.058  1.00  0.00     0.256 C 
HETATM   15  O3  UNL     1      25.229  69.425  11.319  1.00  0.00    -0.267 OA
HETATM   16  N5  UNL     1      22.966  69.142  11.549  1.00  0.00    -0.348 N 
ATOM     17  H5  UNL     1      22.781  70.120  11.773  1.00  0.00     0.163 HD
HETATM   18  C11 UNL     1      21.935  68.111  11.711  1.00  0.00     0.031 C 
HETATM   19  C12 UNL     1      20.607  68.828  11.799  1.00  0.00     0.038 C 
HETATM   20  C13 UNL     1      22.212  67.262  12.932  1.00  0.00     0.038 C 
HETATM   21  C14 UNL     1      21.896  67.211  10.516  1.00  0.00     0.088 C 
ENDROOT
BRANCH   1  22
HETATM   22  N1  UNL     1      28.832  66.483   8.974  1.00  0.00    -0.224 N 
ATOM     23  H1  UNL     1      29.241  67.103   9.673  1.00  0.00     0.177 HD
BRANCH  22  24
HETATM   24  C3  UNL     1      29.710  65.923   7.965  1.00  0.00     0.164 C 
BRANCH  24  25
HETATM   25  C2  UNL     1      29.769  66.930   6.841  1.00  0.00     0.187 C 
BRANCH  25  26
HETATM   26  O1  UNL     1      31.045  67.290   6.457  1.00  0.00    -0.394 OA
HETATM   27  C1  UNL     1      31.986  66.817   7.338  1.00  0.00     0.201 C 
ENDBRANCH  25  26
ENDBRANCH  24  25
ENDBRANCH  22  24
ENDBRANCH   1  22
TORSDOF 4
ENDMDL
MODEL 4
REMARK VINA RESULT: -6.700317278      4.143      5.797
REMARK  4 active torsions:
REMARK  status: ('A' for Active; 'I' for Inactive)
REMARK    1  A    between atoms: O1_2  and  C2_3 
REMARK    2  A    between atoms: C2_3  and  C3_4 
REMARK    3  A    between atoms: C3_4  and  N1_5 
REMARK    4  A    between atoms: N1_5  and  C4_7 
ROOT
HETATM    1  C4  UNL     1      29.305  67.863  13.464  1.00  0.00     0.681 A 
HETATM    2  N2  UNL     1      28.080  68.404  13.409  1.00  0.00    -0.154 N 
ATOM      3  H2  UNL     1      27.748  68.934  14.216  1.00  0.00     0.187 HD
HETATM    4  C5  UNL     1      27.258  68.285  12.336  1.00  0.00     0.288 A 
HETATM    5  O2  UNL     1      26.110  68.801  12.302  1.00  0.00    -0.265 OA
HETATM    6  C6  UNL     1      27.705  67.574  11.254  1.00  0.00     0.130 A 
HETATM    7  N3  UNL     1      27.180  67.262  10.062  1.00  0.00    -0.352 N 
ATOM      8  H3  UNL     1      26.253  67.539   9.737  1.00  0.00     0.166 HD
HETATM    9  C7  UNL     1      28.082  66.508   9.339  1.00  0.00     0.030 A 
HETATM   10  C8  UNL     1      29.204  66.344  10.100  1.00  0.00     0.084 A 
HETATM   11  C9  UNL     1      28.962  67.012  11.296  1.00  0.00     0.099 A 
HETATM   12  N4  UNL     1      29.734  67.168  12.399  1.00  0.00    -0.188 N 
ATOM     13  H4  UNL     1      30.663  66.748  12.420  1.00  0.00     0.184 HD
HETATM   14  C10 UNL     1      30.341  65.603   9.585  1.00  0.00     0.256 C 
HETATM   15  O3  UNL     1      31.386  65.417  10.224  1.00  0.00    -0.267 OA
HETATM   16  N5  UNL     1      30.267  65.047   8.257  1.00  0.00    -0.348 N 
ATOM     17  H5  UNL     1      30.848  64.257   7.976  1.00  0.00     0.163 HD
HETATM   18  C11 UNL     1      29.316  65.668   7.328  1.00  0.00     0.031 C 
HETATM   19  C12 UNL     1      29.096  64.682   6.202  1.00  0.00     0.038 C 
HETATM   20  C13 UNL     1      29.838  66.998   6.834  1.00  0.00     0.038 C 
HETATM   21  C14 UNL     1      27.999  65.903   7.999  1.00  0.00     0.088 C 
ENDROOT
BRANCH   1  22
HETATM   22  N1  UNL     1      30.009  68.027  14.516  1.00  0.00    -0.224 N 
ATOM     23  H1  UNL     1      30.368  67.196  14.986  1.00  0.00     0.177 HD
BRANCH  22  24
HETATM   24  C3  UNL     1      30.328  69.322  15.083  1.00  0.00     0.164 C 
BRANCH  24  25
HETATM   25  C2  UNL     1      31.635  69.752  14.461  1.00  0.00     0.187 C 
BRANCH  25  26
HETATM   26  O1  UNL     1      32.630  68.794  14.490  1.00  0.00    -0.394 OA
HETATM   27  C1  UNL     1      33.796  69.267  13.943  1.00  0.00     0.201 C 
ENDBRANCH  25  26
ENDBRANCH  24  25
ENDBRANCH  22  24
ENDBRANCH   1  22
TORSDOF 4
ENDMDL
MODEL 5
REMARK VINA RESULT: -6.693086936      2.471      6.497
REMARK  4 active torsions:
REMARK  status: ('A' for Active; 'I' for Inactive)
REMARK    1  A    between atoms: O1_2  and  C2_3 
REMARK    2  A    between atoms: C2_3  and  C3_4 
REMARK    3  A    between atoms: C3_4  and  N1_5 
REMARK    4  A    between atoms: N1_5  and  C4_7 
ROOT
HETATM    1  C4  UNL     1      27.366  66.095   8.587  1.00  0.00     0.681 A 
HETATM    2  N2  UNL     1      26.795  65.015   8.035  1.00  0.00    -0.154 N 
ATOM      3  H2  UNL     1      27.380  64.388   7.481  1.00  0.00     0.187 HD
HETATM    4  C5  UNL     1      25.480  64.712   8.174  1.00  0.00     0.288 A 
HETATM    5  O2  UNL     1      24.961  63.692   7.648  1.00  0.00    -0.265 OA
HETATM    6  C6  UNL     1      24.696  65.554   8.917  1.00  0.00     0.130 A 
HETATM    7  N3  UNL     1      23.400  65.567   9.255  1.00  0.00    -0.352 N 
ATOM      8  H3  UNL     1      22.713  64.866   8.976  1.00  0.00     0.166 HD
HETATM    9  C7  UNL     1      23.135  66.673  10.037  1.00  0.00     0.030 A 
HETATM   10  C8  UNL     1      24.297  67.372  10.193  1.00  0.00     0.084 A 
HETATM   11  C9  UNL     1      25.270  66.668   9.491  1.00  0.00     0.099 A 
HETATM   12  N4  UNL     1      26.590  66.914   9.313  1.00  0.00    -0.188 N 
ATOM     13  H4  UNL     1      27.005  67.742   9.742  1.00  0.00     0.184 HD
HETATM   14  C10 UNL     1      24.326  68.583  10.993  1.00  0.00     0.256 C 
HETATM   15  O3  UNL     1      25.345  69.263  11.173  1.00  0.00    -0.267 OA
HETATM   16  N5  UNL     1      23.109  69.032  11.621  1.00  0.00    -0.348 N 
ATOM     17  H5  UNL     1      22.975  70.008  11.889  1.00  0.00     0.163 HD
HETATM   18  C11 UNL     1      22.070  68.023  11.858  1.00  0.00     0.031 C 
HETATM   19  C12 UNL     1      20.778  68.772  12.097  1.00  0.00     0.038 C 
HETATM   20  C13 UNL     1      22.442  67.132  13.022  1.00  0.00     0.038 C 
HETATM   21  C14 UNL     1      21.887  67.160  10.649  1.00  0.00     0.088 C 
ENDROOT
BRANCH   1  22
HETATM   22  N1  UNL     1      28.612  66.300   8.402  1.00  0.00    -0.224 N 
ATOM     23  H1  UNL     1      28.896  67.193   7.999  1.00  0.00     0.177 HD
BRANCH  22  24
HETATM   24  C3  UNL     1      29.649  65.341   8.732  1.00  0.00     0.164 C 
BRANCH  24  25
HETATM   25  C2  UNL     1      29.450  64.977  10.183  1.00  0.00     0.187 C 
BRANCH  25  26
HETATM   26  O1  UNL     1      28.847  63.753  10.393  1.00  0.00    -0.394 OA
HETATM   27  C1  UNL     1      27.944  63.811  11.426  1.00  0.00     0.201 C 
ENDBRANCH  25  26
ENDBRANCH  24  25
ENDBRANCH  22  24
ENDBRANCH   1  22
TORSDOF 4
ENDMDL
