MODEL 1
REMARK VINA RESULT: -6.440438878      0.000      0.000
REMARK  5 active torsions:
REMARK  status: ('A' for Active; 'I' for Inactive)
REMARK    1  A    between atoms: N1_2  and  C3_4 
REMARK    2  A    between atoms: C3_4  and  C4_5 
REMARK    3  A    between atoms: C4_5  and  N2_6 
REMARK    4  A    between atoms: N2_6  and  C5_8 
REMARK    5  A    between atoms: C5_8  and  N3_10 
ROOT
HETATM    1  N3  UNL     1      26.506  66.184  10.194  1.00  0.00    -0.330 N 
HETATM    2  C6  UNL     1      25.700  67.333  10.647  1.00  0.00     0.128 C 
HETATM    3  C7  UNL     1      26.637  68.338  11.336  1.00  0.00     0.020 C 
HETATM    4  C8  UNL     1      28.039  67.739  11.185  1.00  0.00     0.006 C 
HETATM    5  C9  UNL     1      28.022  66.435  11.963  1.00  0.00     0.056 C 
HETATM    6  C10 UNL     1      27.035  65.417  11.331  1.00  0.00     0.124 C 
HETATM    7  C11 UNL     1      25.929  65.281  12.347  1.00  0.00     0.167 C 
HETATM    8  N4  UNL     1      25.998  64.173  13.229  1.00  0.00    -0.416 N 
ATOM      9  H4  UNL     1      25.252  63.477  13.239  1.00  0.00     0.153 HD
HETATM   10  C12 UNL     1      27.104  64.037  14.094  1.00  0.00     0.133 C 
HETATM   11  C13 UNL     1      28.220  63.201  13.507  1.00  0.00     0.139 C 
HETATM   12  N5  UNL     1      27.761  62.339  12.462  1.00  0.00    -0.385 N 
ATOM     13  H5  UNL     1      27.770  61.324  12.564  1.00  0.00     0.160 HD
HETATM   14  C14 UNL     1      27.286  62.968  11.268  1.00  0.00     0.173 C 
HETATM   15  N6  UNL     1      27.759  64.264  11.090  1.00  0.00    -0.358 N 
ATOM     16  H6  UNL     1      28.716  64.372  10.755  1.00  0.00     0.162 HD
ENDROOT
BRANCH   1  17
HETATM   17  C5  UNL     1      26.704  65.949   8.847  1.00  0.00     0.171 C 
HETATM   18  S1  UNL     1      25.589  64.870   8.157  1.00  0.00    -0.041 SA
BRANCH  17  19
HETATM   19  N2  UNL     1      27.653  66.362   7.917  1.00  0.00    -0.365 N 
ATOM     20  H2  UNL     1      27.477  67.306   7.572  1.00  0.00     0.161 HD
BRANCH  19  21
HETATM   21  C4  UNL     1      28.802  65.781   7.341  1.00  0.00     0.152 C 
BRANCH  21  22
HETATM   22  C3  UNL     1      29.945  65.834   8.384  1.00  0.00     0.290 C 
BRANCH  22  23
HETATM   23  N1  UNL     1      30.924  66.755   7.883  1.00  0.00     0.081 N 
HETATM   24  C1  UNL     1      32.243  66.586   8.418  1.00  0.00     0.309 C 
HETATM   25  C2  UNL     1      30.964  66.730   6.444  1.00  0.00     0.309 C 
ENDBRANCH  22  23
ENDBRANCH  21  22
ENDBRANCH  19  21
ENDBRANCH  17  19
ENDBRANCH   1  17
TORSDOF 5
ENDMDL
MODEL 2
REMARK VINA RESULT: -6.145658226      1.584      2.779
REMARK  5 active torsions:
REMARK  status: ('A' for Active; 'I' for Inactive)
REMARK    1  A    between atoms: N1_2  and  C3_4 
REMARK    2  A    between atoms: C3_4  and  C4_5 
REMARK    3  A    between atoms: C4_5  and  N2_6 
REMARK    4  A    between atoms: N2_6  and  C5_8 
REMARK    5  A    between atoms: C5_8  and  N3_10 
ROOT
HETATM    1  N3  UNL     1      26.555  64.648  10.359  1.00  0.00    -0.330 N 
HETATM    2  C6  UNL     1      26.073  63.285  10.649  1.00  0.00     0.128 C 
HETATM    3  C7  UNL     1      24.868  63.391  11.598  1.00  0.00     0.020 C 
HETATM    4  C8  UNL     1      24.635  64.895  11.774  1.00  0.00     0.006 C 
HETATM    5  C9  UNL     1      25.879  65.433  12.461  1.00  0.00     0.056 C 
HETATM    6  C10 UNL     1      27.130  65.281  11.554  1.00  0.00     0.124 C 
HETATM    7  C11 UNL     1      27.982  64.251  12.254  1.00  0.00     0.167 C 
HETATM    8  N4  UNL     1      29.034  64.736  13.072  1.00  0.00    -0.416 N 
ATOM      9  H4  UNL     1      30.002  64.490  12.862  1.00  0.00     0.153 HD
HETATM   10  C12 UNL     1      28.737  65.558  14.179  1.00  0.00     0.133 C 
HETATM   11  C13 UNL     1      28.774  67.035  13.851  1.00  0.00     0.139 C 
HETATM   12  N5  UNL     1      29.555  67.312  12.685  1.00  0.00    -0.385 N 
ATOM     13  H5  UNL     1      30.424  67.843  12.738  1.00  0.00     0.160 HD
HETATM   14  C14 UNL     1      29.059  66.808  11.441  1.00  0.00     0.173 C 
HETATM   15  N6  UNL     1      27.694  66.539  11.448  1.00  0.00    -0.358 N 
ATOM     16  H6  UNL     1      27.059  67.333  11.369  1.00  0.00     0.162 HD
ENDROOT
BRANCH   1  17
HETATM   17  C5  UNL     1      26.421  65.188   9.094  1.00  0.00     0.171 C 
HETATM   18  S1  UNL     1      25.113  64.567   8.207  1.00  0.00    -0.041 SA
BRANCH  17  19
HETATM   19  N2  UNL     1      27.151  66.106   8.347  1.00  0.00    -0.365 N 
ATOM     20  H2  UNL     1      26.920  67.072   8.581  1.00  0.00     0.161 HD
BRANCH  19  21
HETATM   21  C4  UNL     1      28.137  66.014   7.342  1.00  0.00     0.152 C 
BRANCH  21  22
HETATM   22  C3  UNL     1      29.448  65.513   7.997  1.00  0.00     0.290 C 
BRANCH  22  23
HETATM   23  N1  UNL     1      30.408  66.571   7.871  1.00  0.00     0.081 N 
HETATM   24  C1  UNL     1      31.575  66.430   8.690  1.00  0.00     0.309 C 
HETATM   25  C2  UNL     1      30.785  66.762   6.495  1.00  0.00     0.309 C 
ENDBRANCH  22  23
ENDBRANCH  21  22
ENDBRANCH  19  21
ENDBRANCH  17  19
ENDBRANCH   1  17
TORSDOF 5
ENDMDL
MODEL 3
REMARK VINA RESULT: -5.981459403      0.943      1.274
REMARK  5 active torsions:
REMARK  status: ('A' for Active; 'I' for Inactive)
REMARK    1  A    between atoms: N1_2  and  C3_4 
REMARK    2  A    between atoms: C3_4  and  C4_5 
REMARK    3  A    between atoms: C4_5  and  N2_6 
REMARK    4  A    between atoms: N2_6  and  C5_8 
REMARK    5  A    between atoms: C5_8  and  N3_10 
ROOT
HETATM    1  N3  UNL     1      25.526  65.613  10.051  1.00  0.00    -0.330 N 
HETATM    2  C6  UNL     1      24.369  66.482  10.339  1.00  0.00     0.128 C 
HETATM    3  C7  UNL     1      24.890  67.799  10.935  1.00  0.00     0.020 C 
HETATM    4  C8  UNL     1      26.417  67.670  10.901  1.00  0.00     0.006 C 
HETATM    5  C9  UNL     1      26.760  66.516  11.827  1.00  0.00     0.056 C 
HETATM    6  C10 UNL     1      26.191  65.176  11.287  1.00  0.00     0.124 C 
HETATM    7  C11 UNL     1      25.117  64.795  12.275  1.00  0.00     0.167 C 
HETATM    8  N4  UNL     1      25.473  63.863  13.284  1.00  0.00    -0.416 N 
ATOM      9  H4  UNL     1      24.985  62.969  13.350  1.00  0.00     0.153 HD
HETATM   10  C12 UNL     1      26.502  64.178  14.194  1.00  0.00     0.133 C 
HETATM   11  C13 UNL     1      27.864  63.691  13.746  1.00  0.00     0.139 C 
HETATM   12  N5  UNL     1      27.772  62.626  12.796  1.00  0.00    -0.385 N 
ATOM     13  H5  UNL     1      28.095  61.685  13.016  1.00  0.00     0.160 HD
HETATM   14  C14 UNL     1      27.206  62.945  11.521  1.00  0.00     0.173 C 
HETATM   15  N6  UNL     1      27.257  64.299  11.207  1.00  0.00    -0.358 N 
ATOM     16  H6  UNL     1      28.151  64.676  10.893  1.00  0.00     0.162 HD
ENDROOT
BRANCH   1  17
HETATM   17  C5  UNL     1      25.879  65.319   8.748  1.00  0.00     0.171 C 
HETATM   18  S1  UNL     1      24.838  64.224   7.974  1.00  0.00    -0.041 SA
BRANCH  17  19
HETATM   19  N2  UNL     1      26.939  65.682   7.923  1.00  0.00    -0.365 N 
ATOM     20  H2  UNL     1      26.686  65.675   6.935  1.00  0.00     0.161 HD
BRANCH  19  21
HETATM   21  C4  UNL     1      28.283  66.058   8.135  1.00  0.00     0.152 C 
BRANCH  21  22
HETATM   22  C3  UNL     1      29.126  65.517   6.954  1.00  0.00     0.290 C 
BRANCH  22  23
HETATM   23  N1  UNL     1      30.497  65.826   7.244  1.00  0.00     0.081 N 
HETATM   24  C1  UNL     1      31.087  66.815   6.392  1.00  0.00     0.309 C 
HETATM   25  C2  UNL     1      30.658  66.198   8.625  1.00  0.00     0.309 C 
ENDBRANCH  22  23
ENDBRANCH  21  22
ENDBRANCH  19  21
ENDBRANCH  17  19
ENDBRANCH   1  17
TORSDOF 5
ENDMDL
MODEL 4
REMARK VINA RESULT: -5.964646885      1.913      5.457
REMARK  5 active torsions:
REMARK  status: ('A' for Active; 'I' for Inactive)
REMARK    1  A    between atoms: N1_2  and  C3_4 
REMARK    2  A    between atoms: C3_4  and  C4_5 
REMARK    3  A    between atoms: C4_5  and  N2_6 
REMARK    4  A    between atoms: N2_6  and  C5_8 
REMARK    5  A    between atoms: C5_8  and  N3_10 
ROOT
HETATM    1  N3  UNL     1      27.451  65.006  10.423  1.00  0.00    -0.330 N 
HETATM    2  C6  UNL     1      28.132  64.575  11.658  1.00  0.00     0.128 C 
HETATM    3  C7  UNL     1      28.494  65.827  12.473  1.00  0.00     0.020 C 
HETATM    4  C8  UNL     1      27.912  66.998  11.675  1.00  0.00     0.006 C 
HETATM    5  C9  UNL     1      28.658  67.014  10.352  1.00  0.00     0.056 C 
HETATM    6  C10 UNL     1      28.366  65.730   9.529  1.00  0.00     0.124 C 
HETATM    7  C11 UNL     1      29.678  64.985   9.514  1.00  0.00     0.167 C 
HETATM    8  N4  UNL     1      30.495  65.145   8.366  1.00  0.00    -0.416 N 
ATOM      9  H4  UNL     1      30.738  64.336   7.793  1.00  0.00     0.153 HD
HETATM   10  C12 UNL     1      30.971  66.426   8.020  1.00  0.00     0.133 C 
HETATM   11  C13 UNL     1      30.065  67.158   7.053  1.00  0.00     0.139 C 
HETATM   12  N5  UNL     1      29.217  66.266   6.324  1.00  0.00    -0.385 N 
ATOM     13  H5  UNL     1      29.311  66.144   5.316  1.00  0.00     0.160 HD
HETATM   14  C14 UNL     1      28.230  65.553   7.076  1.00  0.00     0.173 C 
HETATM   15  N6  UNL     1      27.912  66.150   8.292  1.00  0.00    -0.358 N 
ATOM     16  H6  UNL     1      27.295  66.961   8.270  1.00  0.00     0.162 HD
ENDROOT
BRANCH   1  17
HETATM   17  C5  UNL     1      26.110  64.738  10.227  1.00  0.00     0.171 C 
HETATM   18  S1  UNL     1      25.621  63.202  10.762  1.00  0.00    -0.041 SA
BRANCH  17  19
HETATM   19  N2  UNL     1      25.057  65.430   9.638  1.00  0.00    -0.365 N 
ATOM     20  H2  UNL     1      24.483  64.834   9.040  1.00  0.00     0.161 HD
BRANCH  19  21
HETATM   21  C4  UNL     1      24.596  66.763   9.672  1.00  0.00     0.152 C 
BRANCH  21  22
HETATM   22  C3  UNL     1      23.424  66.842  10.681  1.00  0.00     0.290 C 
BRANCH  22  23
HETATM   23  N1  UNL     1      23.797  67.802  11.680  1.00  0.00     0.081 N 
HETATM   24  C1  UNL     1      24.383  67.248  12.863  1.00  0.00     0.309 C 
HETATM   25  C2  UNL     1      24.658  68.813  11.124  1.00  0.00     0.309 C 
ENDBRANCH  22  23
ENDBRANCH  21  22
ENDBRANCH  19  21
ENDBRANCH  17  19
ENDBRANCH   1  17
TORSDOF 5
ENDMDL
MODEL 5
REMARK VINA RESULT: -5.962513637      1.769      5.944
REMARK  5 active torsions:
REMARK  status: ('A' for Active; 'I' for Inactive)
REMARK    1  A    between atoms: N1_2  and  C3_4 
REMARK    2  A    between atoms: C3_4  and  C4_5 
REMARK    3  A    between atoms: C4_5  and  N2_6 
REMARK    4  A    between atoms: N2_6  and  C5_8 
REMARK    5  A    between atoms: C5_8  and  N3_10 
ROOT
HETATM    1  N3  UNL     1      27.268  65.118  10.441  1.00  0.00    -0.330 N 
HETATM    2  C6  UNL     1      27.943  64.370  11.518  1.00  0.00     0.128 C 
HETATM    3  C7  UNL     1      28.609  65.381  12.465  1.00  0.00     0.020 C 
HETATM    4  C8  UNL     1      28.213  66.756  11.916  1.00  0.00     0.006 C 
HETATM    5  C9  UNL     1      28.842  66.852  10.537  1.00  0.00     0.056 C 
HETATM    6  C10 UNL     1      28.238  65.798   9.570  1.00  0.00     0.124 C 
HETATM    7  C11 UNL     1      29.368  64.836   9.304  1.00  0.00     0.167 C 
HETATM    8  N4  UNL     1      30.110  65.029   8.110  1.00  0.00    -0.416 N 
ATOM      9  H4  UNL     1      30.141  64.296   7.401  1.00  0.00     0.153 HD
HETATM   10  C12 UNL     1      30.804  66.240   7.907  1.00  0.00     0.133 C 
HETATM   11  C13 UNL     1      29.990  67.277   7.163  1.00  0.00     0.139 C 
HETATM   12  N5  UNL     1      28.928  66.690   6.406  1.00  0.00    -0.385 N 
ATOM     13  H5  UNL     1      28.917  66.721   5.387  1.00  0.00     0.160 HD
HETATM   14  C14 UNL     1      27.880  66.058   7.147  1.00  0.00     0.173 C 
HETATM   15  N6  UNL     1      27.782  66.493   8.465  1.00  0.00    -0.358 N 
ATOM     16  H6  UNL     1      27.340  67.398   8.629  1.00  0.00     0.162 HD
ENDROOT
BRANCH   1  17
HETATM   17  C5  UNL     1      25.889  65.140  10.354  1.00  0.00     0.171 C 
HETATM   18  S1  UNL     1      25.230  63.872   9.437  1.00  0.00    -0.041 SA
BRANCH  17  19
HETATM   19  N2  UNL     1      24.900  66.003  10.812  1.00  0.00    -0.365 N 
ATOM     20  H2  UNL     1      24.762  66.803  10.193  1.00  0.00     0.161 HD
BRANCH  19  21
HETATM   21  C4  UNL     1      24.043  66.033  11.932  1.00  0.00     0.152 C 
BRANCH  21  22
HETATM   22  C3  UNL     1      24.812  65.451  13.144  1.00  0.00     0.290 C 
BRANCH  22  23
HETATM   23  N1  UNL     1      24.023  64.371  13.661  1.00  0.00     0.081 N 
HETATM   24  C1  UNL     1      22.608  64.521  13.492  1.00  0.00     0.309 C 
HETATM   25  C2  UNL     1      24.458  63.111  13.118  1.00  0.00     0.309 C 
ENDBRANCH  22  23
ENDBRANCH  21  22
ENDBRANCH  19  21
ENDBRANCH  17  19
ENDBRANCH   1  17
TORSDOF 5
ENDMDL
