MODEL 1
REMARK VINA RESULT: -5.262991319      0.000      0.000
REMARK  4 active torsions:
REMARK  status: ('A' for Active; 'I' for Inactive)
REMARK    1  A    between atoms: S1_2  and  S2_3 
REMARK    2  A    between atoms: S2_3  and  C2_4 
REMARK    3  A    between atoms: C4_10  and  N2_11 
REMARK    4  A    between atoms: N2_11  and  N3_13 
ROOT
HETATM    1  C2  UNL     1      16.320  -2.012  49.989  1.00  0.00     0.158 A 
HETATM    2  N1  UNL     1      15.112  -2.055  50.570  1.00  0.00    -0.321 N 
ATOM      3  H1  UNL     1      14.791  -2.963  50.905  1.00  0.00     0.169 HD
HETATM    4  C3  UNL     1      14.286  -1.011  50.750  1.00  0.00     0.148 A 
HETATM    5  S3  UNL     1      12.825  -1.161  51.472  1.00  0.00    -0.052 SA
HETATM    6  S4  UNL     1      14.897   0.471  50.162  1.00  0.00    -0.023 SA
HETATM    7  C4  UNL     1      16.443   0.300  49.465  1.00  0.00     0.167 A 
HETATM    8  N4  UNL     1      16.931  -0.950  49.486  1.00  0.00    -0.315 N 
ATOM      9  H4  UNL     1      17.854  -1.095  49.078  1.00  0.00     0.170 HD
ENDROOT
BRANCH   7  10
HETATM   10  N2  UNL     1      17.043   1.327  48.974  1.00  0.00    -0.286 N 
ATOM     11  H2  UNL     1      17.833   1.167  48.348  1.00  0.00     0.188 HD
BRANCH  10  12
HETATM   12  N3  UNL     1      16.681   2.635  49.244  1.00  0.00    -0.343 N 
ATOM     13  H32 UNL     1      15.969   2.780  49.958  1.00  0.00     0.176 HD
ATOM     14  H31 UNL     1      17.083   3.446  48.773  1.00  0.00     0.176 HD
ENDBRANCH  10  12
ENDBRANCH   7  10
BRANCH   1  15
HETATM   15  S2  UNL     1      17.152  -3.443  49.881  1.00  0.00    -0.021 SA
BRANCH  15  16
HETATM   16  S1  UNL     1      17.315  -4.771  51.554  1.00  0.00    -0.094 SA
HETATM   17  C1  UNL     1      17.815  -3.852  53.036  1.00  0.00     0.103 C 
ENDBRANCH  15  16
ENDBRANCH   1  15
TORSDOF 4
ENDMDL
MODEL 2
REMARK VINA RESULT: -5.217615077      1.492      3.367
REMARK  4 active torsions:
REMARK  status: ('A' for Active; 'I' for Inactive)
REMARK    1  A    between atoms: S1_2  and  S2_3 
REMARK    2  A    between atoms: S2_3  and  C2_4 
REMARK    3  A    between atoms: C4_10  and  N2_11 
REMARK    4  A    between atoms: N2_11  and  N3_13 
ROOT
HETATM    1  C2  UNL     1      14.693  -0.855  50.551  1.00  0.00     0.158 A 
HETATM    2  N1  UNL     1      15.270  -2.064  50.600  1.00  0.00    -0.321 N 
ATOM      3  H1  UNL     1      14.709  -2.831  50.970  1.00  0.00     0.169 HD
HETATM    4  C3  UNL     1      16.521  -2.357  50.206  1.00  0.00     0.148 A 
HETATM    5  S3  UNL     1      17.142  -3.868  50.304  1.00  0.00    -0.052 SA
HETATM    6  S4  UNL     1      17.392  -1.019  49.600  1.00  0.00    -0.023 SA
HETATM    7  C4  UNL     1      16.472   0.416  49.627  1.00  0.00     0.167 A 
HETATM    8  N4  UNL     1      15.230   0.274  50.112  1.00  0.00    -0.315 N 
ATOM      9  H4  UNL     1      14.646   1.110  50.145  1.00  0.00     0.170 HD
ENDROOT
BRANCH   7  10
HETATM   10  N2  UNL     1      16.986   1.516  49.202  1.00  0.00    -0.286 N 
ATOM     11  H2  UNL     1      17.848   1.464  48.658  1.00  0.00     0.188 HD
BRANCH  10  12
HETATM   12  N3  UNL     1      16.441   2.766  49.439  1.00  0.00    -0.343 N 
ATOM     13  H32 UNL     1      15.922   2.887  50.308  1.00  0.00     0.176 HD
ATOM     14  H31 UNL     1      16.529   3.557  48.800  1.00  0.00     0.176 HD
ENDBRANCH  10  12
ENDBRANCH   7  10
BRANCH   1  15
HETATM   15  S2  UNL     1      13.131  -0.746  51.101  1.00  0.00    -0.021 SA
BRANCH  15  16
HETATM   16  S1  UNL     1      12.622  -1.229  53.125  1.00  0.00    -0.094 SA
HETATM   17  C1  UNL     1      14.116  -1.277  54.151  1.00  0.00     0.103 C 
ENDBRANCH  15  16
ENDBRANCH   1  15
TORSDOF 4
ENDMDL
MODEL 3
REMARK VINA RESULT: -5.174915615      1.592      1.728
REMARK  4 active torsions:
REMARK  status: ('A' for Active; 'I' for Inactive)
REMARK    1  A    between atoms: S1_2  and  S2_3 
REMARK    2  A    between atoms: S2_3  and  C2_4 
REMARK    3  A    between atoms: C4_10  and  N2_11 
REMARK    4  A    between atoms: N2_11  and  N3_13 
ROOT
HETATM    1  C2  UNL     1      16.519  -1.618  52.182  1.00  0.00     0.158 A 
HETATM    2  N1  UNL     1      15.197  -1.583  52.406  1.00  0.00    -0.321 N 
ATOM      3  H1  UNL     1      14.848  -2.116  53.202  1.00  0.00     0.169 HD
HETATM    4  C3  UNL     1      14.291  -0.911  51.676  1.00  0.00     0.148 A 
HETATM    5  S3  UNL     1      12.693  -0.929  52.027  1.00  0.00    -0.052 SA
HETATM    6  S4  UNL     1      14.957  -0.046  50.363  1.00  0.00    -0.023 SA
HETATM    7  C4  UNL     1      16.649  -0.227  50.263  1.00  0.00     0.167 A 
HETATM    8  N4  UNL     1      17.185  -1.006  51.214  1.00  0.00    -0.315 N 
ATOM      9  H4  UNL     1      18.196  -1.140  51.190  1.00  0.00     0.170 HD
ENDROOT
BRANCH   7  10
HETATM   10  N2  UNL     1      17.303   0.364  49.326  1.00  0.00    -0.286 N 
ATOM     11  H2  UNL     1      18.090  -0.131  48.906  1.00  0.00     0.188 HD
BRANCH  10  12
HETATM   12  N3  UNL     1      17.003   1.630  48.853  1.00  0.00    -0.343 N 
ATOM     13  H32 UNL     1      17.468   2.415  49.308  1.00  0.00     0.176 HD
ATOM     14  H31 UNL     1      16.353   1.814  48.088  1.00  0.00     0.176 HD
ENDBRANCH  10  12
ENDBRANCH   7  10
BRANCH   1  15
HETATM   15  S2  UNL     1      17.433  -2.525  53.227  1.00  0.00    -0.021 SA
BRANCH  15  16
HETATM   16  S1  UNL     1      17.984  -4.544  52.767  1.00  0.00    -0.094 SA
HETATM   17  C1  UNL     1      17.713  -4.881  51.006  1.00  0.00     0.103 C 
ENDBRANCH  15  16
ENDBRANCH   1  15
TORSDOF 4
ENDMDL
MODEL 4
REMARK VINA RESULT: -4.924945040      2.216      2.308
REMARK  4 active torsions:
REMARK  status: ('A' for Active; 'I' for Inactive)
REMARK    1  A    between atoms: S1_2  and  S2_3 
REMARK    2  A    between atoms: S2_3  and  C2_4 
REMARK    3  A    between atoms: C4_10  and  N2_11 
REMARK    4  A    between atoms: N2_11  and  N3_13 
ROOT
HETATM    1  C2  UNL     1      16.528  -1.593  52.097  1.00  0.00     0.158 A 
HETATM    2  N1  UNL     1      15.204  -1.566  52.310  1.00  0.00    -0.321 N 
ATOM      3  H1  UNL     1      14.851  -2.109  53.098  1.00  0.00     0.169 HD
HETATM    4  C3  UNL     1      14.301  -0.890  51.580  1.00  0.00     0.148 A 
HETATM    5  S3  UNL     1      12.700  -0.918  51.918  1.00  0.00    -0.052 SA
HETATM    6  S4  UNL     1      14.975  -0.008  50.282  1.00  0.00    -0.023 SA
HETATM    7  C4  UNL     1      16.668  -0.180  50.194  1.00  0.00     0.167 A 
HETATM    8  N4  UNL     1      17.200  -0.968  51.141  1.00  0.00    -0.315 N 
ATOM      9  H4  UNL     1      18.211  -1.098  51.124  1.00  0.00     0.170 HD
ENDROOT
BRANCH   7  10
HETATM   10  N2  UNL     1      17.327   0.423  49.269  1.00  0.00    -0.286 N 
ATOM     11  H2  UNL     1      18.134  -0.054  48.867  1.00  0.00     0.188 HD
BRANCH  10  12
HETATM   12  N3  UNL     1      17.007   1.680  48.787  1.00  0.00    -0.343 N 
ATOM     13  H32 UNL     1      17.722   2.403  48.869  1.00  0.00     0.176 HD
ATOM     14  H31 UNL     1      16.111   1.917  48.361  1.00  0.00     0.176 HD
ENDBRANCH  10  12
ENDBRANCH   7  10
BRANCH   1  15
HETATM   15  S2  UNL     1      17.438  -2.508  53.140  1.00  0.00    -0.021 SA
BRANCH  15  16
HETATM   16  S1  UNL     1      17.095  -2.466  55.254  1.00  0.00    -0.094 SA
HETATM   17  C1  UNL     1      16.497  -0.831  55.759  1.00  0.00     0.103 C 
ENDBRANCH  15  16
ENDBRANCH   1  15
TORSDOF 4
ENDMDL
MODEL 5
REMARK VINA RESULT: -4.791428123      1.304      1.331
REMARK  4 active torsions:
REMARK  status: ('A' for Active; 'I' for Inactive)
REMARK    1  A    between atoms: S1_2  and  S2_3 
REMARK    2  A    between atoms: S2_3  and  C2_4 
REMARK    3  A    between atoms: C4_10  and  N2_11 
REMARK    4  A    between atoms: N2_11  and  N3_13 
ROOT
HETATM    1  C2  UNL     1      16.607  -2.914  50.479  1.00  0.00     0.158 A 
HETATM    2  N1  UNL     1      15.394  -2.921  51.051  1.00  0.00    -0.321 N 
ATOM      3  H1  UNL     1      15.088  -3.796  51.477  1.00  0.00     0.169 HD
HETATM    4  C3  UNL     1      14.546  -1.881  51.115  1.00  0.00     0.148 A 
HETATM    5  S3  UNL     1      13.081  -1.984  51.837  1.00  0.00    -0.052 SA
HETATM    6  S4  UNL     1      15.135  -0.456  50.379  1.00  0.00    -0.023 SA
HETATM    7  C4  UNL     1      16.691  -0.668  49.716  1.00  0.00     0.167 A 
HETATM    8  N4  UNL     1      17.202  -1.898  49.872  1.00  0.00    -0.315 N 
ATOM      9  H4  UNL     1      18.132  -2.066  49.489  1.00  0.00     0.170 HD
ENDROOT
BRANCH   7  10
HETATM   10  N2  UNL     1      17.275   0.314  49.125  1.00  0.00    -0.286 N 
ATOM     11  H2  UNL     1      18.051   0.102  48.498  1.00  0.00     0.188 HD
BRANCH  10  12
HETATM   12  N3  UNL     1      16.914   1.640  49.289  1.00  0.00    -0.343 N 
ATOM     13  H32 UNL     1      17.647   2.338  49.168  1.00  0.00     0.176 HD
ATOM     14  H31 UNL     1      15.969   1.949  49.520  1.00  0.00     0.176 HD
ENDBRANCH  10  12
ENDBRANCH   7  10
BRANCH   1  15
HETATM   15  S2  UNL     1      17.468  -4.331  50.528  1.00  0.00    -0.021 SA
BRANCH  15  16
HETATM   16  S1  UNL     1      17.519  -5.548  52.291  1.00  0.00    -0.094 SA
HETATM   17  C1  UNL     1      15.864  -6.194  52.653  1.00  0.00     0.103 C 
ENDBRANCH  15  16
ENDBRANCH   1  15
TORSDOF 4
ENDMDL
