MODEL 1
REMARK VINA RESULT: -6.744460984      0.000      0.000
REMARK  4 active torsions:
REMARK  status: ('A' for Active; 'I' for Inactive)
REMARK    1  A    between atoms: C8_9  and  O2_10 
REMARK    2  A    between atoms: O2_10  and  C9_11 
REMARK    3  A    between atoms: C9_11  and  O3_12 
REMARK    4  A    between atoms: N1_14  and  O4_16 
ROOT
HETATM    1  C1  UNL     1      15.370  -2.991  52.817  1.00  0.00     0.046 C 
HETATM    2  C2  UNL     1      15.247  -1.771  51.934  1.00  0.00     0.060 C 
HETATM    3  C3  UNL     1      14.056  -0.982  52.426  1.00  0.00     0.046 C 
HETATM    4  O1  UNL     1      16.420  -1.080  51.977  1.00  0.00    -0.351 OA
HETATM    5  C4  UNL     1      17.214  -1.385  50.910  1.00  0.00     0.264 C 
HETATM    6  C5  UNL     1      16.537  -2.548  50.168  1.00  0.00     0.068 C 
HETATM    7  C6  UNL     1      15.105  -2.150  50.464  1.00  0.00     0.029 C 
HETATM    8  C7  UNL     1      14.853  -0.859  49.720  1.00  0.00     0.069 C 
HETATM    9  C8  UNL     1      16.054  -0.092  49.368  1.00  0.00     0.273 C 
HETATM   10  O5  UNL     1      17.209  -0.344  50.021  1.00  0.00    -0.331 OA
ENDROOT
BRANCH   9  11
HETATM   11  O2  UNL     1      15.754   1.305  49.534  1.00  0.00    -0.283 OA
BRANCH  11  12
HETATM   12  C9  UNL     1      16.368   2.230  48.682  1.00  0.00     0.284 C 
HETATM   13  N1  UNL     1      16.946   1.749  47.652  1.00  0.00    -0.227 N 
ATOM     14  H1  UNL     1      16.921   0.737  47.520  1.00  0.00     0.198 HD
BRANCH  12  15
HETATM   15  O3  UNL     1      16.330   3.603  48.976  1.00  0.00    -0.325 OA
ATOM     16  H3  UNL     1      16.826   3.953  49.706  1.00  0.00     0.221 HD
ENDBRANCH  12  15
BRANCH  13  17
HETATM   17  O4  UNL     1      17.598   2.504  46.710  1.00  0.00    -0.286 OA
ATOM     18  H4  UNL     1      17.217   2.771  45.882  1.00  0.00     0.244 HD
ENDBRANCH  13  17
ENDBRANCH  11  12
ENDBRANCH   9  11
TORSDOF 4
ENDMDL
MODEL 2
REMARK VINA RESULT: -6.588002135      1.219      2.140
REMARK  4 active torsions:
REMARK  status: ('A' for Active; 'I' for Inactive)
REMARK    1  A    between atoms: C8_9  and  O2_10 
REMARK    2  A    between atoms: O2_10  and  C9_11 
REMARK    3  A    between atoms: C9_11  and  O3_12 
REMARK    4  A    between atoms: N1_14  and  O4_16 
ROOT
HETATM    1  C1  UNL     1      15.986  -4.207  51.817  1.00  0.00     0.046 C 
HETATM    2  C2  UNL     1      16.165  -2.979  50.956  1.00  0.00     0.060 C 
HETATM    3  C3  UNL     1      16.829  -3.424  49.674  1.00  0.00     0.046 C 
HETATM    4  O1  UNL     1      14.949  -2.394  50.770  1.00  0.00    -0.351 OA
HETATM    5  C4  UNL     1      14.755  -1.366  51.647  1.00  0.00     0.264 C 
HETATM    6  C5  UNL     1      15.929  -1.396  52.637  1.00  0.00     0.068 C 
HETATM    7  C6  UNL     1      16.977  -1.903  51.668  1.00  0.00     0.029 C 
HETATM    8  C7  UNL     1      17.197  -0.803  50.655  1.00  0.00     0.069 C 
HETATM    9  C8  UNL     1      16.099   0.163  50.528  1.00  0.00     0.273 C 
HETATM   10  O5  UNL     1      14.874  -0.171  50.988  1.00  0.00    -0.331 OA
ENDROOT
BRANCH   9  11
HETATM   11  O2  UNL     1      15.966   0.505  49.138  1.00  0.00    -0.283 OA
BRANCH  11  12
HETATM   12  C9  UNL     1      16.549   1.691  48.679  1.00  0.00     0.284 C 
HETATM   13  N1  UNL     1      16.934   1.695  47.463  1.00  0.00    -0.227 N 
ATOM     14  H1  UNL     1      16.793   0.846  46.915  1.00  0.00     0.198 HD
BRANCH  12  15
HETATM   15  O3  UNL     1      16.686   2.796  49.535  1.00  0.00    -0.325 OA
ATOM     16  H3  UNL     1      15.925   3.176  49.957  1.00  0.00     0.221 HD
ENDBRANCH  12  15
BRANCH  13  17
HETATM   17  O4  UNL     1      17.526   2.767  46.845  1.00  0.00    -0.286 OA
ATOM     18  H4  UNL     1      17.095   3.600  46.690  1.00  0.00     0.244 HD
ENDBRANCH  13  17
ENDBRANCH  11  12
ENDBRANCH   9  11
TORSDOF 4
ENDMDL
MODEL 3
REMARK VINA RESULT: -6.404871595      1.430      2.218
REMARK  4 active torsions:
REMARK  status: ('A' for Active; 'I' for Inactive)
REMARK    1  A    between atoms: C8_9  and  O2_10 
REMARK    2  A    between atoms: O2_10  and  C9_11 
REMARK    3  A    between atoms: C9_11  and  O3_12 
REMARK    4  A    between atoms: N1_14  and  O4_16 
ROOT
HETATM    1  C1  UNL     1      13.530  -2.596  53.572  1.00  0.00     0.046 C 
HETATM    2  C2  UNL     1      14.208  -2.240  52.270  1.00  0.00     0.060 C 
HETATM    3  C3  UNL     1      13.131  -2.151  51.215  1.00  0.00     0.046 C 
HETATM    4  O1  UNL     1      14.906  -1.083  52.442  1.00  0.00    -0.351 OA
HETATM    5  C4  UNL     1      16.223  -1.332  52.697  1.00  0.00     0.264 C 
HETATM    6  C5  UNL     1      16.363  -2.852  52.878  1.00  0.00     0.068 C 
HETATM    7  C6  UNL     1      15.281  -3.257  51.897  1.00  0.00     0.029 C 
HETATM    8  C7  UNL     1      15.774  -2.862  50.523  1.00  0.00     0.069 C 
HETATM    9  C8  UNL     1      16.807  -1.819  50.502  1.00  0.00     0.273 C 
HETATM   10  O5  UNL     1      16.970  -1.035  51.588  1.00  0.00    -0.331 OA
ENDROOT
BRANCH   9  11
HETATM   11  O2  UNL     1      16.549  -0.961  49.377  1.00  0.00    -0.283 OA
BRANCH  11  12
HETATM   12  C9  UNL     1      16.185   0.369  49.617  1.00  0.00     0.284 C 
HETATM   13  N1  UNL     1      17.075   1.249  49.373  1.00  0.00    -0.227 N 
ATOM     14  H1  UNL     1      17.980   0.929  49.025  1.00  0.00     0.198 HD
BRANCH  12  15
HETATM   15  O3  UNL     1      14.903   0.681  50.097  1.00  0.00    -0.325 OA
ATOM     16  H3  UNL     1      14.788   1.334  50.777  1.00  0.00     0.221 HD
ENDBRANCH  12  15
BRANCH  13  17
HETATM   17  O4  UNL     1      16.896   2.597  49.549  1.00  0.00    -0.286 OA
ATOM     18  H4  UNL     1      16.063   3.002  49.762  1.00  0.00     0.244 HD
ENDBRANCH  13  17
ENDBRANCH  11  12
ENDBRANCH   9  11
TORSDOF 4
ENDMDL
MODEL 4
REMARK VINA RESULT: -6.259765031      4.540      6.007
REMARK  4 active torsions:
REMARK  status: ('A' for Active; 'I' for Inactive)
REMARK    1  A    between atoms: C8_9  and  O2_10 
REMARK    2  A    between atoms: O2_10  and  C9_11 
REMARK    3  A    between atoms: C9_11  and  O3_12 
REMARK    4  A    between atoms: N1_14  and  O4_16 
ROOT
HETATM    1  C1  UNL     1      15.660  -3.268  51.577  1.00  0.00     0.046 C 
HETATM    2  C2  UNL     1      14.667  -2.934  52.665  1.00  0.00     0.060 C 
HETATM    3  C3  UNL     1      15.072  -3.713  53.895  1.00  0.00     0.046 C 
HETATM    4  O1  UNL     1      14.657  -1.584  52.849  1.00  0.00    -0.351 OA
HETATM    5  C4  UNL     1      13.629  -0.999  52.167  1.00  0.00     0.264 C 
HETATM    6  C5  UNL     1      12.992  -2.093  51.296  1.00  0.00     0.068 C 
HETATM    7  C6  UNL     1      13.237  -3.251  52.242  1.00  0.00     0.029 C 
HETATM    8  C7  UNL     1      12.374  -3.005  53.459  1.00  0.00     0.069 C 
HETATM    9  C8  UNL     1      11.964  -1.611  53.666  1.00  0.00     0.273 C 
HETATM   10  O5  UNL     1      12.648  -0.626  53.046  1.00  0.00    -0.331 OA
ENDROOT
BRANCH   9  11
HETATM   11  O2  UNL     1      11.997  -1.344  55.079  1.00  0.00    -0.283 OA
BRANCH  11  12
HETATM   12  C9  UNL     1      12.751  -0.259  55.540  1.00  0.00     0.284 C 
HETATM   13  N1  UNL     1      12.091   0.757  55.938  1.00  0.00    -0.227 N 
ATOM     14  H1  UNL     1      11.073   0.712  55.894  1.00  0.00     0.198 HD
BRANCH  12  15
HETATM   15  O3  UNL     1      14.154  -0.322  55.551  1.00  0.00    -0.325 OA
ATOM     16  H3  UNL     1      14.638  -0.428  54.741  1.00  0.00     0.221 HD
ENDBRANCH  12  15
BRANCH  13  17
HETATM   17  O4  UNL     1      12.663   1.907  56.421  1.00  0.00    -0.286 OA
ATOM     18  H4  UNL     1      13.504   2.246  56.137  1.00  0.00     0.244 HD
ENDBRANCH  13  17
ENDBRANCH  11  12
ENDBRANCH   9  11
TORSDOF 4
ENDMDL
MODEL 5
REMARK VINA RESULT: -6.237976858      1.616      2.062
REMARK  4 active torsions:
REMARK  status: ('A' for Active; 'I' for Inactive)
REMARK    1  A    between atoms: C8_9  and  O2_10 
REMARK    2  A    between atoms: O2_10  and  C9_11 
REMARK    3  A    between atoms: C9_11  and  O3_12 
REMARK    4  A    between atoms: N1_14  and  O4_16 
ROOT
HETATM    1  C1  UNL     1      13.293  -2.835  51.963  1.00  0.00     0.046 C 
HETATM    2  C2  UNL     1      14.037  -1.581  51.565  1.00  0.00     0.060 C 
HETATM    3  C3  UNL     1      14.833  -1.133  52.768  1.00  0.00     0.046 C 
HETATM    4  O1  UNL     1      14.801  -1.855  50.471  1.00  0.00    -0.351 OA
HETATM    5  C4  UNL     1      14.174  -1.471  49.321  1.00  0.00     0.264 C 
HETATM    6  C5  UNL     1      12.750  -1.045  49.710  1.00  0.00     0.068 C 
HETATM    7  C6  UNL     1      13.088  -0.492  51.079  1.00  0.00     0.029 C 
HETATM    8  C7  UNL     1      13.939   0.736  50.851  1.00  0.00     0.069 C 
HETATM    9  C8  UNL     1      14.617   0.798  49.550  1.00  0.00     0.273 C 
HETATM   10  O5  UNL     1      14.765  -0.336  48.833  1.00  0.00    -0.331 OA
ENDROOT
BRANCH   9  11
HETATM   11  O2  UNL     1      15.925   1.359  49.757  1.00  0.00    -0.283 OA
BRANCH  11  12
HETATM   12  C9  UNL     1      16.443   2.228  48.790  1.00  0.00     0.284 C 
HETATM   13  N1  UNL     1      16.923   1.681  47.742  1.00  0.00    -0.227 N 
ATOM     14  H1  UNL     1      16.896   0.663  47.680  1.00  0.00     0.198 HD
BRANCH  12  15
HETATM   15  O3  UNL     1      16.420   3.617  48.994  1.00  0.00    -0.325 OA
ATOM     16  H3  UNL     1      16.512   4.213  48.260  1.00  0.00     0.221 HD
ENDBRANCH  12  15
BRANCH  13  17
HETATM   17  O4  UNL     1      17.473   2.374  46.693  1.00  0.00    -0.286 OA
ATOM     18  H4  UNL     1      17.790   3.268  46.751  1.00  0.00     0.244 HD
ENDBRANCH  13  17
ENDBRANCH  11  12
ENDBRANCH   9  11
TORSDOF 4
ENDMDL
