MODEL 1
REMARK VINA RESULT: -6.397353590      0.000      0.000
REMARK  2 active torsions:
REMARK  status: ('A' for Active; 'I' for Inactive)
REMARK    1  A    between atoms: C2_2  and  N1_4 
REMARK    2  A    between atoms: N1_4  and  C4_6 
ROOT
HETATM    1  C4  UNL     1      15.414  -1.549  49.966  1.00  0.00     0.111 A 
HETATM    2  N2  UNL     1      16.453  -2.159  49.367  1.00  0.00    -0.329 N 
ATOM      3  H2  UNL     1      16.834  -1.751  48.514  1.00  0.00     0.168 HD
HETATM    4  C5  UNL     1      17.010  -3.286  49.846  1.00  0.00     0.141 A 
HETATM    5  N3  UNL     1      18.102  -3.941  49.227  1.00  0.00    -0.081 NA
HETATM    6  C6  UNL     1      16.462  -3.801  51.000  1.00  0.00     0.112 A 
HETATM    7  C7  UNL     1      17.007  -5.002  51.567  1.00  0.00     0.105 C 
HETATM    8  N4  UNL     1      17.440  -5.997  52.024  1.00  0.00    -0.191 NA
HETATM    9  C8  UNL     1      15.380  -3.198  51.659  1.00  0.00     0.062 A 
HETATM   10  C9  UNL     1      14.836  -2.050  51.142  1.00  0.00     0.015 A 
HETATM   11  C10 UNL     1      13.715  -1.591  51.990  1.00  0.00     0.064 C 
HETATM   12  C11 UNL     1      13.419  -2.789  52.866  1.00  0.00     0.124 C 
HETATM   13  N5  UNL     1      14.668  -3.553  52.844  1.00  0.00    -0.388 N 
ATOM     14  H5  UNL     1      14.976  -4.222  53.551  1.00  0.00     0.159 HD
ENDROOT
BRANCH   1  15
HETATM   15  N1  UNL     1      14.884  -0.364  49.398  1.00  0.00    -0.372 N 
ATOM     16  H1  UNL     1      14.167  -0.428  48.675  1.00  0.00     0.161 HD
BRANCH  15  17
HETATM   17  C2  UNL     1      15.352   0.936  49.833  1.00  0.00     0.075 C 
HETATM   18  C1  UNL     1      16.388   1.502  48.879  1.00  0.00     0.031 C 
HETATM   19  C3  UNL     1      14.188   1.875  49.918  1.00  0.00     0.031 C 
ENDBRANCH  15  17
ENDBRANCH   1  15
TORSDOF 2
ENDMDL
MODEL 2
REMARK VINA RESULT: -5.981746293      1.044      1.204
REMARK  2 active torsions:
REMARK  status: ('A' for Active; 'I' for Inactive)
REMARK    1  A    between atoms: C2_2  and  N1_4 
REMARK    2  A    between atoms: N1_4  and  C4_6 
ROOT
HETATM    1  C4  UNL     1      16.014  -1.257  50.621  1.00  0.00     0.111 A 
HETATM    2  N2  UNL     1      16.779  -1.984  49.786  1.00  0.00    -0.329 N 
ATOM      3  H2  UNL     1      17.083  -1.562  48.909  1.00  0.00     0.168 HD
HETATM    4  C5  UNL     1      17.160  -3.245  50.060  1.00  0.00     0.141 A 
HETATM    5  N3  UNL     1      17.963  -4.024  49.192  1.00  0.00    -0.081 NA
HETATM    6  C6  UNL     1      16.725  -3.773  51.256  1.00  0.00     0.112 A 
HETATM    7  C7  UNL     1      17.093  -5.114  51.613  1.00  0.00     0.105 C 
HETATM    8  N4  UNL     1      17.379  -6.219  51.899  1.00  0.00    -0.191 NA
HETATM    9  C8  UNL     1      15.928  -3.051  52.156  1.00  0.00     0.062 A 
HETATM   10  C9  UNL     1      15.558  -1.767  51.844  1.00  0.00     0.015 A 
HETATM   11  C10 UNL     1      14.725  -1.200  52.926  1.00  0.00     0.064 C 
HETATM   12  C11 UNL     1      14.339  -2.410  53.750  1.00  0.00     0.124 C 
HETATM   13  N5  UNL     1      15.375  -3.394  53.427  1.00  0.00    -0.388 N 
ATOM     14  H5  UNL     1      15.652  -4.186  54.008  1.00  0.00     0.159 HD
ENDROOT
BRANCH   1  15
HETATM   15  N1  UNL     1      15.657   0.065  50.258  1.00  0.00    -0.372 N 
ATOM     16  H1  UNL     1      16.387   0.753  50.071  1.00  0.00     0.161 HD
BRANCH  15  17
HETATM   17  C2  UNL     1      14.264   0.449  50.150  1.00  0.00     0.075 C 
HETATM   18  C1  UNL     1      14.113   1.946  49.950  1.00  0.00     0.031 C 
HETATM   19  C3  UNL     1      13.642  -0.272  48.994  1.00  0.00     0.031 C 
ENDBRANCH  15  17
ENDBRANCH   1  15
TORSDOF 2
ENDMDL
MODEL 3
REMARK VINA RESULT: -5.960288008      1.765      5.286
REMARK  2 active torsions:
REMARK  status: ('A' for Active; 'I' for Inactive)
REMARK    1  A    between atoms: C2_2  and  N1_4 
REMARK    2  A    between atoms: N1_4  and  C4_6 
ROOT
HETATM    1  C4  UNL     1      14.383  -1.828  51.216  1.00  0.00     0.111 A 
HETATM    2  N2  UNL     1      13.847  -0.598  51.108  1.00  0.00    -0.329 N 
ATOM      3  H2  UNL     1      12.959  -0.409  51.573  1.00  0.00     0.168 HD
HETATM    4  C5  UNL     1      14.433   0.393  50.413  1.00  0.00     0.141 A 
HETATM    5  N3  UNL     1      13.882   1.691  50.289  1.00  0.00    -0.081 NA
HETATM    6  C6  UNL     1      15.630   0.091  49.801  1.00  0.00     0.112 A 
HETATM    7  C7  UNL     1      16.311   1.102  49.043  1.00  0.00     0.105 C 
HETATM    8  N4  UNL     1      16.862   1.923  48.405  1.00  0.00    -0.191 NA
HETATM    9  C8  UNL     1      16.226  -1.176  49.887  1.00  0.00     0.062 A 
HETATM   10  C9  UNL     1      15.599  -2.163  50.605  1.00  0.00     0.015 A 
HETATM   11  C10 UNL     1      16.397  -3.408  50.562  1.00  0.00     0.064 C 
HETATM   12  C11 UNL     1      17.384  -3.158  49.441  1.00  0.00     0.124 C 
HETATM   13  N5  UNL     1      17.438  -1.698  49.344  1.00  0.00    -0.388 N 
ATOM     14  H5  UNL     1      18.207  -1.150  48.957  1.00  0.00     0.159 HD
ENDROOT
BRANCH   1  15
HETATM   15  N1  UNL     1      13.701  -2.817  51.967  1.00  0.00    -0.372 N 
ATOM     16  H1  UNL     1      13.485  -3.717  51.538  1.00  0.00     0.161 HD
BRANCH  15  17
HETATM   17  C2  UNL     1      13.311  -2.562  53.338  1.00  0.00     0.075 C 
HETATM   18  C1  UNL     1      11.944  -3.147  53.645  1.00  0.00     0.031 C 
HETATM   19  C3  UNL     1      14.326  -3.164  54.260  1.00  0.00     0.031 C 
ENDBRANCH  15  17
ENDBRANCH   1  15
TORSDOF 2
ENDMDL
MODEL 4
REMARK VINA RESULT: -5.898625065      2.073      5.708
REMARK  2 active torsions:
REMARK  status: ('A' for Active; 'I' for Inactive)
REMARK    1  A    between atoms: C2_2  and  N1_4 
REMARK    2  A    between atoms: N1_4  and  C4_6 
ROOT
HETATM    1  C4  UNL     1      17.185  -5.670  51.988  1.00  0.00     0.111 A 
HETATM    2  N2  UNL     1      17.805  -5.270  50.863  1.00  0.00    -0.329 N 
ATOM      3  H2  UNL     1      18.577  -5.833  50.504  1.00  0.00     0.168 HD
HETATM    4  C5  UNL     1      17.451  -4.160  50.190  1.00  0.00     0.141 A 
HETATM    5  N3  UNL     1      18.094  -3.727  49.006  1.00  0.00    -0.081 NA
HETATM    6  C6  UNL     1      16.404  -3.433  50.713  1.00  0.00     0.112 A 
HETATM    7  C7  UNL     1      15.973  -2.236  50.047  1.00  0.00     0.105 C 
HETATM    8  N4  UNL     1      15.629  -1.246  49.512  1.00  0.00    -0.191 NA
HETATM    9  C8  UNL     1      15.728  -3.812  51.882  1.00  0.00     0.062 A 
HETATM   10  C9  UNL     1      16.116  -4.950  52.542  1.00  0.00     0.015 A 
HETATM   11  C10 UNL     1      15.274  -5.156  53.740  1.00  0.00     0.064 C 
HETATM   12  C11 UNL     1      14.579  -3.824  53.919  1.00  0.00     0.124 C 
HETATM   13  N5  UNL     1      14.637  -3.218  52.587  1.00  0.00    -0.388 N 
ATOM     14  H5  UNL     1      14.010  -2.500  52.226  1.00  0.00     0.159 HD
ENDROOT
BRANCH   1  15
HETATM   15  N1  UNL     1      17.619  -6.852  52.637  1.00  0.00    -0.372 N 
ATOM     16  H1  UNL     1      18.225  -6.785  53.455  1.00  0.00     0.161 HD
BRANCH  15  17
HETATM   17  C2  UNL     1      17.210  -8.153  52.149  1.00  0.00     0.075 C 
HETATM   18  C1  UNL     1      18.385  -9.111  52.069  1.00  0.00     0.031 C 
HETATM   19  C3  UNL     1      16.170  -8.719  53.066  1.00  0.00     0.031 C 
ENDBRANCH  15  17
ENDBRANCH   1  15
TORSDOF 2
ENDMDL
MODEL 5
REMARK VINA RESULT: -5.880105471      1.778      3.339
REMARK  2 active torsions:
REMARK  status: ('A' for Active; 'I' for Inactive)
REMARK    1  A    between atoms: C2_2  and  N1_4 
REMARK    2  A    between atoms: N1_4  and  C4_6 
ROOT
HETATM    1  C4  UNL     1      15.461  -1.397  51.331  1.00  0.00     0.111 A 
HETATM    2  N2  UNL     1      14.932  -1.220  52.556  1.00  0.00    -0.329 N 
ATOM      3  H2  UNL     1      14.466  -0.336  52.764  1.00  0.00     0.168 HD
HETATM    4  C5  UNL     1      14.991  -2.158  53.518  1.00  0.00     0.141 A 
HETATM    5  N3  UNL     1      14.441  -1.986  54.811  1.00  0.00    -0.081 NA
HETATM    6  C6  UNL     1      15.630  -3.334  53.191  1.00  0.00     0.112 A 
HETATM    7  C7  UNL     1      15.730  -4.379  54.170  1.00  0.00     0.105 C 
HETATM    8  N4  UNL     1      15.830  -5.231  54.977  1.00  0.00    -0.191 NA
HETATM    9  C8  UNL     1      16.195  -3.563  51.928  1.00  0.00     0.062 A 
HETATM   10  C9  UNL     1      16.115  -2.583  50.971  1.00  0.00     0.015 A 
HETATM   11  C10 UNL     1      16.773  -3.035  49.725  1.00  0.00     0.064 C 
HETATM   12  C11 UNL     1      17.567  -4.247  50.161  1.00  0.00     0.124 C 
HETATM   13  N5  UNL     1      16.889  -4.686  51.384  1.00  0.00    -0.388 N 
ATOM     14  H5  UNL     1      16.909  -5.627  51.777  1.00  0.00     0.159 HD
ENDROOT
BRANCH   1  15
HETATM   15  N1  UNL     1      15.356  -0.358  50.374  1.00  0.00    -0.372 N 
ATOM     16  H1  UNL     1      16.180  -0.076  49.843  1.00  0.00     0.161 HD
BRANCH  15  17
HETATM   17  C2  UNL     1      14.089   0.305  50.142  1.00  0.00     0.075 C 
HETATM   18  C1  UNL     1      14.277   1.791  49.897  1.00  0.00     0.031 C 
HETATM   19  C3  UNL     1      13.419  -0.313  48.953  1.00  0.00     0.031 C 
ENDBRANCH  15  17
ENDBRANCH   1  15
TORSDOF 2
ENDMDL
