MODEL 1
REMARK VINA RESULT: -9.353112532      0.000      0.000
REMARK  12 active torsions:
REMARK  status: ('A' for Active; 'I' for Inactive)
REMARK    1  A    between atoms: C2_2  and  C3_3 
REMARK    2  A    between atoms: C3_3  and  C4_4 
REMARK    3  A    between atoms: C4_4  and  C5_5 
REMARK    4  A    between atoms: C5_5  and  C6_6 
REMARK    5  A    between atoms: C6_6  and  C7_7 
REMARK    6  A    between atoms: C6_6  and  C9_11 
REMARK    7  A    between atoms: C7_7  and  C8_8 
REMARK       I    between atoms: C9_11  and  N1_13 
REMARK    8  A    between atoms: N1_13  and  C10_15 
REMARK    9  A    between atoms: C11_20  and  C12_21 
REMARK   10  A    between atoms: C12_21  and  C13_22 
REMARK   11  A    between atoms: C13_22  and  C14_23 
REMARK   12  A    between atoms: C14_23  and  C15_24 
ROOT
HETATM    1  C10 UNL     1      16.547 -18.321  36.714  1.00  0.00     0.247 A 
HETATM    2  N2  UNL     1      17.357 -19.205  36.141  1.00  0.00    -0.263 N 
ATOM      3  H2  UNL     1      18.131 -19.682  36.604  1.00  0.00     0.190 HD
HETATM    4  N3  UNL     1      17.004 -19.369  34.879  1.00  0.00    -0.280 N 
ATOM      5  H3  UNL     1      17.439 -19.982  34.190  1.00  0.00     0.189 HD
HETATM    6  C11 UNL     1      15.944 -18.553  34.694  1.00  0.00     0.142 A 
HETATM    7  O7  UNL     1      15.686 -17.933  35.808  1.00  0.00    -0.264 OA
ENDROOT
BRANCH   6   8
HETATM    8  C12 UNL     1      15.155 -18.354  33.434  1.00  0.00     0.086 C 
BRANCH   8   9
HETATM    9  C13 UNL     1      14.207 -19.502  33.213  1.00  0.00     0.010 C 
BRANCH   9  10
HETATM   10  C14 UNL     1      13.487 -19.928  34.462  1.00  0.00     0.030 C 
BRANCH  10  11
HETATM   11  C15 UNL     1      12.418 -20.921  34.114  1.00  0.00     0.202 C 
HETATM   12  C16 UNL     1      12.314 -21.987  35.171  1.00  0.00     0.237 C 
HETATM   13  O4  UNL     1      13.290 -22.271  35.913  1.00  0.00    -0.272 OA
HETATM   14  N4  UNL     1      11.040 -22.565  35.188  1.00  0.00    -0.337 N 
HETATM   15  C17 UNL     1       9.976 -21.595  35.074  1.00  0.00     0.137 C 
ATOM     16  H4  UNL     1      10.879 -23.569  35.272  1.00  0.00     0.164 HD
HETATM   17  C18 UNL     1       8.954 -22.139  34.109  1.00  0.00     0.047 C 
HETATM   18  C22 UNL     1       9.382 -21.184  36.377  1.00  0.00     0.047 C 
HETATM   19  S1  UNL     1      10.788 -20.221  34.240  1.00  0.00     0.184 S 
HETATM   20  C19 UNL     1       8.216 -23.323  34.638  1.00  0.00     0.004 C 
HETATM   21  C20 UNL     1       8.145 -23.357  36.141  1.00  0.00     0.000 C 
HETATM   22  C21 UNL     1       8.159 -21.981  36.760  1.00  0.00     0.004 C 
HETATM   23  O5  UNL     1      10.798 -19.008  35.145  1.00  0.00    -0.224 OA
HETATM   24  O6  UNL     1      10.175 -19.936  32.923  1.00  0.00    -0.224 OA
ENDBRANCH  10  11
ENDBRANCH   9  10
ENDBRANCH   8   9
ENDBRANCH   6   8
BRANCH   1  25
HETATM   25  N1  UNL     1      16.611 -17.931  37.933  1.00  0.00    -0.291 N 
HETATM   26  C9  UNL     1      16.614 -18.817  39.036  1.00  0.00     0.229 C 
HETATM   27  O3  UNL     1      17.703 -19.044  39.609  1.00  0.00    -0.273 OA
ATOM     28  H1  UNL     1      16.661 -16.929  38.119  1.00  0.00     0.172 HD
BRANCH  26  29
HETATM   29  C6  UNL     1      15.375 -19.443  39.486  1.00  0.00     0.088 C 
BRANCH  29  30
HETATM   30  C5  UNL     1      14.293 -19.569  38.470  1.00  0.00     0.014 C 
BRANCH  30  31
HETATM   31  C4  UNL     1      12.950 -19.047  38.874  1.00  0.00     0.001 C 
BRANCH  31  32
HETATM   32  C3  UNL     1      11.936 -20.095  38.372  1.00  0.00    -0.000 C 
BRANCH  32  33
HETATM   33  C2  UNL     1      12.301 -21.396  39.051  1.00  0.00    -0.005 C 
HETATM   34  C1  UNL     1      12.132 -21.270  40.550  1.00  0.00     0.005 C 
ENDBRANCH  32  33
ENDBRANCH  31  32
ENDBRANCH  30  31
ENDBRANCH  29  30
BRANCH  29  35
HETATM   35  C7  UNL     1      14.847 -18.645  40.658  1.00  0.00     0.127 C 
BRANCH  35  36
HETATM   36  C8  UNL     1      15.044 -19.373  41.920  1.00  0.00     0.173 C 
HETATM   37  O1  UNL     1      16.033 -20.103  42.166  1.00  0.00    -0.648 OA
HETATM   38  O2  UNL     1      14.045 -19.219  42.890  1.00  0.00    -0.648 OA
ENDBRANCH  35  36
ENDBRANCH  29  35
ENDBRANCH  26  29
ENDBRANCH   1  25
TORSDOF 12
ENDMDL
MODEL 2
REMARK VINA RESULT: -9.071119155      2.794      8.719
REMARK  12 active torsions:
REMARK  status: ('A' for Active; 'I' for Inactive)
REMARK    1  A    between atoms: C2_2  and  C3_3 
REMARK    2  A    between atoms: C3_3  and  C4_4 
REMARK    3  A    between atoms: C4_4  and  C5_5 
REMARK    4  A    between atoms: C5_5  and  C6_6 
REMARK    5  A    between atoms: C6_6  and  C7_7 
REMARK    6  A    between atoms: C6_6  and  C9_11 
REMARK    7  A    between atoms: C7_7  and  C8_8 
REMARK       I    between atoms: C9_11  and  N1_13 
REMARK    8  A    between atoms: N1_13  and  C10_15 
REMARK    9  A    between atoms: C11_20  and  C12_21 
REMARK   10  A    between atoms: C12_21  and  C13_22 
REMARK   11  A    between atoms: C13_22  and  C14_23 
REMARK   12  A    between atoms: C14_23  and  C15_24 
ROOT
HETATM    1  C10 UNL     1       9.452 -22.271  35.006  1.00  0.00     0.247 A 
HETATM    2  N2  UNL     1      10.009 -23.393  35.447  1.00  0.00    -0.263 N 
ATOM      3  H2  UNL     1       9.925 -24.308  35.003  1.00  0.00     0.190 HD
HETATM    4  N3  UNL     1      10.687 -23.140  36.552  1.00  0.00    -0.280 N 
ATOM      5  H3  UNL     1      11.218 -23.803  37.117  1.00  0.00     0.189 HD
HETATM    6  C11 UNL     1      10.528 -21.818  36.776  1.00  0.00     0.142 A 
HETATM    7  O7  UNL     1       9.782 -21.315  35.836  1.00  0.00    -0.264 OA
ENDROOT
BRANCH   6   8
HETATM    8  C12 UNL     1      11.094 -21.010  37.906  1.00  0.00     0.086 C 
BRANCH   8   9
HETATM    9  C13 UNL     1      11.849 -19.818  37.382  1.00  0.00     0.010 C 
BRANCH   9  10
HETATM   10  C14 UNL     1      13.273 -20.131  37.012  1.00  0.00     0.030 C 
BRANCH  10  11
HETATM   11  C15 UNL     1      14.087 -18.873  37.031  1.00  0.00     0.202 C 
HETATM   12  C16 UNL     1      15.231 -18.990  38.001  1.00  0.00     0.237 C 
HETATM   13  O4  UNL     1      15.183 -19.782  38.978  1.00  0.00    -0.272 OA
HETATM   14  N4  UNL     1      16.281 -18.132  37.658  1.00  0.00    -0.337 N 
HETATM   15  C17 UNL     1      16.570 -18.128  36.243  1.00  0.00     0.137 C 
ATOM     16  H4  UNL     1      16.790 -17.566  38.337  1.00  0.00     0.164 HD
HETATM   17  C18 UNL     1      16.787 -16.699  35.817  1.00  0.00     0.047 C 
HETATM   18  C22 UNL     1      17.691 -19.028  35.846  1.00  0.00     0.047 C 
HETATM   19  S1  UNL     1      15.004 -18.646  35.523  1.00  0.00     0.184 S 
HETATM   20  C19 UNL     1      18.036 -16.101  36.373  1.00  0.00     0.004 C 
HETATM   21  C20 UNL     1      19.099 -17.123  36.679  1.00  0.00     0.000 C 
HETATM   22  C21 UNL     1      19.028 -18.331  35.779  1.00  0.00     0.004 C 
HETATM   23  O5  UNL     1      15.182 -19.967  34.805  1.00  0.00    -0.224 OA
HETATM   24  O6  UNL     1      14.429 -17.601  34.646  1.00  0.00    -0.224 OA
ENDBRANCH  10  11
ENDBRANCH   9  10
ENDBRANCH   8   9
ENDBRANCH   6   8
BRANCH   1  25
HETATM   25  N1  UNL     1       8.725 -22.161  33.955  1.00  0.00    -0.291 N 
HETATM   26  C9  UNL     1       9.215 -22.363  32.644  1.00  0.00     0.229 C 
HETATM   27  O3  UNL     1       8.946 -23.443  32.071  1.00  0.00    -0.273 OA
ATOM     28  H1  UNL     1       7.742 -21.915  34.070  1.00  0.00     0.172 HD
BRANCH  26  29
HETATM   29  C6  UNL     1      10.013 -21.335  31.985  1.00  0.00     0.088 C 
BRANCH  29  30
HETATM   30  C5  UNL     1       9.695 -21.069  30.554  1.00  0.00     0.014 C 
BRANCH  30  31
HETATM   31  C4  UNL     1      10.746 -21.464  29.565  1.00  0.00     0.001 C 
BRANCH  31  32
HETATM   32  C3  UNL     1      10.127 -22.616  28.748  1.00  0.00    -0.000 C 
BRANCH  32  33
HETATM   33  C2  UNL     1       8.635 -22.365  28.728  1.00  0.00    -0.005 C 
HETATM   34  C1  UNL     1       7.884 -23.677  28.653  1.00  0.00     0.005 C 
ENDBRANCH  32  33
ENDBRANCH  31  32
ENDBRANCH  30  31
ENDBRANCH  29  30
BRANCH  29  35
HETATM   35  C7  UNL     1      11.469 -21.733  32.092  1.00  0.00     0.127 C 
BRANCH  35  36
HETATM   36  C8  UNL     1      12.085 -21.155  33.295  1.00  0.00     0.173 C 
HETATM   37  O1  UNL     1      12.121 -19.928  33.550  1.00  0.00    -0.648 OA
HETATM   38  O2  UNL     1      12.659 -22.061  34.196  1.00  0.00    -0.648 OA
ENDBRANCH  35  36
ENDBRANCH  29  35
ENDBRANCH  26  29
ENDBRANCH   1  25
TORSDOF 12
ENDMDL
MODEL 3
REMARK VINA RESULT: -8.962376460      2.278      3.874
REMARK  12 active torsions:
REMARK  status: ('A' for Active; 'I' for Inactive)
REMARK    1  A    between atoms: C2_2  and  C3_3 
REMARK    2  A    between atoms: C3_3  and  C4_4 
REMARK    3  A    between atoms: C4_4  and  C5_5 
REMARK    4  A    between atoms: C5_5  and  C6_6 
REMARK    5  A    between atoms: C6_6  and  C7_7 
REMARK    6  A    between atoms: C6_6  and  C9_11 
REMARK    7  A    between atoms: C7_7  and  C8_8 
REMARK       I    between atoms: C9_11  and  N1_13 
REMARK    8  A    between atoms: N1_13  and  C10_15 
REMARK    9  A    between atoms: C11_20  and  C12_21 
REMARK   10  A    between atoms: C12_21  and  C13_22 
REMARK   11  A    between atoms: C13_22  and  C14_23 
REMARK   12  A    between atoms: C14_23  and  C15_24 
ROOT
HETATM    1  C10 UNL     1      14.319 -19.315  36.175  1.00  0.00     0.247 A 
HETATM    2  N2  UNL     1      14.887 -20.365  35.592  1.00  0.00    -0.263 N 
ATOM      3  H2  UNL     1      15.778 -20.780  35.863  1.00  0.00     0.190 HD
HETATM    4  N3  UNL     1      14.117 -20.786  34.605  1.00  0.00    -0.280 N 
ATOM      5  H3  UNL     1      14.290 -21.572  33.978  1.00  0.00     0.189 HD
HETATM    6  C11 UNL     1      13.051 -19.957  34.601  1.00  0.00     0.142 A 
HETATM    7  O7  UNL     1      13.192 -19.080  35.552  1.00  0.00    -0.264 OA
ENDROOT
BRANCH   6   8
HETATM    8  C12 UNL     1      11.870 -19.994  33.677  1.00  0.00     0.086 C 
BRANCH   8   9
HETATM    9  C13 UNL     1      11.923 -21.212  32.794  1.00  0.00     0.010 C 
BRANCH   9  10
HETATM   10  C14 UNL     1      11.142 -22.376  33.339  1.00  0.00     0.030 C 
BRANCH  10  11
HETATM   11  C15 UNL     1       9.697 -21.996  33.473  1.00  0.00     0.202 C 
HETATM   12  C16 UNL     1       8.825 -22.918  32.665  1.00  0.00     0.237 C 
HETATM   13  O4  UNL     1       9.274 -23.536  31.666  1.00  0.00    -0.272 OA
HETATM   14  N4  UNL     1       7.524 -22.966  33.176  1.00  0.00    -0.337 N 
HETATM   15  C17 UNL     1       7.484 -23.060  34.617  1.00  0.00     0.137 C 
ATOM     16  H4  UNL     1       6.688 -22.938  32.592  1.00  0.00     0.164 HD
HETATM   17  C18 UNL     1       6.415 -22.122  35.115  1.00  0.00     0.047 C 
HETATM   18  C22 UNL     1       7.324 -24.449  35.134  1.00  0.00     0.047 C 
HETATM   19  S1  UNL     1       9.063 -22.340  35.098  1.00  0.00     0.184 S 
HETATM   20  C19 UNL     1       5.034 -22.559  34.755  1.00  0.00     0.004 C 
HETATM   21  C20 UNL     1       4.912 -24.047  34.564  1.00  0.00     0.000 C 
HETATM   22  C21 UNL     1       5.889 -24.828  35.407  1.00  0.00     0.004 C 
HETATM   23  O5  UNL     1       9.912 -23.385  35.791  1.00  0.00    -0.224 OA
HETATM   24  O6  UNL     1       8.884 -21.123  35.922  1.00  0.00    -0.224 OA
ENDBRANCH  10  11
ENDBRANCH   9  10
ENDBRANCH   8   9
ENDBRANCH   6   8
BRANCH   1  25
HETATM   25  N1  UNL     1      14.800 -18.661  37.168  1.00  0.00    -0.291 N 
HETATM   26  C9  UNL     1      14.845 -19.169  38.487  1.00  0.00     0.229 C 
HETATM   27  O3  UNL     1      15.940 -19.593  38.920  1.00  0.00    -0.273 OA
ATOM     28  H1  UNL     1      15.170 -17.725  36.997  1.00  0.00     0.172 HD
BRANCH  26  29
HETATM   29  C6  UNL     1      13.643 -19.192  39.312  1.00  0.00     0.088 C 
BRANCH  29  30
HETATM   30  C5  UNL     1      13.758 -18.576  40.664  1.00  0.00     0.014 C 
BRANCH  30  31
HETATM   31  C4  UNL     1      13.869 -19.530  41.812  1.00  0.00     0.001 C 
BRANCH  31  32
HETATM   32  C3  UNL     1      15.290 -19.328  42.376  1.00  0.00    -0.000 C 
BRANCH  32  33
HETATM   33  C2  UNL     1      15.711 -17.933  41.972  1.00  0.00    -0.005 C 
HETATM   34  C1  UNL     1      17.197 -17.750  42.188  1.00  0.00     0.005 C 
ENDBRANCH  32  33
ENDBRANCH  31  32
ENDBRANCH  30  31
ENDBRANCH  29  30
BRANCH  29  35
HETATM   35  C7  UNL     1      13.213 -20.634  39.473  1.00  0.00     0.127 C 
BRANCH  35  36
HETATM   36  C8  UNL     1      12.354 -21.054  38.357  1.00  0.00     0.173 C 
HETATM   37  O1  UNL     1      11.175 -20.661  38.188  1.00  0.00    -0.648 OA
HETATM   38  O2  UNL     1      12.917 -21.950  37.440  1.00  0.00    -0.648 OA
ENDBRANCH  35  36
ENDBRANCH  29  35
ENDBRANCH  26  29
ENDBRANCH   1  25
TORSDOF 12
ENDMDL
MODEL 4
REMARK VINA RESULT: -8.956385840      3.308      8.551
REMARK  12 active torsions:
REMARK  status: ('A' for Active; 'I' for Inactive)
REMARK    1  A    between atoms: C2_2  and  C3_3 
REMARK    2  A    between atoms: C3_3  and  C4_4 
REMARK    3  A    between atoms: C4_4  and  C5_5 
REMARK    4  A    between atoms: C5_5  and  C6_6 
REMARK    5  A    between atoms: C6_6  and  C7_7 
REMARK    6  A    between atoms: C6_6  and  C9_11 
REMARK    7  A    between atoms: C7_7  and  C8_8 
REMARK       I    between atoms: C9_11  and  N1_13 
REMARK    8  A    between atoms: N1_13  and  C10_15 
REMARK    9  A    between atoms: C11_20  and  C12_21 
REMARK   10  A    between atoms: C12_21  and  C13_22 
REMARK   11  A    between atoms: C13_22  and  C14_23 
REMARK   12  A    between atoms: C14_23  and  C15_24 
ROOT
HETATM    1  C10 UNL     1       8.449 -23.675  31.865  1.00  0.00     0.247 A 
HETATM    2  N2  UNL     1       7.813 -22.780  31.116  1.00  0.00    -0.263 N 
ATOM      3  H2  UNL     1       6.831 -22.829  30.846  1.00  0.00     0.190 HD
HETATM    4  N3  UNL     1       8.652 -21.819  30.777  1.00  0.00    -0.280 N 
ATOM      5  H3  UNL     1       8.452 -20.997  30.206  1.00  0.00     0.189 HD
HETATM    6  C11 UNL     1       9.831 -22.153  31.344  1.00  0.00     0.142 A 
HETATM    7  O7  UNL     1       9.687 -23.271  31.993  1.00  0.00    -0.264 OA
ENDROOT
BRANCH   6   8
HETATM    8  C12 UNL     1      11.125 -21.397  31.272  1.00  0.00     0.086 C 
BRANCH   8   9
HETATM    9  C13 UNL     1      11.845 -21.448  32.593  1.00  0.00     0.010 C 
BRANCH   9  10
HETATM   10  C14 UNL     1      11.180 -20.632  33.666  1.00  0.00     0.030 C 
BRANCH  10  11
HETATM   11  C15 UNL     1      12.201 -20.197  34.674  1.00  0.00     0.202 C 
HETATM   12  C16 UNL     1      11.586 -19.276  35.694  1.00  0.00     0.237 C 
HETATM   13  O4  UNL     1      10.561 -18.597  35.429  1.00  0.00    -0.272 OA
HETATM   14  N4  UNL     1      12.298 -19.303  36.898  1.00  0.00    -0.337 N 
HETATM   15  C17 UNL     1      12.673 -20.636  37.306  1.00  0.00     0.137 C 
ATOM     16  H4  UNL     1      12.528 -18.466  37.434  1.00  0.00     0.164 HD
HETATM   17  C18 UNL     1      14.098 -20.589  37.794  1.00  0.00     0.047 C 
HETATM   18  C22 UNL     1      11.743 -21.259  38.290  1.00  0.00     0.047 C 
HETATM   19  S1  UNL     1      12.696 -21.530  35.743  1.00  0.00     0.184 S 
HETATM   20  C19 UNL     1      14.258 -19.836  39.072  1.00  0.00     0.004 C 
HETATM   21  C20 UNL     1      13.013 -19.830  39.919  1.00  0.00     0.000 C 
HETATM   22  C21 UNL     1      12.167 -21.064  39.726  1.00  0.00     0.004 C 
HETATM   23  O5  UNL     1      11.643 -22.618  35.760  1.00  0.00    -0.224 OA
HETATM   24  O6  UNL     1      14.044 -22.055  35.429  1.00  0.00    -0.224 OA
ENDBRANCH  10  11
ENDBRANCH   9  10
ENDBRANCH   8   9
ENDBRANCH   6   8
BRANCH   1  25
HETATM   25  N1  UNL     1       7.930 -24.736  32.364  1.00  0.00    -0.291 N 
HETATM   26  C9  UNL     1       6.651 -24.767  32.968  1.00  0.00     0.229 C 
HETATM   27  O3  UNL     1       5.700 -25.249  32.314  1.00  0.00    -0.273 OA
ATOM     28  H1  UNL     1       8.466 -25.602  32.323  1.00  0.00     0.172 HD
BRANCH  26  29
HETATM   29  C6  UNL     1       6.458 -24.250  34.318  1.00  0.00     0.088 C 
BRANCH  29  30
HETATM   30  C5  UNL     1       7.333 -24.826  35.377  1.00  0.00     0.014 C 
BRANCH  30  31
HETATM   31  C4  UNL     1       8.192 -23.852  36.121  1.00  0.00     0.001 C 
BRANCH  31  32
HETATM   32  C3  UNL     1       8.150 -22.553  35.290  1.00  0.00    -0.000 C 
BRANCH  32  33
HETATM   33  C2  UNL     1       8.584 -21.442  36.220  1.00  0.00    -0.005 C 
HETATM   34  C1  UNL     1       7.772 -21.481  37.497  1.00  0.00     0.005 C 
ENDBRANCH  32  33
ENDBRANCH  31  32
ENDBRANCH  30  31
ENDBRANCH  29  30
BRANCH  29  35
HETATM   35  C7  UNL     1       5.013 -24.482  34.706  1.00  0.00     0.127 C 
BRANCH  35  36
HETATM   36  C8  UNL     1       4.245 -23.231  34.642  1.00  0.00     0.173 C 
HETATM   37  O1  UNL     1       4.760 -22.091  34.545  1.00  0.00    -0.648 OA
HETATM   38  O2  UNL     1       2.851 -23.352  34.694  1.00  0.00    -0.648 OA
ENDBRANCH  35  36
ENDBRANCH  29  35
ENDBRANCH  26  29
ENDBRANCH   1  25
TORSDOF 12
ENDMDL
MODEL 5
REMARK VINA RESULT: -8.940229296      1.013      1.848
REMARK  12 active torsions:
REMARK  status: ('A' for Active; 'I' for Inactive)
REMARK    1  A    between atoms: C2_2  and  C3_3 
REMARK    2  A    between atoms: C3_3  and  C4_4 
REMARK    3  A    between atoms: C4_4  and  C5_5 
REMARK    4  A    between atoms: C5_5  and  C6_6 
REMARK    5  A    between atoms: C6_6  and  C7_7 
REMARK    6  A    between atoms: C6_6  and  C9_11 
REMARK    7  A    between atoms: C7_7  and  C8_8 
REMARK       I    between atoms: C9_11  and  N1_13 
REMARK    8  A    between atoms: N1_13  and  C10_15 
REMARK    9  A    between atoms: C11_20  and  C12_21 
REMARK   10  A    between atoms: C12_21  and  C13_22 
REMARK   11  A    between atoms: C13_22  and  C14_23 
REMARK   12  A    between atoms: C14_23  and  C15_24 
ROOT
HETATM    1  C10 UNL     1      16.639 -18.389  36.992  1.00  0.00     0.247 A 
HETATM    2  N2  UNL     1      17.611 -19.151  36.501  1.00  0.00    -0.263 N 
ATOM      3  H2  UNL     1      18.458 -19.421  37.000  1.00  0.00     0.190 HD
HETATM    4  N3  UNL     1      17.308 -19.503  35.265  1.00  0.00    -0.280 N 
ATOM      5  H3  UNL     1      17.860 -20.085  34.635  1.00  0.00     0.189 HD
HETATM    6  C11 UNL     1      16.111 -18.931  35.011  1.00  0.00     0.142 A 
HETATM    7  O7  UNL     1      15.728 -18.266  36.061  1.00  0.00    -0.264 OA
ENDROOT
BRANCH   6   8
HETATM    8  C12 UNL     1      15.311 -19.014  33.745  1.00  0.00     0.086 C 
BRANCH   8   9
HETATM    9  C13 UNL     1      14.344 -20.166  33.802  1.00  0.00     0.010 C 
BRANCH   9  10
HETATM   10  C14 UNL     1      12.905 -19.733  33.852  1.00  0.00     0.030 C 
BRANCH  10  11
HETATM   11  C15 UNL     1      12.170 -20.544  34.878  1.00  0.00     0.202 C 
HETATM   12  C16 UNL     1      10.818 -19.947  35.162  1.00  0.00     0.237 C 
HETATM   13  O4  UNL     1      10.588 -18.725  34.971  1.00  0.00    -0.272 OA
HETATM   14  N4  UNL     1       9.926 -20.913  35.642  1.00  0.00    -0.337 N 
HETATM   15  C17 UNL     1       9.995 -22.158  34.914  1.00  0.00     0.137 C 
ATOM     16  H4  UNL     1       9.292 -20.753  36.425  1.00  0.00     0.164 HD
HETATM   17  C18 UNL     1       9.957 -23.284  35.916  1.00  0.00     0.047 C 
HETATM   18  C22 UNL     1       8.966 -22.299  33.845  1.00  0.00     0.047 C 
HETATM   19  S1  UNL     1      11.665 -22.127  34.243  1.00  0.00     0.184 S 
HETATM   20  C19 UNL     1       8.638 -23.417  36.602  1.00  0.00     0.004 C 
HETATM   21  C20 UNL     1       7.486 -22.899  35.783  1.00  0.00     0.000 C 
HETATM   22  C21 UNL     1       7.721 -23.021  34.298  1.00  0.00     0.004 C 
HETATM   23  O5  UNL     1      11.608 -22.100  32.730  1.00  0.00    -0.224 OA
HETATM   24  O6  UNL     1      12.486 -23.247  34.756  1.00  0.00    -0.224 OA
ENDBRANCH  10  11
ENDBRANCH   9  10
ENDBRANCH   8   9
ENDBRANCH   6   8
BRANCH   1  25
HETATM   25  N1  UNL     1      16.615 -17.876  38.167  1.00  0.00    -0.291 N 
HETATM   26  C9  UNL     1      16.505 -18.643  39.350  1.00  0.00     0.229 C 
HETATM   27  O3  UNL     1      17.537 -18.830  40.032  1.00  0.00    -0.273 OA
ATOM     28  H1  UNL     1      16.677 -16.861  38.253  1.00  0.00     0.172 HD
BRANCH  26  29
HETATM   29  C6  UNL     1      15.218 -19.196  39.756  1.00  0.00     0.088 C 
BRANCH  29  30
HETATM   30  C5  UNL     1      14.113 -19.098  38.761  1.00  0.00     0.014 C 
BRANCH  30  31
HETATM   31  C4  UNL     1      13.655 -20.390  38.160  1.00  0.00     0.001 C 
BRANCH  31  32
HETATM   32  C3  UNL     1      12.157 -20.495  38.509  1.00  0.00    -0.000 C 
BRANCH  32  33
HETATM   33  C2  UNL     1      11.999 -21.766  39.314  1.00  0.00    -0.005 C 
HETATM   34  C1  UNL     1      12.199 -21.483  40.787  1.00  0.00     0.005 C 
ENDBRANCH  32  33
ENDBRANCH  31  32
ENDBRANCH  30  31
ENDBRANCH  29  30
BRANCH  29  35
HETATM   35  C7  UNL     1      14.787 -18.495  41.027  1.00  0.00     0.127 C 
BRANCH  35  36
HETATM   36  C8  UNL     1      14.821 -19.416  42.172  1.00  0.00     0.173 C 
HETATM   37  O1  UNL     1      14.220 -19.219  43.254  1.00  0.00    -0.648 OA
HETATM   38  O2  UNL     1      15.582 -20.581  42.012  1.00  0.00    -0.648 OA
ENDBRANCH  35  36
ENDBRANCH  29  35
ENDBRANCH  26  29
ENDBRANCH   1  25
TORSDOF 12
ENDMDL
