MODEL 1
REMARK VINA RESULT: -8.898117728      0.000      0.000
REMARK  14 active torsions:
REMARK  status: ('A' for Active; 'I' for Inactive)
REMARK    1  A    between atoms: C2_2  and  C3_3 
REMARK    2  A    between atoms: C3_3  and  C4_4 
REMARK    3  A    between atoms: C5_5  and  C6_6 
REMARK    4  A    between atoms: C6_6  and  C7_7 
REMARK    5  A    between atoms: C8_9  and  N1_10 
REMARK    6  A    between atoms: N3_13  and  C9_14 
REMARK    7  A    between atoms: C9_14  and  C10_15 
REMARK    8  A    between atoms: C13_18  and  C14_19 
REMARK    9  A    between atoms: N4_24  and  C19_25 
REMARK   10  A    between atoms: C19_25  and  C20_26 
REMARK   11  A    between atoms: C20_26  and  C21_27 
REMARK   12  A    between atoms: C26_32  and  O2_33 
REMARK   13  A    between atoms: C27_35  and  O3_36 
REMARK   14  A    between atoms: C28_38  and  O4_39 
ROOT
HETATM    1  N1  UNL     1       8.744 -22.926  35.130  1.00  0.00    -0.249 N 
HETATM    2  N2  UNL     1       9.922 -23.281  34.658  1.00  0.00    -0.236 N 
ATOM      3  H2  UNL     1      10.063 -23.924  33.879  1.00  0.00     0.209 HD
HETATM    4  N3  UNL     1      10.916 -22.680  35.344  1.00  0.00    -0.281 N 
HETATM    5  C23 UNL     1      10.282 -21.938  36.263  1.00  0.00     0.138 A 
HETATM    6  C24 UNL     1       8.910 -22.071  36.154  1.00  0.00     0.046 A 
HETATM    7  C25 UNL     1       7.830 -21.440  36.953  1.00  0.00     0.071 C 
ENDROOT
BRANCH   1   8
HETATM    8  C8  UNL     1       7.490 -23.414  34.574  1.00  0.00     0.277 C 
HETATM    9  O1  UNL     1       7.573 -23.410  33.205  1.00  0.00    -0.354 OA
HETATM   10  C7  UNL     1       6.462 -23.830  32.532  1.00  0.00     0.159 C 
HETATM   11  C28 UNL     1       5.835 -25.097  33.017  1.00  0.00     0.178 C 
HETATM   12  C27 UNL     1       5.921 -25.268  34.515  1.00  0.00     0.182 C 
HETATM   13  C26 UNL     1       7.282 -24.877  34.993  1.00  0.00     0.200 C 
BRANCH  10  14
HETATM   14  C6  UNL     1       6.896 -24.020  31.080  1.00  0.00     0.061 C 
BRANCH  14  15
HETATM   15  C5  UNL     1       8.250 -23.537  30.799  1.00  0.00    -0.028 C 
HETATM   16  C4  UNL     1       8.493 -22.458  30.057  1.00  0.00    -0.031 C 
BRANCH  16  17
HETATM   17  C3  UNL     1       9.873 -21.978  29.779  1.00  0.00     0.026 C 
BRANCH  17  18
HETATM   18  C2  UNL     1      10.633 -21.680  31.041  1.00  0.00    -0.001 C 
HETATM   19  C1  UNL     1       9.921 -20.729  31.947  1.00  0.00     0.005 C 
ENDBRANCH  17  18
ENDBRANCH  16  17
ENDBRANCH  14  15
ENDBRANCH  10  14
BRANCH  11  20
HETATM   20  O4  UNL     1       6.414 -26.226  32.434  1.00  0.00    -0.390 OA
ATOM     21  H4  UNL     1       5.921 -27.016  32.619  1.00  0.00     0.210 HD
ENDBRANCH  11  20
BRANCH  12  22
HETATM   22  O3  UNL     1       4.887 -24.636  35.165  1.00  0.00    -0.390 OA
ATOM     23  H3  UNL     1       4.576 -25.087  35.941  1.00  0.00     0.210 HD
ENDBRANCH  12  22
BRANCH  13  24
HETATM   24  O2  UNL     1       7.453 -25.041  36.347  1.00  0.00    -0.388 OA
ATOM     25  H2  UNL     1       8.002 -25.793  36.539  1.00  0.00     0.210 HD
ENDBRANCH  13  24
ENDBRANCH   1   8
BRANCH   4  26
HETATM   26  C9  UNL     1      12.336 -22.833  35.082  1.00  0.00     0.206 C 
BRANCH  26  27
HETATM   27  C10 UNL     1      13.075 -21.559  34.971  1.00  0.00     0.023 C 
HETATM   28  C11 UNL     1      12.933 -20.791  33.877  1.00  0.00     0.000 C 
HETATM   29  C12 UNL     1      13.636 -19.529  33.714  1.00  0.00     0.036 C 
HETATM   30  C13 UNL     1      14.555 -19.119  34.806  1.00  0.00     0.014 C 
HETATM   31  C18 UNL     1      15.110 -20.334  35.547  1.00  0.00     0.128 C 
HETATM   32  N4  UNL     1      13.936 -21.064  35.982  1.00  0.00    -0.383 N 
BRANCH  30  33
HETATM   33  C14 UNL     1      15.656 -18.202  34.350  1.00  0.00    -0.046 C 
HETATM   34  C15 UNL     1      16.994 -18.918  34.493  1.00  0.00     0.015 C 
HETATM   35  C16 UNL     1      15.755 -16.980  35.268  1.00  0.00     0.015 C 
HETATM   36  C17 UNL     1      15.522 -17.766  32.922  1.00  0.00     0.015 C 
ENDBRANCH  30  33
BRANCH  32  37
HETATM   37  C19 UNL     1      13.612 -21.285  37.370  1.00  0.00     0.122 C 
BRANCH  37  38
HETATM   38  C20 UNL     1      14.081 -20.138  38.248  1.00  0.00     0.019 C 
BRANCH  38  39
HETATM   39  C21 UNL     1      12.940 -19.159  38.416  1.00  0.00    -0.003 C 
HETATM   40  C22 UNL     1      12.923 -18.712  39.880  1.00  0.00     0.005 C 
ENDBRANCH  38  39
ENDBRANCH  37  38
ENDBRANCH  32  37
ENDBRANCH  26  27
ENDBRANCH   4  26
TORSDOF 14
ENDMDL
MODEL 2
REMARK VINA RESULT: -8.851612011      4.607     10.121
REMARK  14 active torsions:
REMARK  status: ('A' for Active; 'I' for Inactive)
REMARK    1  A    between atoms: C2_2  and  C3_3 
REMARK    2  A    between atoms: C3_3  and  C4_4 
REMARK    3  A    between atoms: C5_5  and  C6_6 
REMARK    4  A    between atoms: C6_6  and  C7_7 
REMARK    5  A    between atoms: C8_9  and  N1_10 
REMARK    6  A    between atoms: N3_13  and  C9_14 
REMARK    7  A    between atoms: C9_14  and  C10_15 
REMARK    8  A    between atoms: C13_18  and  C14_19 
REMARK    9  A    between atoms: N4_24  and  C19_25 
REMARK   10  A    between atoms: C19_25  and  C20_26 
REMARK   11  A    between atoms: C20_26  and  C21_27 
REMARK   12  A    between atoms: C26_32  and  O2_33 
REMARK   13  A    between atoms: C27_35  and  O3_36 
REMARK   14  A    between atoms: C28_38  and  O4_39 
ROOT
HETATM    1  N1  UNL     1      15.503 -19.005  35.765  1.00  0.00    -0.249 N 
HETATM    2  N2  UNL     1      15.139 -20.181  36.236  1.00  0.00    -0.236 N 
ATOM      3  H2  UNL     1      15.534 -20.618  37.068  1.00  0.00     0.209 HD
HETATM    4  N3  UNL     1      14.173 -20.728  35.469  1.00  0.00    -0.281 N 
HETATM    5  C23 UNL     1      13.967 -19.823  34.501  1.00  0.00     0.138 A 
HETATM    6  C24 UNL     1      14.791 -18.724  34.660  1.00  0.00     0.046 A 
HETATM    7  C25 UNL     1      14.902 -17.495  33.835  1.00  0.00     0.071 C 
ENDROOT
BRANCH   1   8
HETATM    8  C8  UNL     1      16.523 -18.182  36.398  1.00  0.00     0.277 C 
HETATM    9  O1  UNL     1      16.486 -18.385  37.755  1.00  0.00    -0.354 OA
HETATM   10  C7  UNL     1      17.379 -17.666  38.497  1.00  0.00     0.159 C 
HETATM   11  C28 UNL     1      18.791 -17.657  38.004  1.00  0.00     0.178 C 
HETATM   12  C27 UNL     1      18.896 -17.668  36.498  1.00  0.00     0.182 C 
HETATM   13  C26 UNL     1      17.912 -18.638  35.928  1.00  0.00     0.200 C 
BRANCH  10  14
HETATM   14  C6  UNL     1      17.350 -18.275  39.896  1.00  0.00     0.061 C 
BRANCH  14  15
HETATM   15  C5  UNL     1      16.116 -19.006  40.198  1.00  0.00    -0.028 C 
HETATM   16  C4  UNL     1      15.687 -19.216  41.441  1.00  0.00    -0.031 C 
BRANCH  16  17
HETATM   17  C3  UNL     1      14.432 -19.960  41.734  1.00  0.00     0.026 C 
BRANCH  17  18
HETATM   18  C2  UNL     1      13.384 -19.737  40.680  1.00  0.00    -0.001 C 
HETATM   19  C1  UNL     1      12.491 -20.918  40.480  1.00  0.00     0.005 C 
ENDBRANCH  17  18
ENDBRANCH  16  17
ENDBRANCH  14  15
ENDBRANCH  10  14
BRANCH  11  20
HETATM   20  O4  UNL     1      19.520 -18.747  38.483  1.00  0.00    -0.390 OA
ATOM     21  H4  UNL     1      20.139 -18.494  39.157  1.00  0.00     0.210 HD
ENDBRANCH  11  20
BRANCH  12  22
HETATM   22  O3  UNL     1      18.817 -16.402  35.967  1.00  0.00    -0.390 OA
ATOM     23  H3  UNL     1      19.021 -15.705  36.580  1.00  0.00     0.210 HD
ENDBRANCH  12  22
BRANCH  13  24
HETATM   24  O2  UNL     1      17.972 -18.736  34.558  1.00  0.00    -0.388 OA
ATOM     25  H2  UNL     1      17.981 -19.643  34.274  1.00  0.00     0.210 HD
ENDBRANCH  13  24
ENDBRANCH   1   8
BRANCH   4  26
HETATM   26  C9  UNL     1      13.529 -22.007  35.705  1.00  0.00     0.206 C 
BRANCH  26  27
HETATM   27  C10 UNL     1      12.056 -21.945  35.774  1.00  0.00     0.023 C 
HETATM   28  C11 UNL     1      11.455 -21.285  36.779  1.00  0.00     0.000 C 
HETATM   29  C12 UNL     1      10.009 -21.192  36.896  1.00  0.00     0.036 C 
HETATM   30  C13 UNL     1       9.198 -21.885  35.863  1.00  0.00     0.014 C 
HETATM   31  C18 UNL     1       9.949 -23.083  35.285  1.00  0.00     0.128 C 
HETATM   32  N4  UNL     1      11.202 -22.535  34.808  1.00  0.00    -0.383 N 
BRANCH  30  33
HETATM   33  C14 UNL     1       7.826 -22.272  36.338  1.00  0.00    -0.046 C 
HETATM   34  C15 UNL     1       7.521 -21.538  37.639  1.00  0.00     0.015 C 
HETATM   35  C16 UNL     1       7.780 -23.761  36.696  1.00  0.00     0.015 C 
HETATM   36  C17 UNL     1       6.736 -21.942  35.362  1.00  0.00     0.015 C 
ENDBRANCH  30  33
BRANCH  32  37
HETATM   37  C19 UNL     1      11.595 -22.551  33.420  1.00  0.00     0.122 C 
BRANCH  37  38
HETATM   38  C20 UNL     1      11.126 -21.307  32.686  1.00  0.00     0.019 C 
BRANCH  38  39
HETATM   39  C21 UNL     1      10.057 -21.705  31.692  1.00  0.00    -0.003 C 
HETATM   40  C22 UNL     1      10.673 -21.625  30.293  1.00  0.00     0.005 C 
ENDBRANCH  38  39
ENDBRANCH  37  38
ENDBRANCH  32  37
ENDBRANCH  26  27
ENDBRANCH   4  26
TORSDOF 14
ENDMDL
MODEL 3
REMARK VINA RESULT: -8.393442656      3.049      9.288
REMARK  14 active torsions:
REMARK  status: ('A' for Active; 'I' for Inactive)
REMARK    1  A    between atoms: C2_2  and  C3_3 
REMARK    2  A    between atoms: C3_3  and  C4_4 
REMARK    3  A    between atoms: C5_5  and  C6_6 
REMARK    4  A    between atoms: C6_6  and  C7_7 
REMARK    5  A    between atoms: C8_9  and  N1_10 
REMARK    6  A    between atoms: N3_13  and  C9_14 
REMARK    7  A    between atoms: C9_14  and  C10_15 
REMARK    8  A    between atoms: C13_18  and  C14_19 
REMARK    9  A    between atoms: N4_24  and  C19_25 
REMARK   10  A    between atoms: C19_25  and  C20_26 
REMARK   11  A    between atoms: C20_26  and  C21_27 
REMARK   12  A    between atoms: C26_32  and  O2_33 
REMARK   13  A    between atoms: C27_35  and  O3_36 
REMARK   14  A    between atoms: C28_38  and  O4_39 
ROOT
HETATM    1  N1  UNL     1       8.651 -22.231  34.960  1.00  0.00    -0.249 N 
HETATM    2  N2  UNL     1       8.799 -22.763  33.763  1.00  0.00    -0.236 N 
ATOM      3  H2  UNL     1       9.520 -22.491  33.095  1.00  0.00     0.209 HD
HETATM    4  N3  UNL     1       7.868 -23.714  33.542  1.00  0.00    -0.281 N 
HETATM    5  C23 UNL     1       7.141 -23.735  34.669  1.00  0.00     0.138 A 
HETATM    6  C24 UNL     1       7.610 -22.811  35.584  1.00  0.00     0.046 A 
HETATM    7  C25 UNL     1       7.119 -22.493  36.948  1.00  0.00     0.071 C 
ENDROOT
BRANCH   1   8
HETATM    8  C8  UNL     1       9.523 -21.183  35.473  1.00  0.00     0.277 C 
HETATM    9  O1  UNL     1      10.246 -21.677  36.529  1.00  0.00    -0.354 OA
HETATM   10  C7  UNL     1      11.105 -20.804  37.133  1.00  0.00     0.159 C 
HETATM   11  C28 UNL     1      11.981 -20.005  36.223  1.00  0.00     0.178 C 
HETATM   12  C27 UNL     1      11.306 -19.626  34.927  1.00  0.00     0.182 C 
HETATM   13  C26 UNL     1      10.543 -20.794  34.392  1.00  0.00     0.200 C 
BRANCH  10  14
HETATM   14  C6  UNL     1      11.986 -21.648  38.050  1.00  0.00     0.061 C 
BRANCH  14  15
HETATM   15  C5  UNL     1      12.218 -21.047  39.366  1.00  0.00    -0.028 C 
HETATM   16  C4  UNL     1      12.988 -19.974  39.546  1.00  0.00    -0.031 C 
BRANCH  16  17
HETATM   17  C3  UNL     1      13.214 -19.374  40.887  1.00  0.00     0.026 C 
BRANCH  17  18
HETATM   18  C2  UNL     1      14.204 -20.161  41.700  1.00  0.00    -0.001 C 
HETATM   19  C1  UNL     1      14.545 -19.514  43.002  1.00  0.00     0.005 C 
ENDBRANCH  17  18
ENDBRANCH  16  17
ENDBRANCH  14  15
ENDBRANCH  10  14
BRANCH  11  20
HETATM   20  O4  UNL     1      13.158 -20.683  35.899  1.00  0.00    -0.390 OA
ATOM     21  H4  UNL     1      13.783 -20.675  36.614  1.00  0.00     0.210 HD
ENDBRANCH  11  20
BRANCH  12  22
HETATM   22  O3  UNL     1      10.567 -18.472  35.050  1.00  0.00    -0.390 OA
ATOM     23  H3  UNL     1      11.080 -17.694  35.229  1.00  0.00     0.210 HD
ENDBRANCH  12  22
BRANCH  13  24
HETATM   24  O2  UNL     1       9.928 -20.541  33.189  1.00  0.00    -0.388 OA
ATOM     25  H2  UNL     1      10.090 -21.237  32.563  1.00  0.00     0.210 HD
ENDBRANCH  13  24
ENDBRANCH   1   8
BRANCH   4  26
HETATM   26  C9  UNL     1       7.748 -24.513  32.337  1.00  0.00     0.206 C 
BRANCH  26  27
HETATM   27  C10 UNL     1       6.820 -23.962  31.329  1.00  0.00     0.023 C 
HETATM   28  C11 UNL     1       5.501 -23.915  31.582  1.00  0.00     0.000 C 
HETATM   29  C12 UNL     1       4.542 -23.384  30.626  1.00  0.00     0.036 C 
HETATM   30  C13 UNL     1       5.075 -22.906  29.325  1.00  0.00     0.014 C 
HETATM   31  C18 UNL     1       6.358 -23.644  28.950  1.00  0.00     0.128 C 
HETATM   32  N4  UNL     1       7.242 -23.439  30.080  1.00  0.00    -0.383 N 
BRANCH  30  33
HETATM   33  C14 UNL     1       4.066 -22.954  28.211  1.00  0.00    -0.046 C 
HETATM   34  C15 UNL     1       3.371 -24.310  28.224  1.00  0.00     0.015 C 
HETATM   35  C16 UNL     1       4.764 -22.873  26.850  1.00  0.00     0.015 C 
HETATM   36  C17 UNL     1       3.008 -21.897  28.313  1.00  0.00     0.015 C 
ENDBRANCH  30  33
BRANCH  32  37
HETATM   37  C19 UNL     1       8.493 -22.729  29.987  1.00  0.00     0.122 C 
BRANCH  37  38
HETATM   38  C20 UNL     1       8.938 -22.555  28.545  1.00  0.00     0.019 C 
BRANCH  38  39
HETATM   39  C21 UNL     1      10.399 -22.162  28.533  1.00  0.00    -0.003 C 
HETATM   40  C22 UNL     1      10.756 -21.663  29.935  1.00  0.00     0.005 C 
ENDBRANCH  38  39
ENDBRANCH  37  38
ENDBRANCH  32  37
ENDBRANCH  26  27
ENDBRANCH   4  26
TORSDOF 14
ENDMDL
MODEL 4
REMARK VINA RESULT: -8.180223191      5.035     10.771
REMARK  14 active torsions:
REMARK  status: ('A' for Active; 'I' for Inactive)
REMARK    1  A    between atoms: C2_2  and  C3_3 
REMARK    2  A    between atoms: C3_3  and  C4_4 
REMARK    3  A    between atoms: C5_5  and  C6_6 
REMARK    4  A    between atoms: C6_6  and  C7_7 
REMARK    5  A    between atoms: C8_9  and  N1_10 
REMARK    6  A    between atoms: N3_13  and  C9_14 
REMARK    7  A    between atoms: C9_14  and  C10_15 
REMARK    8  A    between atoms: C13_18  and  C14_19 
REMARK    9  A    between atoms: N4_24  and  C19_25 
REMARK   10  A    between atoms: C19_25  and  C20_26 
REMARK   11  A    between atoms: C20_26  and  C21_27 
REMARK   12  A    between atoms: C26_32  and  O2_33 
REMARK   13  A    between atoms: C27_35  and  O3_36 
REMARK   14  A    between atoms: C28_38  and  O4_39 
ROOT
HETATM    1  N1  UNL     1      15.512 -19.023  35.672  1.00  0.00    -0.249 N 
HETATM    2  N2  UNL     1      15.147 -20.185  36.175  1.00  0.00    -0.236 N 
ATOM      3  H2  UNL     1      15.550 -20.605  37.013  1.00  0.00     0.209 HD
HETATM    4  N3  UNL     1      14.171 -20.746  35.432  1.00  0.00    -0.281 N 
HETATM    5  C23 UNL     1      13.958 -19.863  34.445  1.00  0.00     0.138 A 
HETATM    6  C24 UNL     1      14.788 -18.765  34.569  1.00  0.00     0.046 A 
HETATM    7  C25 UNL     1      14.897 -17.556  33.714  1.00  0.00     0.071 C 
ENDROOT
BRANCH   1   8
HETATM    8  C8  UNL     1      16.542 -18.189  36.276  1.00  0.00     0.277 C 
HETATM    9  O1  UNL     1      16.503 -18.342  37.638  1.00  0.00    -0.354 OA
HETATM   10  C7  UNL     1      17.405 -17.607  38.354  1.00  0.00     0.159 C 
HETATM   11  C28 UNL     1      18.816 -17.633  37.861  1.00  0.00     0.178 C 
HETATM   12  C27 UNL     1      18.920 -17.700  36.356  1.00  0.00     0.182 C 
HETATM   13  C26 UNL     1      17.925 -18.679  35.822  1.00  0.00     0.200 C 
BRANCH  10  14
HETATM   14  C6  UNL     1      17.369 -18.165  39.774  1.00  0.00     0.061 C 
BRANCH  14  15
HETATM   15  C5  UNL     1      16.902 -17.203  40.776  1.00  0.00    -0.028 C 
HETATM   16  C4  UNL     1      17.686 -16.256  41.290  1.00  0.00    -0.031 C 
BRANCH  16  17
HETATM   17  C3  UNL     1      17.199 -15.286  42.307  1.00  0.00     0.026 C 
BRANCH  17  18
HETATM   18  C2  UNL     1      17.582 -15.690  43.703  1.00  0.00    -0.001 C 
HETATM   19  C1  UNL     1      18.915 -16.358  43.778  1.00  0.00     0.005 C 
ENDBRANCH  17  18
ENDBRANCH  16  17
ENDBRANCH  14  15
ENDBRANCH  10  14
BRANCH  11  20
HETATM   20  O4  UNL     1      19.532 -18.713  38.379  1.00  0.00    -0.390 OA
ATOM     21  H4  UNL     1      19.004 -19.246  38.960  1.00  0.00     0.210 HD
ENDBRANCH  11  20
BRANCH  12  22
HETATM   22  O3  UNL     1      18.857 -16.453  35.779  1.00  0.00    -0.390 OA
ATOM     23  H3  UNL     1      19.259 -16.397  34.921  1.00  0.00     0.210 HD
ENDBRANCH  12  22
BRANCH  13  24
HETATM   24  O2  UNL     1      17.983 -18.827  34.457  1.00  0.00    -0.388 OA
ATOM     25  H2  UNL     1      18.402 -18.081  34.044  1.00  0.00     0.210 HD
ENDBRANCH  13  24
ENDBRANCH   1   8
BRANCH   4  26
HETATM   26  C9  UNL     1      13.525 -22.017  35.705  1.00  0.00     0.206 C 
BRANCH  26  27
HETATM   27  C10 UNL     1      12.052 -21.948  35.778  1.00  0.00     0.023 C 
HETATM   28  C11 UNL     1      11.457 -21.304  36.796  1.00  0.00     0.000 C 
HETATM   29  C12 UNL     1      10.011 -21.206  36.919  1.00  0.00     0.036 C 
HETATM   30  C13 UNL     1       9.195 -21.875  35.874  1.00  0.00     0.014 C 
HETATM   31  C18 UNL     1       9.938 -23.066  35.273  1.00  0.00     0.128 C 
HETATM   32  N4  UNL     1      11.193 -22.516  34.803  1.00  0.00    -0.383 N 
BRANCH  30  33
HETATM   33  C14 UNL     1       7.821 -22.264  36.345  1.00  0.00    -0.046 C 
HETATM   34  C15 UNL     1       7.513 -21.533  37.647  1.00  0.00     0.015 C 
HETATM   35  C16 UNL     1       7.775 -23.753  36.700  1.00  0.00     0.015 C 
HETATM   36  C17 UNL     1       6.734 -21.933  35.367  1.00  0.00     0.015 C 
ENDBRANCH  30  33
BRANCH  32  37
HETATM   37  C19 UNL     1      11.583 -22.508  33.415  1.00  0.00     0.122 C 
BRANCH  37  38
HETATM   38  C20 UNL     1      11.033 -21.298  32.681  1.00  0.00     0.019 C 
BRANCH  38  39
HETATM   39  C21 UNL     1      10.099 -21.777  31.590  1.00  0.00    -0.003 C 
HETATM   40  C22 UNL     1      10.831 -21.626  30.254  1.00  0.00     0.005 C 
ENDBRANCH  38  39
ENDBRANCH  37  38
ENDBRANCH  32  37
ENDBRANCH  26  27
ENDBRANCH   4  26
TORSDOF 14
ENDMDL
MODEL 5
REMARK VINA RESULT: -8.150197813      1.430      2.182
REMARK  14 active torsions:
REMARK  status: ('A' for Active; 'I' for Inactive)
REMARK    1  A    between atoms: C2_2  and  C3_3 
REMARK    2  A    between atoms: C3_3  and  C4_4 
REMARK    3  A    between atoms: C5_5  and  C6_6 
REMARK    4  A    between atoms: C6_6  and  C7_7 
REMARK    5  A    between atoms: C8_9  and  N1_10 
REMARK    6  A    between atoms: N3_13  and  C9_14 
REMARK    7  A    between atoms: C9_14  and  C10_15 
REMARK    8  A    between atoms: C13_18  and  C14_19 
REMARK    9  A    between atoms: N4_24  and  C19_25 
REMARK   10  A    between atoms: C19_25  and  C20_26 
REMARK   11  A    between atoms: C20_26  and  C21_27 
REMARK   12  A    between atoms: C26_32  and  O2_33 
REMARK   13  A    between atoms: C27_35  and  O3_36 
REMARK   14  A    between atoms: C28_38  and  O4_39 
ROOT
HETATM    1  N1  UNL     1       8.688 -22.930  35.126  1.00  0.00    -0.249 N 
HETATM    2  N2  UNL     1       9.865 -23.296  34.658  1.00  0.00    -0.236 N 
ATOM      3  H2  UNL     1      10.003 -23.948  33.887  1.00  0.00     0.209 HD
HETATM    4  N3  UNL     1      10.861 -22.691  35.338  1.00  0.00    -0.281 N 
HETATM    5  C23 UNL     1      10.230 -21.936  36.249  1.00  0.00     0.138 A 
HETATM    6  C24 UNL     1       8.858 -22.064  36.141  1.00  0.00     0.046 A 
HETATM    7  C25 UNL     1       7.780 -21.421  36.932  1.00  0.00     0.071 C 
ENDROOT
BRANCH   1   8
HETATM    8  C8  UNL     1       7.432 -23.420  34.576  1.00  0.00     0.277 C 
HETATM    9  O1  UNL     1       7.512 -23.421  33.206  1.00  0.00    -0.354 OA
HETATM   10  C7  UNL     1       6.398 -23.842  32.538  1.00  0.00     0.159 C 
HETATM   11  C28 UNL     1       5.771 -25.107  33.030  1.00  0.00     0.178 C 
HETATM   12  C27 UNL     1       5.860 -25.272  34.529  1.00  0.00     0.182 C 
HETATM   13  C26 UNL     1       7.223 -24.880  35.001  1.00  0.00     0.200 C 
BRANCH  10  14
HETATM   14  C6  UNL     1       6.828 -24.039  31.086  1.00  0.00     0.061 C 
BRANCH  14  15
HETATM   15  C5  UNL     1       6.045 -23.256  30.126  1.00  0.00    -0.028 C 
HETATM   16  C4  UNL     1       5.898 -23.614  28.851  1.00  0.00    -0.031 C 
BRANCH  16  17
HETATM   17  C3  UNL     1       5.101 -22.810  27.886  1.00  0.00     0.026 C 
BRANCH  17  18
HETATM   18  C2  UNL     1       3.803 -22.337  28.480  1.00  0.00    -0.001 C 
HETATM   19  C1  UNL     1       2.603 -22.822  27.734  1.00  0.00     0.005 C 
ENDBRANCH  17  18
ENDBRANCH  16  17
ENDBRANCH  14  15
ENDBRANCH  10  14
BRANCH  11  20
HETATM   20  O4  UNL     1       6.347 -26.238  32.449  1.00  0.00    -0.390 OA
ATOM     21  H4  UNL     1       6.292 -26.221  31.502  1.00  0.00     0.210 HD
ENDBRANCH  11  20
BRANCH  12  22
HETATM   22  O3  UNL     1       4.829 -24.636  35.179  1.00  0.00    -0.390 OA
ATOM     23  H3  UNL     1       5.098 -24.115  35.927  1.00  0.00     0.210 HD
ENDBRANCH  12  22
BRANCH  13  24
HETATM   24  O2  UNL     1       7.398 -25.040  36.355  1.00  0.00    -0.388 OA
ATOM     25  H2  UNL     1       7.613 -25.939  36.575  1.00  0.00     0.210 HD
ENDBRANCH  13  24
ENDBRANCH   1   8
BRANCH   4  26
HETATM   26  C9  UNL     1      12.280 -22.852  35.078  1.00  0.00     0.206 C 
BRANCH  26  27
HETATM   27  C10 UNL     1      13.025 -21.584  34.957  1.00  0.00     0.023 C 
HETATM   28  C11 UNL     1      12.869 -20.812  33.868  1.00  0.00     0.000 C 
HETATM   29  C12 UNL     1      13.578 -19.553  33.696  1.00  0.00     0.036 C 
HETATM   30  C13 UNL     1      14.518 -19.152  34.773  1.00  0.00     0.014 C 
HETATM   31  C18 UNL     1      15.077 -20.373  35.501  1.00  0.00     0.128 C 
HETATM   32  N4  UNL     1      13.907 -21.096  35.955  1.00  0.00    -0.383 N 
BRANCH  30  33
HETATM   33  C14 UNL     1      15.617 -18.241  34.300  1.00  0.00    -0.046 C 
HETATM   34  C15 UNL     1      16.953 -18.965  34.423  1.00  0.00     0.015 C 
HETATM   35  C16 UNL     1      15.737 -17.020  35.218  1.00  0.00     0.015 C 
HETATM   36  C17 UNL     1      15.464 -17.803  32.875  1.00  0.00     0.015 C 
ENDBRANCH  30  33
BRANCH  32  37
HETATM   37  C19 UNL     1      13.605 -21.318  37.347  1.00  0.00     0.122 C 
BRANCH  37  38
HETATM   38  C20 UNL     1      14.008 -20.134  38.208  1.00  0.00     0.019 C 
BRANCH  38  39
HETATM   39  C21 UNL     1      12.790 -19.266  38.439  1.00  0.00    -0.003 C 
HETATM   40  C22 UNL     1      12.885 -18.702  39.859  1.00  0.00     0.005 C 
ENDBRANCH  38  39
ENDBRANCH  37  38
ENDBRANCH  32  37
ENDBRANCH  26  27
ENDBRANCH   4  26
TORSDOF 14
ENDMDL
