MODEL 1
REMARK VINA RESULT: -6.995163406      0.000      0.000
REMARK  3 active torsions:
REMARK  status: ('A' for Active; 'I' for Inactive)
REMARK    1  A    between atoms: C9_9  and  C10_10 
REMARK    2  A    between atoms: C10_10  and  O1_12 
REMARK    3  A    between atoms: C12_14  and  O2_15 
ROOT
HETATM    1  C1  UNL     1      17.517  -0.428  50.056  1.00  0.00     0.048 C 
HETATM    2  C2  UNL     1      16.421  -1.447  49.817  1.00  0.00    -0.066 C 
HETATM    3  C3  UNL     1      15.245  -0.930  49.618  1.00  0.00    -0.020 C 
HETATM    4  C4  UNL     1      13.872  -1.421  49.345  1.00  0.00     0.031 C 
HETATM    5  C5  UNL     1      13.031  -1.679  50.638  1.00  0.00    -0.015 C 
HETATM    6  C6  UNL     1      12.880  -0.359  51.314  1.00  0.00     0.010 C 
HETATM    7  C7  UNL     1      13.935  -2.655  51.293  1.00  0.00     0.005 C 
HETATM    8  C8  UNL     1      13.825  -3.378  52.520  1.00  0.00     0.018 C 
HETATM    9  C9  UNL     1      15.219  -3.704  53.118  1.00  0.00     0.048 C 
HETATM   10  C12 UNL     1      15.326  -2.705  54.294  1.00  0.00     0.161 C 
HETATM   11  C13 UNL     1      16.207  -1.635  53.761  1.00  0.00     0.148 C 
HETATM   12  C14 UNL     1      17.164  -1.054  54.772  1.00  0.00     0.042 C 
HETATM   13  O3  UNL     1      16.774  -2.044  52.596  1.00  0.00    -0.368 OA
HETATM   14  C15 UNL     1      16.421  -3.395  52.350  1.00  0.00     0.088 C 
HETATM   15  C16 UNL     1      17.603  -4.043  53.125  1.00  0.00     0.051 C 
HETATM   16  C17 UNL     1      16.621  -3.783  50.935  1.00  0.00     0.012 C 
HETATM   17  C18 UNL     1      16.951  -2.826  49.882  1.00  0.00     0.005 C 
ENDROOT
BRANCH   9  18
HETATM   18  C10 UNL     1      15.043  -5.101  53.632  1.00  0.00     0.128 C 
HETATM   19  C11 UNL     1      14.610  -6.050  52.515  1.00  0.00     0.040 C 
BRANCH  18  20
HETATM   20  O1  UNL     1      14.164  -5.336  54.634  1.00  0.00    -0.395 OA
ATOM     21  H1  UNL     1      14.428  -5.878  55.369  1.00  0.00     0.210 HD
ENDBRANCH  18  20
ENDBRANCH   9  18
BRANCH  10  22
HETATM   22  O2  UNL     1      15.695  -3.280  55.477  1.00  0.00    -0.392 OA
ATOM     23  H2  UNL     1      16.080  -2.672  56.097  1.00  0.00     0.210 HD
ENDBRANCH  10  22
TORSDOF 3
ENDMDL
MODEL 2
REMARK VINA RESULT: -6.441904761      2.067      4.514
REMARK  3 active torsions:
REMARK  status: ('A' for Active; 'I' for Inactive)
REMARK    1  A    between atoms: C9_9  and  C10_10 
REMARK    2  A    between atoms: C10_10  and  O1_12 
REMARK    3  A    between atoms: C12_14  and  O2_15 
ROOT
HETATM    1  C1  UNL     1      15.224  -2.325  57.430  1.00  0.00     0.048 C 
HETATM    2  C2  UNL     1      14.967  -1.328  56.318  1.00  0.00    -0.066 C 
HETATM    3  C3  UNL     1      13.709  -1.087  56.097  1.00  0.00    -0.020 C 
HETATM    4  C4  UNL     1      12.908  -0.241  55.179  1.00  0.00     0.031 C 
HETATM    5  C5  UNL     1      12.531  -0.955  53.839  1.00  0.00    -0.015 C 
HETATM    6  C6  UNL     1      11.667  -2.113  54.207  1.00  0.00     0.010 C 
HETATM    7  C7  UNL     1      13.900  -1.276  53.372  1.00  0.00     0.005 C 
HETATM    8  C8  UNL     1      14.375  -1.912  52.184  1.00  0.00     0.018 C 
HETATM    9  C9  UNL     1      15.725  -2.638  52.426  1.00  0.00     0.048 C 
HETATM   10  C12 UNL     1      15.309  -4.127  52.461  1.00  0.00     0.161 C 
HETATM   11  C13 UNL     1      15.292  -4.449  53.911  1.00  0.00     0.148 C 
HETATM   12  C14 UNL     1      15.782  -5.836  54.248  1.00  0.00     0.042 C 
HETATM   13  O3  UNL     1      15.876  -3.442  54.612  1.00  0.00    -0.368 OA
HETATM   14  C15 UNL     1      16.404  -2.486  53.709  1.00  0.00     0.088 C 
HETATM   15  C16 UNL     1      17.802  -3.143  53.535  1.00  0.00     0.051 C 
HETATM   16  C17 UNL     1      16.663  -1.179  54.357  1.00  0.00     0.012 C 
HETATM   17  C18 UNL     1      16.235  -0.862  55.717  1.00  0.00     0.005 C 
ENDROOT
BRANCH   9  18
HETATM   18  C10 UNL     1      16.493  -2.339  51.175  1.00  0.00     0.128 C 
HETATM   19  C11 UNL     1      16.623  -0.832  50.953  1.00  0.00     0.040 C 
BRANCH  18  20
HETATM   20  O1  UNL     1      16.048  -2.816  49.989  1.00  0.00    -0.395 OA
ATOM     21  H1  UNL     1      15.670  -2.217  49.356  1.00  0.00     0.210 HD
ENDBRANCH  18  20
ENDBRANCH   9  18
BRANCH  10  22
HETATM   22  O2  UNL     1      16.064  -4.933  51.657  1.00  0.00    -0.392 OA
ATOM     23  H2  UNL     1      16.131  -5.830  51.963  1.00  0.00     0.210 HD
ENDBRANCH  10  22
TORSDOF 3
ENDMDL
MODEL 3
REMARK VINA RESULT: -6.356741435      1.751      3.405
REMARK  3 active torsions:
REMARK  status: ('A' for Active; 'I' for Inactive)
REMARK    1  A    between atoms: C9_9  and  C10_10 
REMARK    2  A    between atoms: C10_10  and  O1_12 
REMARK    3  A    between atoms: C12_14  and  O2_15 
ROOT
HETATM    1  C1  UNL     1      17.820  -5.332  52.421  1.00  0.00     0.048 C 
HETATM    2  C2  UNL     1      16.643  -4.671  51.733  1.00  0.00    -0.066 C 
HETATM    3  C3  UNL     1      16.972  -3.863  50.770  1.00  0.00    -0.020 C 
HETATM    4  C4  UNL     1      16.274  -2.987  49.797  1.00  0.00     0.031 C 
HETATM    5  C5  UNL     1      16.044  -1.531  50.319  1.00  0.00    -0.015 C 
HETATM    6  C6  UNL     1      17.397  -0.938  50.524  1.00  0.00     0.010 C 
HETATM    7  C7  UNL     1      15.275  -1.858  51.543  1.00  0.00     0.005 C 
HETATM    8  C8  UNL     1      14.679  -1.028  52.541  1.00  0.00     0.018 C 
HETATM    9  C9  UNL     1      14.610  -1.747  53.914  1.00  0.00     0.048 C 
HETATM   10  C12 UNL     1      15.734  -1.053  54.718  1.00  0.00     0.161 C 
HETATM   11  C13 UNL     1      16.850  -2.031  54.670  1.00  0.00     0.148 C 
HETATM   12  C14 UNL     1      17.660  -2.116  55.941  1.00  0.00     0.042 C 
HETATM   13  O3  UNL     1      16.399  -3.219  54.191  1.00  0.00    -0.368 OA
HETATM   14  C15 UNL     1      14.995  -3.152  54.012  1.00  0.00     0.088 C 
HETATM   15  C16 UNL     1      14.599  -3.607  55.444  1.00  0.00     0.051 C 
HETATM   16  C17 UNL     1      14.489  -4.212  53.109  1.00  0.00     0.012 C 
HETATM   17  C18 UNL     1      15.364  -5.094  52.341  1.00  0.00     0.005 C 
ENDROOT
BRANCH   9  18
HETATM   18  C10 UNL     1      13.265  -1.341  54.436  1.00  0.00     0.128 C 
HETATM   19  C11 UNL     1      12.153  -1.742  53.468  1.00  0.00     0.040 C 
BRANCH  18  20
HETATM   20  O1  UNL     1      13.022  -0.038  54.709  1.00  0.00    -0.395 OA
ATOM     21  H1  UNL     1      12.473   0.468  54.121  1.00  0.00     0.210 HD
ENDBRANCH  18  20
ENDBRANCH   9  18
BRANCH  10  22
HETATM   22  O2  UNL     1      15.344  -0.617  55.953  1.00  0.00    -0.392 OA
ATOM     23  H2  UNL     1      16.043  -0.607  56.597  1.00  0.00     0.210 HD
ENDBRANCH  10  22
TORSDOF 3
ENDMDL
MODEL 4
REMARK VINA RESULT: -6.181726536      1.968      4.831
REMARK  3 active torsions:
REMARK  status: ('A' for Active; 'I' for Inactive)
REMARK    1  A    between atoms: C9_9  and  C10_10 
REMARK    2  A    between atoms: C10_10  and  O1_12 
REMARK    3  A    between atoms: C12_14  and  O2_15 
ROOT
HETATM    1  C1  UNL     1      15.037  -6.195  55.251  1.00  0.00     0.048 C 
HETATM    2  C2  UNL     1      15.410  -5.677  53.877  1.00  0.00    -0.066 C 
HETATM    3  C3  UNL     1      16.655  -5.323  53.759  1.00  0.00    -0.020 C 
HETATM    4  C4  UNL     1      17.535  -4.773  52.698  1.00  0.00     0.031 C 
HETATM    5  C5  UNL     1      17.567  -3.210  52.661  1.00  0.00    -0.015 C 
HETATM    6  C6  UNL     1      18.148  -2.769  53.961  1.00  0.00     0.010 C 
HETATM    7  C7  UNL     1      16.118  -2.967  52.470  1.00  0.00     0.005 C 
HETATM    8  C8  UNL     1      15.368  -1.761  52.312  1.00  0.00     0.018 C 
HETATM    9  C9  UNL     1      13.915  -1.919  52.833  1.00  0.00     0.048 C 
HETATM   10  C12 UNL     1      13.945  -1.138  54.167  1.00  0.00     0.161 C 
HETATM   11  C13 UNL     1      14.043  -2.208  55.193  1.00  0.00     0.148 C 
HETATM   12  C14 UNL     1      13.261  -1.935  56.455  1.00  0.00     0.042 C 
HETATM   13  O3  UNL     1      13.813  -3.417  54.620  1.00  0.00    -0.368 OA
HETATM   14  C15 UNL     1      13.444  -3.233  53.265  1.00  0.00     0.088 C 
HETATM   15  C16 UNL     1      11.916  -3.082  53.504  1.00  0.00     0.051 C 
HETATM   16  C17 UNL     1      13.596  -4.469  52.463  1.00  0.00     0.012 C 
HETATM   17  C18 UNL     1      14.241  -5.678  52.971  1.00  0.00     0.005 C 
ENDROOT
BRANCH   9  18
HETATM   18  C10 UNL     1      13.111  -1.177  51.810  1.00  0.00     0.128 C 
HETATM   19  C11 UNL     1      13.326  -1.757  50.412  1.00  0.00     0.040 C 
BRANCH  18  20
HETATM   20  O1  UNL     1      13.297   0.155  51.654  1.00  0.00    -0.395 OA
ATOM     21  H1  UNL     1      13.089   0.561  50.821  1.00  0.00     0.210 HD
ENDBRANCH  18  20
ENDBRANCH   9  18
BRANCH  10  22
HETATM   22  O2  UNL     1      12.927  -0.239  54.305  1.00  0.00    -0.392 OA
ATOM     23  H2  UNL     1      12.063  -0.611  54.171  1.00  0.00     0.210 HD
ENDBRANCH  10  22
TORSDOF 3
ENDMDL
MODEL 5
REMARK VINA RESULT: -6.059309407      2.901      4.626
REMARK  3 active torsions:
REMARK  status: ('A' for Active; 'I' for Inactive)
REMARK    1  A    between atoms: C9_9  and  C10_10 
REMARK    2  A    between atoms: C10_10  and  O1_12 
REMARK    3  A    between atoms: C12_14  and  O2_15 
ROOT
HETATM    1  C1  UNL     1      15.803  -5.136  54.259  1.00  0.00     0.048 C 
HETATM    2  C2  UNL     1      14.722  -4.476  53.427  1.00  0.00    -0.066 C 
HETATM    3  C3  UNL     1      15.169  -3.783  52.423  1.00  0.00    -0.020 C 
HETATM    4  C4  UNL     1      14.599  -2.964  51.325  1.00  0.00     0.031 C 
HETATM    5  C5  UNL     1      14.427  -1.454  51.696  1.00  0.00    -0.015 C 
HETATM    6  C6  UNL     1      15.797  -0.923  51.950  1.00  0.00     0.010 C 
HETATM    7  C7  UNL     1      13.554  -1.620  52.882  1.00  0.00     0.005 C 
HETATM    8  C8  UNL     1      12.943  -0.667  53.753  1.00  0.00     0.018 C 
HETATM    9  C9  UNL     1      12.731  -1.249  55.176  1.00  0.00     0.048 C 
HETATM   10  C12 UNL     1      13.838  -0.548  55.998  1.00  0.00     0.161 C 
HETATM   11  C13 UNL     1      14.889  -1.589  56.123  1.00  0.00     0.148 C 
HETATM   12  C14 UNL     1      15.601  -1.600  57.454  1.00  0.00     0.042 C 
HETATM   13  O3  UNL     1      14.398  -2.789  55.719  1.00  0.00    -0.368 OA
HETATM   14  C15 UNL     1      13.018  -2.658  55.428  1.00  0.00     0.088 C 
HETATM   15  C16 UNL     1      12.493  -2.953  56.861  1.00  0.00     0.051 C 
HETATM   16  C17 UNL     1      12.510  -3.767  54.588  1.00  0.00     0.012 C 
HETATM   17  C18 UNL     1      13.378  -4.767  53.971  1.00  0.00     0.005 C 
ENDROOT
BRANCH   9  18
HETATM   18  C10 UNL     1      11.382  -0.719  55.556  1.00  0.00     0.128 C 
HETATM   19  C11 UNL     1      10.316  -1.149  54.548  1.00  0.00     0.040 C 
BRANCH  18  20
HETATM   20  O1  UNL     1      11.203   0.616  55.686  1.00  0.00    -0.395 OA
ATOM     21  H1  UNL     1      10.329   0.980  55.605  1.00  0.00     0.210 HD
ENDBRANCH  18  20
ENDBRANCH   9  18
BRANCH  10  22
HETATM   22  O2  UNL     1      13.390   0.023  57.156  1.00  0.00    -0.392 OA
ATOM     23  H2  UNL     1      12.607  -0.383  57.509  1.00  0.00     0.210 HD
ENDBRANCH  10  22
TORSDOF 3
ENDMDL
