MODEL 1
REMARK VINA RESULT: -9.588684388      0.000      0.000
REMARK  15 active torsions:
REMARK  status: ('A' for Active; 'I' for Inactive)
REMARK    1  A    between atoms: C3_3  and  C4_4 
REMARK    2  A    between atoms: C4_4  and  N1_5 
REMARK    3  A    between atoms: N1_5  and  C5_6 
REMARK    4  A    between atoms: N1_5  and  C8_9 
REMARK    5  A    between atoms: C10_13  and  C11_14 
REMARK    6  A    between atoms: C13_16  and  C14_17 
REMARK    7  A    between atoms: C14_17  and  O1_18 
REMARK    8  A    between atoms: C14_17  and  N3_20 
REMARK    9  A    between atoms: N3_20  and  C15_21 
REMARK   10  A    between atoms: N3_20  and  C19_26 
REMARK   11  A    between atoms: C15_21  and  C16_22 
REMARK   12  A    between atoms: C16_22  and  N4_23 
REMARK   13  A    between atoms: C19_26  and  C20_27 
REMARK   14  A    between atoms: C28_39  and  N7_40 
REMARK   15  A    between atoms: N7_40  and  N8_42 
ROOT
HETATM    1  C1  UNL     1      20.464  42.056  -3.945  1.00  0.00     0.097 C 
HETATM    2  C2  UNL     1      20.128  42.954  -4.709  1.00  0.00    -0.182 C 
HETATM    3  C3  UNL     1      19.680  43.997  -5.604  1.00  0.00     0.125 C 
ENDROOT
BRANCH   3   4
HETATM    4  C4  UNL     1      20.264  44.080  -6.940  1.00  0.00     0.099 C 
BRANCH   4   5
HETATM    5  N1  UNL     1      19.669  43.616  -8.118  1.00  0.00    -0.164 N 
BRANCH   5   6
HETATM    6  C5  UNL     1      19.498  44.209  -9.397  1.00  0.00     0.177 C 
HETATM    7  C6  UNL     1      20.609  44.980  -9.906  1.00  0.00    -0.071 C 
HETATM    8  C7  UNL     1      21.520  45.667 -10.337  1.00  0.00     0.018 C 
ENDBRANCH   5   6
BRANCH   5   9
HETATM    9  C8  UNL     1      19.122  42.244  -8.032  1.00  0.00     0.688 A 
HETATM   10  N2  UNL     1      19.913  41.198  -7.829  1.00  0.00    -0.200 N 
HETATM   11  C9  UNL     1      19.419  39.936  -7.740  1.00  0.00     0.121 A 
ATOM     12  H2  UNL     1      20.919  41.345  -7.739  1.00  0.00     0.183 HD
HETATM   13  C10 UNL     1      18.069  39.752  -7.862  1.00  0.00     0.022 A 
HETATM   14  C30 UNL     1      17.241  40.831  -8.072  1.00  0.00     0.121 A 
HETATM   15  N10 UNL     1      17.808  42.077  -8.154  1.00  0.00    -0.200 N 
ATOM     16  H10 UNL     1      17.211  42.890  -8.312  1.00  0.00     0.183 HD
BRANCH  13  17
HETATM   17  C11 UNL     1      17.472  38.410  -7.765  1.00  0.00     0.046 A 
HETATM   18  C12 UNL     1      16.795  37.714  -8.711  1.00  0.00     0.047 A 
HETATM   19  C13 UNL     1      16.380  36.463  -8.211  1.00  0.00     0.032 A 
HETATM   20  C29 UNL     1      16.847  36.464  -6.931  1.00  0.00     0.104 A 
HETATM   21  N9  UNL     1      17.507  37.647  -6.672  1.00  0.00    -0.364 N 
ATOM     22  H9  UNL     1      17.949  37.897  -5.787  1.00  0.00     0.165 HD
BRANCH  19  23
HETATM   23  C14 UNL     1      15.650  35.490  -8.987  1.00  0.00     0.150 C 
BRANCH  23  24
HETATM   24  O1  UNL     1      14.457  35.172  -8.521  1.00  0.00    -0.345 OA
ATOM     25  H1  UNL     1      14.184  34.275  -8.675  1.00  0.00     0.219 HD
ENDBRANCH  23  24
BRANCH  23  26
HETATM   26  N3  UNL     1      15.978  34.806 -10.159  1.00  0.00    -0.354 N 
BRANCH  26  27
HETATM   27  C15 UNL     1      16.799  33.588  -9.967  1.00  0.00     0.155 C 
BRANCH  27  28
HETATM   28  C16 UNL     1      16.361  32.424 -10.762  1.00  0.00     0.291 C 
BRANCH  28  29
HETATM   29  N4  UNL     1      15.216  31.745 -10.268  1.00  0.00     0.081 N 
HETATM   30  C17 UNL     1      15.598  30.575  -9.481  1.00  0.00     0.309 C 
HETATM   31  C18 UNL     1      14.299  31.432 -11.335  1.00  0.00     0.309 C 
ENDBRANCH  28  29
ENDBRANCH  27  28
ENDBRANCH  26  27
BRANCH  26  32
HETATM   32  C19 UNL     1      15.591  35.177 -11.475  1.00  0.00     0.186 C 
BRANCH  32  33
HETATM   33  C20 UNL     1      16.168  36.485 -11.894  1.00  0.00     0.073 A 
HETATM   34  N5  UNL     1      17.502  36.625 -12.018  1.00  0.00    -0.353 N 
HETATM   35  C21 UNL     1      18.122  37.746 -12.379  1.00  0.00     0.059 A 
ATOM     36  H5  UNL     1      18.081  35.810 -11.819  1.00  0.00     0.166 HD
HETATM   37  C22 UNL     1      19.478  37.904 -12.506  1.00  0.00     0.032 A 
HETATM   38  C27 UNL     1      17.299  38.839 -12.642  1.00  0.00     0.061 A 
HETATM   39  C23 UNL     1      20.038  39.089 -12.880  1.00  0.00     0.009 A 
HETATM   40  C24 UNL     1      19.265  40.191 -13.149  1.00  0.00    -0.060 A 
HETATM   41  C25 UNL     1      19.883  41.490 -13.554  1.00  0.00     0.048 C 
HETATM   42  C26 UNL     1      17.905  40.044 -13.024  1.00  0.00     0.038 A 
HETATM   43  N6  UNL     1      15.982  38.739 -12.531  1.00  0.00    -0.338 N 
HETATM   44  C28 UNL     1      15.361  37.559 -12.153  1.00  0.00     0.144 A 
ATOM     45  H6  UNL     1      15.406  39.557 -12.730  1.00  0.00     0.167 HD
BRANCH  44  46
HETATM   46  N7  UNL     1      14.096  37.575 -12.073  1.00  0.00    -0.290 N 
ATOM     47  H7  UNL     1      13.703  36.803 -11.535  1.00  0.00     0.188 HD
BRANCH  46  48
HETATM   48  N8  UNL     1      13.185  38.415 -12.564  1.00  0.00    -0.344 N 
ATOM     49  H82 UNL     1      13.099  38.356 -13.579  1.00  0.00     0.176 HD
ATOM     50  H81 UNL     1      12.571  39.092 -12.112  1.00  0.00     0.176 HD
ENDBRANCH  46  48
ENDBRANCH  44  46
ENDBRANCH  32  33
ENDBRANCH  26  32
ENDBRANCH  23  26
ENDBRANCH  19  23
ENDBRANCH  13  17
ENDBRANCH   5   9
ENDBRANCH   4   5
ENDBRANCH   3   4
TORSDOF 15
ENDMDL
MODEL 2
REMARK VINA RESULT: -9.237063306      0.833      2.144
REMARK  15 active torsions:
REMARK  status: ('A' for Active; 'I' for Inactive)
REMARK    1  A    between atoms: C3_3  and  C4_4 
REMARK    2  A    between atoms: C4_4  and  N1_5 
REMARK    3  A    between atoms: N1_5  and  C5_6 
REMARK    4  A    between atoms: N1_5  and  C8_9 
REMARK    5  A    between atoms: C10_13  and  C11_14 
REMARK    6  A    between atoms: C13_16  and  C14_17 
REMARK    7  A    between atoms: C14_17  and  O1_18 
REMARK    8  A    between atoms: C14_17  and  N3_20 
REMARK    9  A    between atoms: N3_20  and  C15_21 
REMARK   10  A    between atoms: N3_20  and  C19_26 
REMARK   11  A    between atoms: C15_21  and  C16_22 
REMARK   12  A    between atoms: C16_22  and  N4_23 
REMARK   13  A    between atoms: C19_26  and  C20_27 
REMARK   14  A    between atoms: C28_39  and  N7_40 
REMARK   15  A    between atoms: N7_40  and  N8_42 
ROOT
HETATM    1  C1  UNL     1      22.362  46.045 -10.010  1.00  0.00     0.097 C 
HETATM    2  C2  UNL     1      21.351  45.351 -10.016  1.00  0.00    -0.182 C 
HETATM    3  C3  UNL     1      20.137  44.567 -10.058  1.00  0.00     0.125 C 
ENDROOT
BRANCH   3   4
HETATM    4  C4  UNL     1      19.457  44.252  -8.805  1.00  0.00     0.099 C 
BRANCH   4   5
HETATM    5  N1  UNL     1      19.944  43.403  -7.805  1.00  0.00    -0.164 N 
BRANCH   5   6
HETATM    6  C5  UNL     1      20.898  43.598  -6.772  1.00  0.00     0.177 C 
HETATM    7  C6  UNL     1      21.287  44.963  -6.499  1.00  0.00    -0.071 C 
HETATM    8  C7  UNL     1      21.656  46.104  -6.278  1.00  0.00     0.018 C 
ENDBRANCH   5   6
BRANCH   5   9
HETATM    9  C8  UNL     1      19.352  42.048  -7.807  1.00  0.00     0.688 A 
HETATM   10  N2  UNL     1      18.037  41.870  -7.785  1.00  0.00    -0.200 N 
HETATM   11  C9  UNL     1      17.484  40.630  -7.796  1.00  0.00     0.121 A 
ATOM     12  H2  UNL     1      17.425  42.687  -7.760  1.00  0.00     0.183 HD
HETATM   13  C10 UNL     1      18.314  39.543  -7.830  1.00  0.00     0.022 A 
HETATM   14  C30 UNL     1      19.679  39.719  -7.852  1.00  0.00     0.121 A 
HETATM   15  N10 UNL     1      20.169  40.999  -7.838  1.00  0.00    -0.200 N 
ATOM     16  H10 UNL     1      21.179  41.150  -7.852  1.00  0.00     0.183 HD
BRANCH  13  17
HETATM   17  C11 UNL     1      17.776  38.174  -7.851  1.00  0.00     0.046 A 
HETATM   18  C12 UNL     1      16.928  37.612  -8.747  1.00  0.00     0.047 A 
HETATM   19  C13 UNL     1      16.649  36.274  -8.402  1.00  0.00     0.032 A 
HETATM   20  C29 UNL     1      17.375  36.084  -7.264  1.00  0.00     0.104 A 
HETATM   21  N9  UNL     1      18.053  37.240  -6.940  1.00  0.00    -0.364 N 
ATOM     22  H9  UNL     1      18.666  37.361  -6.134  1.00  0.00     0.165 HD
BRANCH  19  23
HETATM   23  C14 UNL     1      15.789  35.407  -9.172  1.00  0.00     0.150 C 
BRANCH  23  24
HETATM   24  O1  UNL     1      14.576  35.234  -8.686  1.00  0.00    -0.345 OA
ATOM     25  H1  UNL     1      14.466  34.478  -8.121  1.00  0.00     0.219 HD
ENDBRANCH  23  24
BRANCH  23  26
HETATM   26  N3  UNL     1      16.008  34.702 -10.356  1.00  0.00    -0.354 N 
BRANCH  26  27
HETATM   27  C15 UNL     1      16.712  33.408 -10.196  1.00  0.00     0.155 C 
BRANCH  27  28
HETATM   28  C16 UNL     1      15.829  32.267  -9.883  1.00  0.00     0.291 C 
BRANCH  28  29
HETATM   29  N4  UNL     1      15.715  31.286 -10.903  1.00  0.00     0.081 N 
HETATM   30  C17 UNL     1      16.839  31.363 -11.833  1.00  0.00     0.309 C 
HETATM   31  C18 UNL     1      14.434  31.367 -11.560  1.00  0.00     0.309 C 
ENDBRANCH  28  29
ENDBRANCH  27  28
ENDBRANCH  26  27
BRANCH  26  32
HETATM   32  C19 UNL     1      15.616  35.117 -11.658  1.00  0.00     0.186 C 
BRANCH  32  33
HETATM   33  C20 UNL     1      16.186  36.441 -12.032  1.00  0.00     0.073 A 
HETATM   34  N5  UNL     1      17.521  36.598 -12.130  1.00  0.00    -0.353 N 
HETATM   35  C21 UNL     1      18.135  37.733 -12.451  1.00  0.00     0.059 A 
ATOM     36  H5  UNL     1      18.105  35.783 -11.943  1.00  0.00     0.166 HD
HETATM   37  C22 UNL     1      19.492  37.908 -12.552  1.00  0.00     0.032 A 
HETATM   38  C27 UNL     1      17.306  38.825 -12.699  1.00  0.00     0.061 A 
HETATM   39  C23 UNL     1      20.046  39.108 -12.885  1.00  0.00     0.009 A 
HETATM   40  C24 UNL     1      19.267  40.209 -13.136  1.00  0.00    -0.060 A 
HETATM   41  C25 UNL     1      19.878  41.525 -13.497  1.00  0.00     0.048 C 
HETATM   42  C26 UNL     1      17.906  40.045 -13.039  1.00  0.00     0.038 A 
HETATM   43  N6  UNL     1      15.988  38.710 -12.612  1.00  0.00    -0.338 N 
HETATM   44  C28 UNL     1      15.374  37.514 -12.275  1.00  0.00     0.144 A 
ATOM     45  H6  UNL     1      15.408  39.527 -12.798  1.00  0.00     0.167 HD
BRANCH  44  46
HETATM   46  N7  UNL     1      14.107  37.516 -12.216  1.00  0.00    -0.290 N 
ATOM     47  H7  UNL     1      13.708  36.666 -11.818  1.00  0.00     0.188 HD
BRANCH  46  48
HETATM   48  N8  UNL     1      13.201  38.424 -12.579  1.00  0.00    -0.344 N 
ATOM     49  H82 UNL     1      12.326  38.337 -12.063  1.00  0.00     0.176 HD
ATOM     50  H81 UNL     1      13.230  39.175 -13.268  1.00  0.00     0.176 HD
ENDBRANCH  46  48
ENDBRANCH  44  46
ENDBRANCH  32  33
ENDBRANCH  26  32
ENDBRANCH  23  26
ENDBRANCH  19  23
ENDBRANCH  13  17
ENDBRANCH   5   9
ENDBRANCH   4   5
ENDBRANCH   3   4
TORSDOF 15
ENDMDL
MODEL 3
REMARK VINA RESULT: -8.746320785      3.027      5.348
REMARK  15 active torsions:
REMARK  status: ('A' for Active; 'I' for Inactive)
REMARK    1  A    between atoms: C3_3  and  C4_4 
REMARK    2  A    between atoms: C4_4  and  N1_5 
REMARK    3  A    between atoms: N1_5  and  C5_6 
REMARK    4  A    between atoms: N1_5  and  C8_9 
REMARK    5  A    between atoms: C10_13  and  C11_14 
REMARK    6  A    between atoms: C13_16  and  C14_17 
REMARK    7  A    between atoms: C14_17  and  O1_18 
REMARK    8  A    between atoms: C14_17  and  N3_20 
REMARK    9  A    between atoms: N3_20  and  C15_21 
REMARK   10  A    between atoms: N3_20  and  C19_26 
REMARK   11  A    between atoms: C15_21  and  C16_22 
REMARK   12  A    between atoms: C16_22  and  N4_23 
REMARK   13  A    between atoms: C19_26  and  C20_27 
REMARK   14  A    between atoms: C28_39  and  N7_40 
REMARK   15  A    between atoms: N7_40  and  N8_42 
ROOT
HETATM    1  C1  UNL     1      19.014  48.194  -0.582  1.00  0.00     0.097 C 
HETATM    2  C2  UNL     1      19.928  47.880  -1.336  1.00  0.00    -0.182 C 
HETATM    3  C3  UNL     1      21.021  47.561  -2.226  1.00  0.00     0.125 C 
ENDROOT
BRANCH   3   4
HETATM    4  C4  UNL     1      20.735  46.841  -3.465  1.00  0.00     0.099 C 
BRANCH   4   5
HETATM    5  N1  UNL     1      21.625  46.001  -4.142  1.00  0.00    -0.164 N 
BRANCH   5   6
HETATM    6  C5  UNL     1      23.037  46.034  -4.295  1.00  0.00     0.177 C 
HETATM    7  C6  UNL     1      23.580  47.139  -5.051  1.00  0.00    -0.071 C 
HETATM    8  C7  UNL     1      24.055  48.043  -5.717  1.00  0.00     0.018 C 
ENDBRANCH   5   6
BRANCH   5   9
HETATM    9  C8  UNL     1      20.990  44.851  -4.821  1.00  0.00     0.688 A 
HETATM   10  N2  UNL     1      21.702  43.798  -5.204  1.00  0.00    -0.200 N 
HETATM   11  C9  UNL     1      21.126  42.733  -5.820  1.00  0.00     0.121 A 
ATOM     12  H2  UNL     1      22.708  43.789  -5.032  1.00  0.00     0.183 HD
HETATM   13  C10 UNL     1      19.777  42.757  -6.044  1.00  0.00     0.022 A 
HETATM   14  C30 UNL     1      19.031  43.845  -5.649  1.00  0.00     0.121 A 
HETATM   15  N10 UNL     1      19.678  44.887  -5.035  1.00  0.00    -0.200 N 
ATOM     16  H10 UNL     1      19.143  45.703  -4.737  1.00  0.00     0.183 HD
BRANCH  13  17
HETATM   17  C11 UNL     1      19.094  41.630  -6.698  1.00  0.00     0.046 A 
HETATM   18  C12 UNL     1      19.592  40.744  -7.595  1.00  0.00     0.047 A 
HETATM   19  C13 UNL     1      18.604  39.818  -7.986  1.00  0.00     0.032 A 
HETATM   20  C29 UNL     1      17.508  40.207  -7.275  1.00  0.00     0.104 A 
HETATM   21  N9  UNL     1      17.816  41.304  -6.499  1.00  0.00    -0.364 N 
ATOM     22  H9  UNL     1      17.171  41.789  -5.874  1.00  0.00     0.165 HD
BRANCH  19  23
HETATM   23  C14 UNL     1      18.834  38.742  -8.920  1.00  0.00     0.150 C 
BRANCH  23  24
HETATM   24  O1  UNL     1      19.228  37.602  -8.387  1.00  0.00    -0.345 OA
ATOM     25  H1  UNL     1      20.165  37.450  -8.392  1.00  0.00     0.219 HD
ENDBRANCH  23  24
BRANCH  23  26
HETATM   26  N3  UNL     1      18.719  38.683 -10.310  1.00  0.00    -0.354 N 
BRANCH  26  27
HETATM   27  C15 UNL     1      17.742  37.693 -10.819  1.00  0.00     0.155 C 
BRANCH  27  28
HETATM   28  C16 UNL     1      16.357  37.908 -10.355  1.00  0.00     0.291 C 
BRANCH  28  29
HETATM   29  N4  UNL     1      15.716  36.769  -9.801  1.00  0.00     0.081 N 
HETATM   30  C17 UNL     1      15.932  36.695  -8.358  1.00  0.00     0.309 C 
HETATM   31  C18 UNL     1      16.107  35.566 -10.492  1.00  0.00     0.309 C 
ENDBRANCH  28  29
ENDBRANCH  27  28
ENDBRANCH  26  27
BRANCH  26  32
HETATM   32  C19 UNL     1      19.442  39.478 -11.240  1.00  0.00     0.186 C 
BRANCH  32  33
HETATM   33  C20 UNL     1      19.578  40.894 -10.798  1.00  0.00     0.073 A 
HETATM   34  N5  UNL     1      20.768  41.356 -10.368  1.00  0.00    -0.353 N 
HETATM   35  C21 UNL     1      21.000  42.597  -9.947  1.00  0.00     0.059 A 
ATOM     36  H5  UNL     1      21.552  40.703 -10.363  1.00  0.00     0.166 HD
HETATM   37  C22 UNL     1      22.205  43.079  -9.504  1.00  0.00     0.032 A 
HETATM   38  C27 UNL     1      19.906  43.460  -9.966  1.00  0.00     0.061 A 
HETATM   39  C23 UNL     1      22.360  44.367  -9.085  1.00  0.00     0.009 A 
HETATM   40  C24 UNL     1      21.310  45.251  -9.087  1.00  0.00    -0.060 A 
HETATM   41  C25 UNL     1      21.484  46.661  -8.624  1.00  0.00     0.048 C 
HETATM   42  C26 UNL     1      20.099  44.778  -9.530  1.00  0.00     0.038 A 
HETATM   43  N6  UNL     1      18.719  43.042 -10.383  1.00  0.00    -0.338 N 
HETATM   44  C28 UNL     1      18.506  41.743 -10.816  1.00  0.00     0.144 A 
ATOM     45  H6  UNL     1      17.938  43.697 -10.384  1.00  0.00     0.167 HD
BRANCH  44  46
HETATM   46  N7  UNL     1      17.330  41.448 -11.189  1.00  0.00    -0.290 N 
ATOM     47  H7  UNL     1      16.747  41.052 -10.453  1.00  0.00     0.188 HD
BRANCH  46  48
HETATM   48  N8  UNL     1      16.718  41.559 -12.368  1.00  0.00    -0.344 N 
ATOM     49  H82 UNL     1      15.719  41.357 -12.315  1.00  0.00     0.176 HD
ATOM     50  H81 UNL     1      17.065  41.807 -13.294  1.00  0.00     0.176 HD
ENDBRANCH  46  48
ENDBRANCH  44  46
ENDBRANCH  32  33
ENDBRANCH  26  32
ENDBRANCH  23  26
ENDBRANCH  19  23
ENDBRANCH  13  17
ENDBRANCH   5   9
ENDBRANCH   4   5
ENDBRANCH   3   4
TORSDOF 15
ENDMDL
MODEL 4
REMARK VINA RESULT: -8.618880934      3.182     10.143
REMARK  15 active torsions:
REMARK  status: ('A' for Active; 'I' for Inactive)
REMARK    1  A    between atoms: C3_3  and  C4_4 
REMARK    2  A    between atoms: C4_4  and  N1_5 
REMARK    3  A    between atoms: N1_5  and  C5_6 
REMARK    4  A    between atoms: N1_5  and  C8_9 
REMARK    5  A    between atoms: C10_13  and  C11_14 
REMARK    6  A    between atoms: C13_16  and  C14_17 
REMARK    7  A    between atoms: C14_17  and  O1_18 
REMARK    8  A    between atoms: C14_17  and  N3_20 
REMARK    9  A    between atoms: N3_20  and  C15_21 
REMARK   10  A    between atoms: N3_20  and  C19_26 
REMARK   11  A    between atoms: C15_21  and  C16_22 
REMARK   12  A    between atoms: C16_22  and  N4_23 
REMARK   13  A    between atoms: C19_26  and  C20_27 
REMARK   14  A    between atoms: C28_39  and  N7_40 
REMARK   15  A    between atoms: N7_40  and  N8_42 
ROOT
HETATM    1  C1  UNL     1      16.239  36.478 -16.956  1.00  0.00     0.097 C 
HETATM    2  C2  UNL     1      17.153  36.332 -16.153  1.00  0.00    -0.182 C 
HETATM    3  C3  UNL     1      18.208  36.114 -15.188  1.00  0.00     0.125 C 
ENDROOT
BRANCH   3   4
HETATM    4  C4  UNL     1      18.550  37.190 -14.261  1.00  0.00     0.099 C 
BRANCH   4   5
HETATM    5  N1  UNL     1      17.696  37.736 -13.297  1.00  0.00    -0.164 N 
BRANCH   5   6
HETATM    6  C5  UNL     1      16.437  37.316 -12.792  1.00  0.00     0.177 C 
HETATM    7  C6  UNL     1      16.428  36.106 -12.002  1.00  0.00    -0.071 C 
HETATM    8  C7  UNL     1      16.392  35.067 -11.365  1.00  0.00     0.018 C 
ENDBRANCH   5   6
BRANCH   5   9
HETATM    9  C8  UNL     1      18.193  38.979 -12.668  1.00  0.00     0.688 A 
HETATM   10  N2  UNL     1      17.372  39.801 -12.025  1.00  0.00    -0.200 N 
HETATM   11  C9  UNL     1      17.820  40.940 -11.437  1.00  0.00     0.121 A 
ATOM     12  H2  UNL     1      16.380  39.571 -11.971  1.00  0.00     0.183 HD
HETATM   13  C10 UNL     1      19.153  41.238 -11.516  1.00  0.00     0.022 A 
HETATM   14  C30 UNL     1      20.011  40.391 -12.181  1.00  0.00     0.121 A 
HETATM   15  N10 UNL     1      19.490  39.259 -12.754  1.00  0.00    -0.200 N 
ATOM     16  H10 UNL     1      20.109  38.619 -13.253  1.00  0.00     0.183 HD
BRANCH  13  17
HETATM   17  C11 UNL     1      19.700  42.452 -10.892  1.00  0.00     0.046 A 
HETATM   18  C12 UNL     1      20.708  42.562  -9.992  1.00  0.00     0.047 A 
HETATM   19  C13 UNL     1      20.919  43.909  -9.637  1.00  0.00     0.032 A 
HETATM   20  C29 UNL     1      19.987  44.579 -10.372  1.00  0.00     0.104 A 
HETATM   21  N9  UNL     1      19.255  43.688 -11.128  1.00  0.00    -0.364 N 
ATOM     22  H9  UNL     1      18.496  43.933 -11.764  1.00  0.00     0.165 HD
BRANCH  19  23
HETATM   23  C14 UNL     1      21.934  44.347  -8.709  1.00  0.00     0.150 C 
BRANCH  23  24
HETATM   24  O1  UNL     1      23.126  44.563  -9.231  1.00  0.00    -0.345 OA
ATOM     25  H1  UNL     1      23.346  44.026  -9.983  1.00  0.00     0.219 HD
ENDBRANCH  23  24
BRANCH  23  26
HETATM   26  N3  UNL     1      21.890  44.586  -7.334  1.00  0.00    -0.354 N 
BRANCH  26  27
HETATM   27  C15 UNL     1      22.155  45.986  -6.930  1.00  0.00     0.155 C 
BRANCH  27  28
HETATM   28  C16 UNL     1      21.448  46.999  -7.738  1.00  0.00     0.291 C 
BRANCH  28  29
HETATM   29  N4  UNL     1      22.266  48.025  -8.281  1.00  0.00     0.081 N 
HETATM   30  C17 UNL     1      22.285  47.963  -9.741  1.00  0.00     0.309 C 
HETATM   31  C18 UNL     1      23.584  48.001  -7.698  1.00  0.00     0.309 C 
ENDBRANCH  28  29
ENDBRANCH  27  28
ENDBRANCH  26  27
BRANCH  26  32
HETATM   32  C19 UNL     1      21.614  43.619  -6.330  1.00  0.00     0.186 C 
BRANCH  32  33
HETATM   33  C20 UNL     1      20.501  42.704  -6.706  1.00  0.00     0.073 A 
HETATM   34  N5  UNL     1      20.770  41.453  -7.130  1.00  0.00    -0.353 N 
HETATM   35  C21 UNL     1      19.856  40.557  -7.495  1.00  0.00     0.059 A 
ATOM     36  H5  UNL     1      21.749  41.172  -7.174  1.00  0.00     0.166 HD
HETATM   37  C22 UNL     1      20.115  39.283  -7.930  1.00  0.00     0.032 A 
HETATM   38  C27 UNL     1      18.529  40.977  -7.422  1.00  0.00     0.061 A 
HETATM   39  C23 UNL     1      19.120  38.423  -8.290  1.00  0.00     0.009 A 
HETATM   40  C24 UNL     1      17.800  38.795  -8.234  1.00  0.00    -0.060 A 
HETATM   41  C25 UNL     1      16.712  37.851  -8.632  1.00  0.00     0.048 C 
HETATM   42  C26 UNL     1      17.529  40.069  -7.799  1.00  0.00     0.038 A 
HETATM   43  N6  UNL     1      18.226  42.200  -7.010  1.00  0.00    -0.338 N 
HETATM   44  C28 UNL     1      19.198  43.114  -6.636  1.00  0.00     0.144 A 
ATOM     45  H6  UNL     1      17.246  42.477  -6.969  1.00  0.00     0.167 HD
BRANCH  44  46
HETATM   46  N7  UNL     1      18.798  44.257  -6.262  1.00  0.00    -0.290 N 
ATOM     47  H7  UNL     1      18.950  44.996  -6.948  1.00  0.00     0.188 HD
BRANCH  46  48
HETATM   48  N8  UNL     1      18.215  44.671  -5.137  1.00  0.00    -0.344 N 
ATOM     49  H82 UNL     1      18.888  44.968  -4.429  1.00  0.00     0.176 HD
ATOM     50  H81 UNL     1      17.235  44.743  -4.865  1.00  0.00     0.176 HD
ENDBRANCH  46  48
ENDBRANCH  44  46
ENDBRANCH  32  33
ENDBRANCH  26  32
ENDBRANCH  23  26
ENDBRANCH  19  23
ENDBRANCH  13  17
ENDBRANCH   5   9
ENDBRANCH   4   5
ENDBRANCH   3   4
TORSDOF 15
ENDMDL
MODEL 5
REMARK VINA RESULT: -8.589541349      4.838     12.281
REMARK  15 active torsions:
REMARK  status: ('A' for Active; 'I' for Inactive)
REMARK    1  A    between atoms: C3_3  and  C4_4 
REMARK    2  A    between atoms: C4_4  and  N1_5 
REMARK    3  A    between atoms: N1_5  and  C5_6 
REMARK    4  A    between atoms: N1_5  and  C8_9 
REMARK    5  A    between atoms: C10_13  and  C11_14 
REMARK    6  A    between atoms: C13_16  and  C14_17 
REMARK    7  A    between atoms: C14_17  and  O1_18 
REMARK    8  A    between atoms: C14_17  and  N3_20 
REMARK    9  A    between atoms: N3_20  and  C15_21 
REMARK   10  A    between atoms: N3_20  and  C19_26 
REMARK   11  A    between atoms: C15_21  and  C16_22 
REMARK   12  A    between atoms: C16_22  and  N4_23 
REMARK   13  A    between atoms: C19_26  and  C20_27 
REMARK   14  A    between atoms: C28_39  and  N7_40 
REMARK   15  A    between atoms: N7_40  and  N8_42 
ROOT
HETATM    1  C1  UNL     1      20.436  40.625 -13.271  1.00  0.00     0.097 C 
HETATM    2  C2  UNL     1      19.617  40.278 -12.428  1.00  0.00    -0.182 C 
HETATM    3  C3  UNL     1      18.629  39.836 -11.470  1.00  0.00     0.125 C 
ENDROOT
BRANCH   3   4
HETATM    4  C4  UNL     1      17.799  40.834 -10.800  1.00  0.00     0.099 C 
BRANCH   4   5
HETATM    5  N1  UNL     1      18.024  41.355  -9.521  1.00  0.00    -0.164 N 
BRANCH   5   6
HETATM    6  C5  UNL     1      17.450  41.057  -8.257  1.00  0.00     0.177 C 
HETATM    7  C6  UNL     1      17.517  39.680  -7.824  1.00  0.00    -0.071 C 
HETATM    8  C7  UNL     1      17.529  38.517  -7.457  1.00  0.00     0.018 C 
ENDBRANCH   5   6
BRANCH   5   9
HETATM    9  C8  UNL     1      19.063  42.406  -9.459  1.00  0.00     0.688 A 
HETATM   10  N2  UNL     1      20.353  42.104  -9.526  1.00  0.00    -0.200 N 
HETATM   11  C9  UNL     1      21.314  43.064  -9.479  1.00  0.00     0.121 A 
ATOM     12  H2  UNL     1      20.631  41.127  -9.615  1.00  0.00     0.183 HD
HETATM   13  C10 UNL     1      20.928  44.371  -9.360  1.00  0.00     0.022 A 
HETATM   14  C30 UNL     1      19.591  44.692  -9.291  1.00  0.00     0.121 A 
HETATM   15  N10 UNL     1      18.676  43.674  -9.342  1.00  0.00    -0.200 N 
ATOM     16  H10 UNL     1      17.680  43.891  -9.289  1.00  0.00     0.183 HD
BRANCH  13  17
HETATM   17  C11 UNL     1      21.921  45.456  -9.313  1.00  0.00     0.046 A 
HETATM   18  C12 UNL     1      22.082  46.415  -8.369  1.00  0.00     0.047 A 
HETATM   19  C13 UNL     1      23.150  47.273  -8.704  1.00  0.00     0.032 A 
HETATM   20  C29 UNL     1      23.602  46.768  -9.886  1.00  0.00     0.104 A 
HETATM   21  N9  UNL     1      22.851  45.668 -10.246  1.00  0.00    -0.364 N 
ATOM     22  H9  UNL     1      22.985  45.108 -11.088  1.00  0.00     0.165 HD
BRANCH  19  23
HETATM   23  C14 UNL     1      23.575  48.384  -7.887  1.00  0.00     0.150 C 
BRANCH  23  24
HETATM   24  O1  UNL     1      23.424  49.577  -8.428  1.00  0.00    -0.345 OA
ATOM     25  H1  UNL     1      22.561  49.760  -8.781  1.00  0.00     0.219 HD
ENDBRANCH  23  24
BRANCH  23  26
HETATM   26  N3  UNL     1      24.132  48.432  -6.608  1.00  0.00    -0.354 N 
BRANCH  26  27
HETATM   27  C15 UNL     1      25.613  48.439  -6.567  1.00  0.00     0.155 C 
BRANCH  27  28
HETATM   28  C16 UNL     1      26.199  49.598  -5.864  1.00  0.00     0.291 C 
BRANCH  28  29
HETATM   29  N4  UNL     1      27.291  50.221  -6.523  1.00  0.00     0.081 N 
HETATM   30  C17 UNL     1      26.974  50.494  -7.923  1.00  0.00     0.309 C 
HETATM   31  C18 UNL     1      28.501  49.455  -6.358  1.00  0.00     0.309 C 
ENDBRANCH  28  29
ENDBRANCH  27  28
ENDBRANCH  26  27
BRANCH  26  32
HETATM   32  C19 UNL     1      23.408  48.476  -5.386  1.00  0.00     0.186 C 
BRANCH  32  33
HETATM   33  C20 UNL     1      22.433  47.358  -5.257  1.00  0.00     0.073 A 
HETATM   34  N5  UNL     1      22.868  46.083  -5.233  1.00  0.00    -0.353 N 
HETATM   35  C21 UNL     1      22.086  45.011  -5.127  1.00  0.00     0.059 A 
ATOM     36  H5  UNL     1      23.873  45.928  -5.301  1.00  0.00     0.166 HD
HETATM   37  C22 UNL     1      22.514  43.709  -5.103  1.00  0.00     0.032 A 
HETATM   38  C27 UNL     1      20.719  45.261  -5.036  1.00  0.00     0.061 A 
HETATM   39  C23 UNL     1      21.647  42.662  -4.994  1.00  0.00     0.009 A 
HETATM   40  C24 UNL     1      20.293  42.863  -4.903  1.00  0.00    -0.060 A 
HETATM   41  C25 UNL     1      19.345  41.713  -4.788  1.00  0.00     0.048 C 
HETATM   42  C26 UNL     1      19.853  44.164  -4.925  1.00  0.00     0.038 A 
HETATM   43  N6  UNL     1      20.253  46.503  -5.058  1.00  0.00    -0.338 N 
HETATM   44  C28 UNL     1      21.090  47.602  -5.169  1.00  0.00     0.144 A 
ATOM     45  H6  UNL     1      19.247  46.653  -4.991  1.00  0.00     0.167 HD
BRANCH  44  46
HETATM   46  N7  UNL     1      20.539  48.744  -5.184  1.00  0.00    -0.290 N 
ATOM     47  H7  UNL     1      21.192  49.518  -5.304  1.00  0.00     0.188 HD
BRANCH  46  48
HETATM   48  N8  UNL     1      19.265  49.118  -5.071  1.00  0.00    -0.344 N 
ATOM     49  H82 UNL     1      18.612  48.349  -5.222  1.00  0.00     0.176 HD
ATOM     50  H81 UNL     1      18.837  50.020  -4.865  1.00  0.00     0.176 HD
ENDBRANCH  46  48
ENDBRANCH  44  46
ENDBRANCH  32  33
ENDBRANCH  26  32
ENDBRANCH  23  26
ENDBRANCH  19  23
ENDBRANCH  13  17
ENDBRANCH   5   9
ENDBRANCH   4   5
ENDBRANCH   3   4
TORSDOF 15
ENDMDL
