MODEL 1
REMARK VINA RESULT: -9.115620790      0.000      0.000
REMARK  12 active torsions:
REMARK  status: ('A' for Active; 'I' for Inactive)
REMARK    1  A    between atoms: O1_2  and  C2_3 
REMARK    2  A    between atoms: C4_5  and  C5_6 
REMARK    3  A    between atoms: C5_6  and  C6_7 
REMARK    4  A    between atoms: C8_11  and  N2_12 
REMARK    5  A    between atoms: C11_22  and  C12_23 
REMARK    6  A    between atoms: C12_23  and  N5_24 
REMARK    7  A    between atoms: N7_29  and  C15_30 
REMARK    8  A    between atoms: C15_30  and  C16_31 
REMARK    9  A    between atoms: C16_31  and  C17_32 
REMARK   10  A    between atoms: C17_32  and  O3_33 
REMARK   11  A    between atoms: C17_32  and  O4_35 
REMARK   12  A    between atoms: C21_39  and  C22_40 
ROOT
HETATM    1  C2  UNL     1      20.542  41.646  -6.569  1.00  0.00     0.069 A 
HETATM    2  C3  UNL     1      21.128  42.380  -7.564  1.00  0.00     0.044 A 
HETATM    3  C4  UNL     1      20.445  42.524  -8.765  1.00  0.00    -0.050 A 
HETATM    4  C10 UNL     1      19.233  41.938  -8.914  1.00  0.00     0.020 A 
HETATM    5  C11 UNL     1      18.604  41.182  -7.919  1.00  0.00    -0.017 A 
HETATM    6  C28 UNL     1      19.280  41.049  -6.748  1.00  0.00     0.049 A 
ENDROOT
BRANCH   5   7
HETATM    7  C12 UNL     1      17.292  40.635  -8.169  1.00  0.00     0.108 C 
BRANCH   7   8
HETATM    8  N5  UNL     1      17.197  39.465  -8.995  1.00  0.00    -0.294 N 
HETATM    9  C13 UNL     1      17.066  38.224  -8.256  1.00  0.00     0.343 C 
HETATM   10  O2  UNL     1      17.303  38.219  -7.021  1.00  0.00    -0.245 OA
HETATM   11  N6  UNL     1      16.679  37.005  -8.861  1.00  0.00    -0.242 N 
HETATM   12  C14 UNL     1      16.568  35.772  -8.077  1.00  0.00     0.183 C 
HETATM   13  N7  UNL     1      16.412  36.988 -10.221  1.00  0.00    -0.253 N 
HETATM   14  C20 UNL     1      16.539  38.180 -10.943  1.00  0.00     0.262 C 
HETATM   15  O5  UNL     1      16.166  38.226 -12.137  1.00  0.00    -0.269 OA
HETATM   16  C21 UNL     1      17.112  39.470 -10.386  1.00  0.00     0.192 C 
BRANCH  13  17
HETATM   17  C15 UNL     1      16.006  35.726 -10.859  1.00  0.00     0.157 C 
BRANCH  17  18
HETATM   18  C16 UNL     1      16.953  35.320 -11.931  1.00  0.00     0.082 C 
BRANCH  18  19
HETATM   19  C17 UNL     1      16.145  34.642 -13.048  1.00  0.00     0.260 C 
BRANCH  19  20
HETATM   20  O3  UNL     1      15.489  33.524 -12.570  1.00  0.00    -0.366 OA
HETATM   21  C18 UNL     1      16.128  32.339 -12.894  1.00  0.00     0.204 C 
ENDBRANCH  19  20
BRANCH  19  22
HETATM   22  O4  UNL     1      15.238  35.574 -13.573  1.00  0.00    -0.366 OA
HETATM   23  C19 UNL     1      15.689  36.069 -14.798  1.00  0.00     0.204 C 
ENDBRANCH  19  22
ENDBRANCH  18  19
ENDBRANCH  17  18
ENDBRANCH  13  17
BRANCH  16  24
HETATM   24  C22 UNL     1      18.222  39.823 -11.282  1.00  0.00     0.018 C 
HETATM   25  C23 UNL     1      19.070  38.741 -11.840  1.00  0.00     0.007 C 
HETATM   26  C24 UNL     1      20.004  39.353 -12.881  1.00  0.00     0.000 C 
HETATM   27  C25 UNL     1      20.371  40.785 -12.557  1.00  0.00     0.000 C 
HETATM   28  C26 UNL     1      19.154  41.688 -12.547  1.00  0.00     0.000 C 
HETATM   29  C27 UNL     1      17.923  40.823 -12.364  1.00  0.00     0.007 C 
ENDBRANCH  16  24
ENDBRANCH   7   8
ENDBRANCH   5   7
BRANCH   3  30
HETATM   30  C5  UNL     1      21.112  43.349  -9.826  1.00  0.00     0.082 C 
BRANCH  30  31
HETATM   31  C6  UNL     1      21.502  44.647  -9.234  1.00  0.00     0.006 A 
HETATM   32  C7  UNL     1      20.532  45.402  -8.612  1.00  0.00     0.117 A 
HETATM   33  N1  UNL     1      20.867  46.605  -8.070  1.00  0.00    -0.202 N 
HETATM   34  C8  UNL     1      22.108  47.090  -8.115  1.00  0.00     0.677 A 
ATOM     35  H1  UNL     1      20.142  47.156  -7.612  1.00  0.00     0.183 HD
HETATM   36  N3  UNL     1      23.059  46.375  -8.713  1.00  0.00    -0.177 N 
HETATM   37  C9  UNL     1      22.774  45.156  -9.273  1.00  0.00     0.122 A 
ATOM     38  H3  UNL     1      24.011  46.738  -8.754  1.00  0.00     0.185 HD
HETATM   39  N4  UNL     1      23.727  44.517  -9.820  1.00  0.00    -0.385 N 
ATOM     40  H42 UNL     1      23.515  43.611 -10.236  1.00  0.00     0.157 HD
ATOM     41  H41 UNL     1      24.674  44.895  -9.849  1.00  0.00     0.157 HD
BRANCH  34  42
HETATM   42  N2  UNL     1      22.358  48.250  -7.572  1.00  0.00    -0.234 N 
ATOM     43  H22 UNL     1      21.942  48.529  -6.683  1.00  0.00     0.174 HD
ATOM     44  H21 UNL     1      22.985  48.898  -8.050  1.00  0.00     0.174 HD
ENDBRANCH  34  42
ENDBRANCH  30  31
ENDBRANCH   3  30
BRANCH   1  45
HETATM   45  O1  UNL     1      21.201  41.477  -5.344  1.00  0.00    -0.356 OA
HETATM   46  C1  UNL     1      20.573  41.922  -4.181  1.00  0.00     0.210 C 
ENDBRANCH   1  45
TORSDOF 12
ENDMDL
MODEL 2
REMARK VINA RESULT: -9.007437465      0.297      1.033
REMARK  12 active torsions:
REMARK  status: ('A' for Active; 'I' for Inactive)
REMARK    1  A    between atoms: O1_2  and  C2_3 
REMARK    2  A    between atoms: C4_5  and  C5_6 
REMARK    3  A    between atoms: C5_6  and  C6_7 
REMARK    4  A    between atoms: C8_11  and  N2_12 
REMARK    5  A    between atoms: C11_22  and  C12_23 
REMARK    6  A    between atoms: C12_23  and  N5_24 
REMARK    7  A    between atoms: N7_29  and  C15_30 
REMARK    8  A    between atoms: C15_30  and  C16_31 
REMARK    9  A    between atoms: C16_31  and  C17_32 
REMARK   10  A    between atoms: C17_32  and  O3_33 
REMARK   11  A    between atoms: C17_32  and  O4_35 
REMARK   12  A    between atoms: C21_39  and  C22_40 
ROOT
HETATM    1  C2  UNL     1      20.559  41.687  -6.535  1.00  0.00     0.069 A 
HETATM    2  C3  UNL     1      21.137  42.414  -7.540  1.00  0.00     0.044 A 
HETATM    3  C4  UNL     1      20.450  42.538  -8.741  1.00  0.00    -0.050 A 
HETATM    4  C10 UNL     1      19.243  41.940  -8.881  1.00  0.00     0.020 A 
HETATM    5  C11 UNL     1      18.622  41.191  -7.876  1.00  0.00    -0.017 A 
HETATM    6  C28 UNL     1      19.301  41.077  -6.705  1.00  0.00     0.049 A 
ENDROOT
BRANCH   5   7
HETATM    7  C12 UNL     1      17.314  40.629  -8.117  1.00  0.00     0.108 C 
BRANCH   7   8
HETATM    8  N5  UNL     1      17.230  39.436  -8.910  1.00  0.00    -0.294 N 
HETATM    9  C13 UNL     1      17.129  38.213  -8.135  1.00  0.00     0.343 C 
HETATM   10  O2  UNL     1      17.380  38.247  -6.904  1.00  0.00    -0.245 OA
HETATM   11  N6  UNL     1      16.756  36.972  -8.701  1.00  0.00    -0.242 N 
HETATM   12  C14 UNL     1      16.676  35.759  -7.882  1.00  0.00     0.183 C 
HETATM   13  N7  UNL     1      16.473  36.913 -10.057  1.00  0.00    -0.253 N 
HETATM   14  C20 UNL     1      16.571  38.086 -10.813  1.00  0.00     0.262 C 
HETATM   15  O5  UNL     1      16.183  38.093 -12.003  1.00  0.00    -0.269 OA
HETATM   16  C21 UNL     1      17.128  39.401 -10.298  1.00  0.00     0.192 C 
BRANCH  13  17
HETATM   17  C15 UNL     1      16.082  35.627 -10.655  1.00  0.00     0.157 C 
BRANCH  17  18
HETATM   18  C16 UNL     1      16.811  35.364 -11.925  1.00  0.00     0.082 C 
BRANCH  18  19
HETATM   19  C17 UNL     1      15.859  34.621 -12.875  1.00  0.00     0.260 C 
BRANCH  19  20
HETATM   20  O3  UNL     1      15.145  35.515 -13.652  1.00  0.00    -0.366 OA
HETATM   21  C18 UNL     1      15.852  35.961 -14.755  1.00  0.00     0.204 C 
ENDBRANCH  19  20
BRANCH  19  22
HETATM   22  O4  UNL     1      16.613  33.749 -13.673  1.00  0.00    -0.366 OA
HETATM   23  C19 UNL     1      16.166  32.434 -13.527  1.00  0.00     0.204 C 
ENDBRANCH  19  22
ENDBRANCH  18  19
ENDBRANCH  17  18
ENDBRANCH  13  17
BRANCH  16  24
HETATM   24  C22 UNL     1      18.221  39.748 -11.218  1.00  0.00     0.018 C 
HETATM   25  C23 UNL     1      19.044  38.661 -11.803  1.00  0.00     0.007 C 
HETATM   26  C24 UNL     1      19.961  39.270 -12.861  1.00  0.00     0.000 C 
HETATM   27  C25 UNL     1      20.351  40.695 -12.535  1.00  0.00     0.000 C 
HETATM   28  C26 UNL     1      19.144  41.612 -12.491  1.00  0.00     0.000 C 
HETATM   29  C27 UNL     1      17.909  40.759 -12.285  1.00  0.00     0.007 C 
ENDBRANCH  16  24
ENDBRANCH   7   8
ENDBRANCH   5   7
BRANCH   3  30
HETATM   30  C5  UNL     1      21.108  43.357  -9.813  1.00  0.00     0.082 C 
BRANCH  30  31
HETATM   31  C6  UNL     1      21.497  44.661  -9.234  1.00  0.00     0.006 A 
HETATM   32  C7  UNL     1      20.526  45.421  -8.619  1.00  0.00     0.117 A 
HETATM   33  N1  UNL     1      20.860  46.630  -8.089  1.00  0.00    -0.202 N 
HETATM   34  C8  UNL     1      22.100  47.115  -8.140  1.00  0.00     0.677 A 
ATOM     35  H1  UNL     1      20.134  47.185  -7.636  1.00  0.00     0.183 HD
HETATM   36  N3  UNL     1      23.052  46.396  -8.731  1.00  0.00    -0.177 N 
HETATM   37  C9  UNL     1      22.768  45.171  -9.279  1.00  0.00     0.122 A 
ATOM     38  H3  UNL     1      24.004  46.760  -8.776  1.00  0.00     0.185 HD
HETATM   39  N4  UNL     1      23.722  44.527  -9.820  1.00  0.00    -0.385 N 
ATOM     40  H42 UNL     1      23.511  43.617 -10.227  1.00  0.00     0.157 HD
ATOM     41  H41 UNL     1      24.668  44.907  -9.853  1.00  0.00     0.157 HD
BRANCH  34  42
HETATM   42  N2  UNL     1      22.349  48.282  -7.609  1.00  0.00    -0.234 N 
ATOM     43  H22 UNL     1      22.353  49.136  -8.165  1.00  0.00     0.174 HD
ATOM     44  H21 UNL     1      22.546  48.341  -6.609  1.00  0.00     0.174 HD
ENDBRANCH  34  42
ENDBRANCH  30  31
ENDBRANCH   3  30
BRANCH   1  45
HETATM   45  O1  UNL     1      21.221  41.537  -5.309  1.00  0.00    -0.356 OA
HETATM   46  C1  UNL     1      20.560  41.917  -4.142  1.00  0.00     0.210 C 
ENDBRANCH   1  45
TORSDOF 12
ENDMDL
MODEL 3
REMARK VINA RESULT: -8.924277629      3.221     10.844
REMARK  12 active torsions:
REMARK  status: ('A' for Active; 'I' for Inactive)
REMARK    1  A    between atoms: O1_2  and  C2_3 
REMARK    2  A    between atoms: C4_5  and  C5_6 
REMARK    3  A    between atoms: C5_6  and  C6_7 
REMARK    4  A    between atoms: C8_11  and  N2_12 
REMARK    5  A    between atoms: C11_22  and  C12_23 
REMARK    6  A    between atoms: C12_23  and  N5_24 
REMARK    7  A    between atoms: N7_29  and  C15_30 
REMARK    8  A    between atoms: C15_30  and  C16_31 
REMARK    9  A    between atoms: C16_31  and  C17_32 
REMARK   10  A    between atoms: C17_32  and  O3_33 
REMARK   11  A    between atoms: C17_32  and  O4_35 
REMARK   12  A    between atoms: C21_39  and  C22_40 
ROOT
HETATM    1  C2  UNL     1      20.306  41.221 -11.097  1.00  0.00     0.069 A 
HETATM    2  C3  UNL     1      19.970  40.356 -10.093  1.00  0.00     0.044 A 
HETATM    3  C4  UNL     1      19.515  40.886  -8.892  1.00  0.00    -0.050 A 
HETATM    4  C10 UNL     1      19.423  42.230  -8.752  1.00  0.00     0.020 A 
HETATM    5  C11 UNL     1      19.758  43.144  -9.757  1.00  0.00    -0.017 A 
HETATM    6  C28 UNL     1      20.200  42.615 -10.928  1.00  0.00     0.049 A 
ENDROOT
BRANCH   5   7
HETATM    7  C12 UNL     1      19.583  44.557  -9.516  1.00  0.00     0.108 C 
BRANCH   7   8
HETATM    8  N5  UNL     1      20.529  45.215  -8.660  1.00  0.00    -0.294 N 
HETATM    9  C13 UNL     1      21.585  45.915  -9.368  1.00  0.00     0.343 C 
HETATM   10  O2  UNL     1      21.754  45.689 -10.593  1.00  0.00    -0.245 OA
HETATM   11  N6  UNL     1      22.442  46.849  -8.742  1.00  0.00    -0.242 N 
HETATM   12  C14 UNL     1      23.503  47.526  -9.494  1.00  0.00     0.183 C 
HETATM   13  N7  UNL     1      22.272  47.114  -7.392  1.00  0.00    -0.253 N 
HETATM   14  C20 UNL     1      21.259  46.441  -6.700  1.00  0.00     0.262 C 
HETATM   15  O5  UNL     1      20.989  46.766  -5.522  1.00  0.00    -0.269 OA
HETATM   16  C21 UNL     1      20.425  45.310  -7.275  1.00  0.00     0.192 C 
BRANCH  13  17
HETATM   17  C15 UNL     1      23.157  48.086  -6.732  1.00  0.00     0.157 C 
BRANCH  17  18
HETATM   18  C16 UNL     1      24.060  47.432  -5.748  1.00  0.00     0.082 C 
BRANCH  18  19
HETATM   19  C17 UNL     1      24.222  48.378  -4.548  1.00  0.00     0.260 C 
BRANCH  19  20
HETATM   20  O3  UNL     1      24.851  49.549  -4.928  1.00  0.00    -0.366 OA
HETATM   21  C18 UNL     1      26.232  49.470  -4.864  1.00  0.00     0.204 C 
ENDBRANCH  19  20
BRANCH  19  22
HETATM   22  O4  UNL     1      22.954  48.639  -4.010  1.00  0.00    -0.366 OA
HETATM   23  C19 UNL     1      22.811  48.027  -2.762  1.00  0.00     0.204 C 
ENDBRANCH  19  22
ENDBRANCH  18  19
ENDBRANCH  17  18
ENDBRANCH  13  17
BRANCH  16  24
HETATM   24  C22 UNL     1      20.611  44.182  -6.351  1.00  0.00     0.018 C 
HETATM   25  C23 UNL     1      21.926  44.001  -5.688  1.00  0.00     0.007 C 
HETATM   26  C24 UNL     1      21.788  42.895  -4.645  1.00  0.00     0.000 C 
HETATM   27  C25 UNL     1      20.766  41.852  -5.040  1.00  0.00     0.000 C 
HETATM   28  C26 UNL     1      19.376  42.446  -5.163  1.00  0.00     0.000 C 
HETATM   29  C27 UNL     1      19.516  43.944  -5.349  1.00  0.00     0.007 C 
ENDBRANCH  16  24
ENDBRANCH   7   8
ENDBRANCH   5   7
BRANCH   3  30
HETATM   30  C5  UNL     1      19.138  39.906  -7.820  1.00  0.00     0.082 C 
BRANCH  30  31
HETATM   31  C6  UNL     1      18.185  38.930  -8.392  1.00  0.00     0.006 A 
HETATM   32  C7  UNL     1      17.101  39.408  -9.096  1.00  0.00     0.117 A 
HETATM   33  N1  UNL     1      16.205  38.527  -9.621  1.00  0.00    -0.202 N 
HETATM   34  C8  UNL     1      16.333  37.208  -9.482  1.00  0.00     0.677 A 
ATOM     35  H1  UNL     1      15.407  38.891 -10.140  1.00  0.00     0.183 HD
HETATM   36  N3  UNL     1      17.373  36.727  -8.804  1.00  0.00    -0.177 N 
HETATM   37  C9  UNL     1      18.305  37.571  -8.257  1.00  0.00     0.122 A 
ATOM     38  H3  UNL     1      17.479  35.719  -8.692  1.00  0.00     0.185 HD
HETATM   39  N4  UNL     1      19.281  37.052  -7.631  1.00  0.00    -0.385 N 
ATOM     40  H42 UNL     1      19.974  37.679  -7.224  1.00  0.00     0.157 HD
ATOM     41  H41 UNL     1      19.371  36.041  -7.530  1.00  0.00     0.157 HD
BRANCH  34  42
HETATM   42  N2  UNL     1      15.436  36.423 -10.015  1.00  0.00    -0.234 N 
ATOM     43  H22 UNL     1      15.558  35.411 -10.048  1.00  0.00     0.174 HD
ATOM     44  H21 UNL     1      14.589  36.832 -10.410  1.00  0.00     0.174 HD
ENDBRANCH  34  42
ENDBRANCH  30  31
ENDBRANCH   3  30
BRANCH   1  45
HETATM   45  O1  UNL     1      20.771  40.724 -12.323  1.00  0.00    -0.356 OA
HETATM   46  C1  UNL     1      19.965  40.870 -13.451  1.00  0.00     0.210 C 
ENDBRANCH   1  45
TORSDOF 12
ENDMDL
MODEL 4
REMARK VINA RESULT: -8.803098028      1.410      2.069
REMARK  12 active torsions:
REMARK  status: ('A' for Active; 'I' for Inactive)
REMARK    1  A    between atoms: O1_2  and  C2_3 
REMARK    2  A    between atoms: C4_5  and  C5_6 
REMARK    3  A    between atoms: C5_6  and  C6_7 
REMARK    4  A    between atoms: C8_11  and  N2_12 
REMARK    5  A    between atoms: C11_22  and  C12_23 
REMARK    6  A    between atoms: C12_23  and  N5_24 
REMARK    7  A    between atoms: N7_29  and  C15_30 
REMARK    8  A    between atoms: C15_30  and  C16_31 
REMARK    9  A    between atoms: C16_31  and  C17_32 
REMARK   10  A    between atoms: C17_32  and  O3_33 
REMARK   11  A    between atoms: C17_32  and  O4_35 
REMARK   12  A    between atoms: C21_39  and  C22_40 
ROOT
HETATM    1  C2  UNL     1      20.353  41.316  -6.710  1.00  0.00     0.069 A 
HETATM    2  C3  UNL     1      20.977  41.845  -7.806  1.00  0.00     0.044 A 
HETATM    3  C4  UNL     1      20.311  41.808  -9.024  1.00  0.00    -0.050 A 
HETATM    4  C10 UNL     1      19.078  41.252  -9.090  1.00  0.00     0.020 A 
HETATM    5  C11 UNL     1      18.410  40.703  -7.991  1.00  0.00    -0.017 A 
HETATM    6  C28 UNL     1      19.069  40.745  -6.804  1.00  0.00     0.049 A 
ENDROOT
BRANCH   5   7
HETATM    7  C12 UNL     1      17.078  40.172  -8.165  1.00  0.00     0.108 C 
BRANCH   7   8
HETATM    8  N5  UNL     1      16.940  38.909  -8.833  1.00  0.00    -0.294 N 
HETATM    9  C13 UNL     1      16.866  37.768  -7.940  1.00  0.00     0.343 C 
HETATM   10  O2  UNL     1      17.182  37.916  -6.731  1.00  0.00    -0.245 OA
HETATM   11  N6  UNL     1      16.451  36.484  -8.363  1.00  0.00    -0.242 N 
HETATM   12  C14 UNL     1      16.401  35.357  -7.427  1.00  0.00     0.183 C 
HETATM   13  N7  UNL     1      16.097  36.300  -9.691  1.00  0.00    -0.253 N 
HETATM   14  C20 UNL     1      16.168  37.393 -10.560  1.00  0.00     0.262 C 
HETATM   15  O5  UNL     1      15.718  37.292 -11.724  1.00  0.00    -0.269 OA
HETATM   16  C21 UNL     1      16.765  38.743 -10.204  1.00  0.00     0.192 C 
BRANCH  13  17
HETATM   17  C15 UNL     1      15.660  34.969 -10.141  1.00  0.00     0.157 C 
BRANCH  17  18
HETATM   18  C16 UNL     1      16.784  34.187 -10.723  1.00  0.00     0.082 C 
BRANCH  18  19
HETATM   19  C17 UNL     1      16.389  32.703 -10.707  1.00  0.00     0.260 C 
BRANCH  19  20
HETATM   20  O3  UNL     1      17.495  31.899 -10.911  1.00  0.00    -0.366 OA
HETATM   21  C18 UNL     1      17.478  31.252 -12.135  1.00  0.00     0.204 C 
ENDBRANCH  19  20
BRANCH  19  22
HETATM   22  O4  UNL     1      15.778  32.415  -9.478  1.00  0.00    -0.366 OA
HETATM   23  C19 UNL     1      15.018  31.247  -9.565  1.00  0.00     0.204 C 
ENDBRANCH  19  22
ENDBRANCH  18  19
ENDBRANCH  17  18
ENDBRANCH  13  17
BRANCH  16  24
HETATM   24  C22 UNL     1      17.812  38.982 -11.208  1.00  0.00     0.018 C 
HETATM   25  C23 UNL     1      18.579  37.829 -11.739  1.00  0.00     0.007 C 
HETATM   26  C24 UNL     1      19.448  38.322 -12.894  1.00  0.00     0.000 C 
HETATM   27  C25 UNL     1      19.884  39.759 -12.715  1.00  0.00     0.000 C 
HETATM   28  C26 UNL     1      18.701  40.706 -12.686  1.00  0.00     0.000 C 
HETATM   29  C27 UNL     1      17.461  39.905 -12.341  1.00  0.00     0.007 C 
ENDBRANCH  16  24
ENDBRANCH   7   8
ENDBRANCH   5   7
BRANCH   3  30
HETATM   30  C5  UNL     1      21.020  42.414 -10.200  1.00  0.00     0.082 C 
BRANCH  30  31
HETATM   31  C6  UNL     1      21.432  43.788  -9.842  1.00  0.00     0.006 A 
HETATM   32  C7  UNL     1      22.763  44.028  -9.585  1.00  0.00     0.117 A 
HETATM   33  N1  UNL     1      23.162  45.284  -9.241  1.00  0.00    -0.202 N 
HETATM   34  C8  UNL     1      22.310  46.303  -9.142  1.00  0.00     0.677 A 
ATOM     35  H1  UNL     1      24.150  45.450  -9.053  1.00  0.00     0.183 HD
HETATM   36  N3  UNL     1      21.018  46.091  -9.386  1.00  0.00    -0.177 N 
HETATM   37  C9  UNL     1      20.565  44.845  -9.737  1.00  0.00     0.122 A 
ATOM     38  H3  UNL     1      20.358  46.865  -9.311  1.00  0.00     0.185 HD
HETATM   39  N4  UNL     1      19.322  44.709  -9.967  1.00  0.00    -0.385 N 
ATOM     40  H42 UNL     1      18.985  43.783 -10.228  1.00  0.00     0.157 HD
ATOM     41  H41 UNL     1      18.677  45.495  -9.889  1.00  0.00     0.157 HD
BRANCH  34  42
HETATM   42  N2  UNL     1      22.763  47.482  -8.810  1.00  0.00    -0.234 N 
ATOM     43  H22 UNL     1      23.418  47.608  -8.038  1.00  0.00     0.174 HD
ATOM     44  H21 UNL     1      22.454  48.299  -9.336  1.00  0.00     0.174 HD
ENDBRANCH  34  42
ENDBRANCH  30  31
ENDBRANCH   3  30
BRANCH   1  45
HETATM   45  O1  UNL     1      20.994  41.333  -5.464  1.00  0.00    -0.356 OA
HETATM   46  C1  UNL     1      20.417  42.065  -4.426  1.00  0.00     0.210 C 
ENDBRANCH   1  45
TORSDOF 12
ENDMDL
MODEL 5
REMARK VINA RESULT: -8.798814260      3.473     10.824
REMARK  12 active torsions:
REMARK  status: ('A' for Active; 'I' for Inactive)
REMARK    1  A    between atoms: O1_2  and  C2_3 
REMARK    2  A    between atoms: C4_5  and  C5_6 
REMARK    3  A    between atoms: C5_6  and  C6_7 
REMARK    4  A    between atoms: C8_11  and  N2_12 
REMARK    5  A    between atoms: C11_22  and  C12_23 
REMARK    6  A    between atoms: C12_23  and  N5_24 
REMARK    7  A    between atoms: N7_29  and  C15_30 
REMARK    8  A    between atoms: C15_30  and  C16_31 
REMARK    9  A    between atoms: C16_31  and  C17_32 
REMARK   10  A    between atoms: C17_32  and  O3_33 
REMARK   11  A    between atoms: C17_32  and  O4_35 
REMARK   12  A    between atoms: C21_39  and  C22_40 
ROOT
HETATM    1  C2  UNL     1      20.858  41.294  -9.508  1.00  0.00     0.069 A 
HETATM    2  C3  UNL     1      20.532  40.915 -10.782  1.00  0.00     0.044 A 
HETATM    3  C4  UNL     1      20.037  41.881 -11.649  1.00  0.00    -0.050 A 
HETATM    4  C10 UNL     1      19.890  43.154 -11.211  1.00  0.00     0.020 A 
HETATM    5  C11 UNL     1      20.213  43.576  -9.917  1.00  0.00    -0.017 A 
HETATM    6  C28 UNL     1      20.698  42.625  -9.078  1.00  0.00     0.049 A 
ENDROOT
BRANCH   5   7
HETATM    7  C12 UNL     1      20.055  44.968  -9.567  1.00  0.00     0.108 C 
BRANCH   7   8
HETATM    8  N5  UNL     1      20.907  45.504  -8.543  1.00  0.00    -0.294 N 
HETATM    9  C13 UNL     1      22.065  46.217  -9.046  1.00  0.00     0.343 C 
HETATM   10  O2  UNL     1      22.380  46.096 -10.257  1.00  0.00    -0.245 OA
HETATM   11  N6  UNL     1      22.867  47.053  -8.234  1.00  0.00    -0.242 N 
HETATM   12  C14 UNL     1      24.036  47.747  -8.783  1.00  0.00     0.183 C 
HETATM   13  N7  UNL     1      22.537  47.202  -6.896  1.00  0.00    -0.253 N 
HETATM   14  C20 UNL     1      21.423  46.516  -6.401  1.00  0.00     0.262 C 
HETATM   15  O5  UNL     1      21.018  46.745  -5.239  1.00  0.00    -0.269 OA
HETATM   16  C21 UNL     1      20.632  45.479  -7.178  1.00  0.00     0.192 C 
BRANCH  13  17
HETATM   17  C15 UNL     1      23.363  48.071  -6.043  1.00  0.00     0.157 C 
BRANCH  17  18
HETATM   18  C16 UNL     1      24.029  47.306  -4.956  1.00  0.00     0.082 C 
BRANCH  18  19
HETATM   19  C17 UNL     1      24.173  48.234  -3.740  1.00  0.00     0.260 C 
BRANCH  19  20
HETATM   20  O3  UNL     1      24.843  49.394  -4.085  1.00  0.00    -0.366 OA
HETATM   21  C18 UNL     1      26.166  49.397  -3.680  1.00  0.00     0.204 C 
ENDBRANCH  19  20
BRANCH  19  22
HETATM   22  O4  UNL     1      22.895  48.520  -3.241  1.00  0.00    -0.366 OA
HETATM   23  C19 UNL     1      22.617  47.741  -2.116  1.00  0.00     0.204 C 
ENDBRANCH  19  22
ENDBRANCH  18  19
ENDBRANCH  17  18
ENDBRANCH  13  17
BRANCH  16  24
HETATM   24  C22 UNL     1      20.663  44.265  -6.350  1.00  0.00     0.018 C 
HETATM   25  C23 UNL     1      21.831  44.023  -5.468  1.00  0.00     0.007 C 
HETATM   26  C24 UNL     1      21.521  42.818  -4.582  1.00  0.00     0.000 C 
HETATM   27  C25 UNL     1      20.615  41.817  -5.265  1.00  0.00     0.000 C 
HETATM   28  C26 UNL     1      19.262  42.418  -5.593  1.00  0.00     0.000 C 
HETATM   29  C27 UNL     1      19.403  43.927  -5.603  1.00  0.00     0.007 C 
ENDBRANCH  16  24
ENDBRANCH   7   8
ENDBRANCH   5   7
BRANCH   3  30
HETATM   30  C5  UNL     1      19.708  41.432 -13.043  1.00  0.00     0.082 C 
BRANCH  30  31
HETATM   31  C6  UNL     1      18.778  40.285 -12.957  1.00  0.00     0.006 A 
HETATM   32  C7  UNL     1      19.238  39.039 -13.324  1.00  0.00     0.117 A 
HETATM   33  N1  UNL     1      18.395  37.971 -13.264  1.00  0.00    -0.202 N 
HETATM   34  C8  UNL     1      17.130  38.081 -12.860  1.00  0.00     0.677 A 
ATOM     35  H1  UNL     1      18.745  37.054 -13.538  1.00  0.00     0.183 HD
HETATM   36  N3  UNL     1      16.667  39.276 -12.502  1.00  0.00    -0.177 N 
HETATM   37  C9  UNL     1      17.475  40.384 -12.543  1.00  0.00     0.122 A 
ATOM     38  H3  UNL     1      15.699  39.370 -12.193  1.00  0.00     0.185 HD
HETATM   39  N4  UNL     1      16.978  41.495 -12.178  1.00  0.00    -0.385 N 
ATOM     40  H42 UNL     1      17.579  42.318 -12.209  1.00  0.00     0.157 HD
ATOM     41  H41 UNL     1      16.009  41.569 -11.870  1.00  0.00     0.157 HD
BRANCH  34  42
HETATM   42  N2  UNL     1      16.379  37.013 -12.825  1.00  0.00    -0.234 N 
ATOM     43  H22 UNL     1      15.573  36.902 -13.440  1.00  0.00     0.174 HD
ATOM     44  H21 UNL     1      16.604  36.269 -12.164  1.00  0.00     0.174 HD
ENDBRANCH  34  42
ENDBRANCH  30  31
ENDBRANCH   3  30
BRANCH   1  45
HETATM   45  O1  UNL     1      21.359  40.348  -8.604  1.00  0.00    -0.356 OA
HETATM   46  C1  UNL     1      20.476  39.422  -8.049  1.00  0.00     0.210 C 
ENDBRANCH   1  45
TORSDOF 12
ENDMDL
