MODEL 1
REMARK VINA RESULT: -9.069680260      0.000      0.000
REMARK  12 active torsions:
REMARK  status: ('A' for Active; 'I' for Inactive)
REMARK    1  A    between atoms: C2_2  and  N1_3 
REMARK    2  A    between atoms: C3_4  and  N2_5 
REMARK    3  A    between atoms: C4_8  and  C5_9 
REMARK       I    between atoms: C5_9  and  N3_11 
REMARK    4  A    between atoms: N3_11  and  C6_13 
REMARK    5  A    between atoms: C6_13  and  C7_14 
REMARK    6  A    between atoms: C7_14  and  C8_15 
REMARK    7  A    between atoms: C8_15  and  C9_16 
REMARK    8  A    between atoms: C9_16  and  C10_17 
REMARK    9  A    between atoms: C10_17  and  C11_18 
REMARK       I    between atoms: C11_18  and  N4_20 
REMARK   10  A    between atoms: N4_20  and  C12_22 
REMARK   11  A    between atoms: C12_22  and  C13_23 
REMARK   12  A    between atoms: C13_23  and  N5_24 
ROOT
HETATM    1  C5  UNL     1      19.043  41.553  -8.376  1.00  0.00     0.255 C 
HETATM    2  O1  UNL     1      17.800  41.684  -8.563  1.00  0.00    -0.268 OA
HETATM    3  N3  UNL     1      19.697  40.305  -8.566  1.00  0.00    -0.357 N 
ATOM      4  H3  UNL     1      20.695  40.171  -8.406  1.00  0.00     0.162 HD
ENDROOT
BRANCH   1   5
HETATM    5  C4  UNL     1      19.740  42.755  -7.953  1.00  0.00     0.082 A 
HETATM    6  C3  UNL     1      19.563  43.094  -6.622  1.00  0.00     0.118 A 
HETATM    7  N1  UNL     1      20.164  44.233  -6.248  1.00  0.00    -0.327 N 
HETATM    8  C24 UNL     1      20.897  45.001  -7.111  1.00  0.00     0.089 A 
HETATM    9  C21 UNL     1      21.096  44.698  -8.434  1.00  0.00     0.012 A 
HETATM   10  S1  UNL     1      21.746  46.468  -6.906  1.00  0.00    -0.073 SA
HETATM   11  C19 UNL     1      20.465  43.498  -8.855  1.00  0.00    -0.029 A 
HETATM   12  C22 UNL     1      21.845  45.553  -9.161  1.00  0.00    -0.028 A 
HETATM   13  C20 UNL     1      20.460  43.085 -10.289  1.00  0.00     0.050 C 
HETATM   14  C23 UNL     1      22.333  46.670  -8.473  1.00  0.00     0.020 A 
HETATM   15  C28 UNL     1      22.379  45.595 -10.584  1.00  0.00     0.070 C 
HETATM   16  C25 UNL     1      23.145  47.667  -9.244  1.00  0.00     0.318 C 
HETATM   17  N7  UNL     1      22.543  48.033 -10.484  1.00  0.00     0.089 N 
HETATM   18  C26 UNL     1      23.487  48.562 -11.445  1.00  0.00     0.310 C 
HETATM   19  C27 UNL     1      21.858  46.931 -11.134  1.00  0.00     0.277 C 
BRANCH   6  20
HETATM   20  N2  UNL     1      18.916  42.441  -5.746  1.00  0.00    -0.384 N 
ATOM     21  H22 UNL     1      17.907  42.289  -5.714  1.00  0.00     0.157 HD
ATOM     22  H21 UNL     1      19.439  42.001  -4.988  1.00  0.00     0.157 HD
ENDBRANCH   6  20
BRANCH   7  23
HETATM   23  C2  UNL     1      20.076  44.734  -4.879  1.00  0.00     0.127 C 
HETATM   24  C1  UNL     1      21.306  44.403  -4.064  1.00  0.00     0.027 C 
ENDBRANCH   7  23
ENDBRANCH   1   5
BRANCH   3  25
HETATM   25  C6  UNL     1      18.804  39.228  -9.014  1.00  0.00     0.123 C 
BRANCH  25  26
HETATM   26  C7  UNL     1      18.660  38.129  -8.027  1.00  0.00     0.020 C 
BRANCH  26  27
HETATM   27  C8  UNL     1      17.324  38.329  -7.302  1.00  0.00     0.002 C 
BRANCH  27  28
HETATM   28  C9  UNL     1      16.963  37.147  -6.484  1.00  0.00     0.009 C 
BRANCH  28  29
HETATM   29  C10 UNL     1      16.855  35.839  -7.162  1.00  0.00     0.103 C 
BRANCH  29  30
HETATM   30  C11 UNL     1      15.982  35.801  -8.344  1.00  0.00     0.221 C 
HETATM   31  O2  UNL     1      14.737  35.834  -8.340  1.00  0.00    -0.273 OA
HETATM   32  N4  UNL     1      16.609  35.728  -9.641  1.00  0.00    -0.336 N 
ATOM     33  H4  UNL     1      17.628  35.709  -9.687  1.00  0.00     0.168 HD
BRANCH  32  34
HETATM   34  C12 UNL     1      15.881  35.680 -10.846  1.00  0.00     0.102 C 
BRANCH  34  35
HETATM   35  C13 UNL     1      15.642  36.965 -11.555  1.00  0.00     0.081 C 
BRANCH  35  36
HETATM   36  N5  UNL     1      16.782  37.478 -12.196  1.00  0.00    -0.267 NA
HETATM   37  C14 UNL     1      16.418  38.610 -13.094  1.00  0.00     0.115 C 
HETATM   38  C15 UNL     1      17.630  39.513 -13.035  1.00  0.00     0.109 C 
HETATM   39  N6  UNL     1      18.851  38.856 -13.347  1.00  0.00    -0.295 NA
HETATM   40  C16 UNL     1      19.890  39.527 -12.546  1.00  0.00     0.116 C 
HETATM   41  C17 UNL     1      18.970  37.478 -13.095  1.00  0.00     0.071 C 
HETATM   42  C18 UNL     1      17.663  36.698 -12.954  1.00  0.00     0.076 C 
ENDBRANCH  35  36
ENDBRANCH  34  35
ENDBRANCH  32  34
ENDBRANCH  29  30
ENDBRANCH  28  29
ENDBRANCH  27  28
ENDBRANCH  26  27
ENDBRANCH  25  26
ENDBRANCH   3  25
TORSDOF 12
ENDMDL
MODEL 2
REMARK VINA RESULT: -9.064595484      1.621      3.495
REMARK  12 active torsions:
REMARK  status: ('A' for Active; 'I' for Inactive)
REMARK    1  A    between atoms: C2_2  and  N1_3 
REMARK    2  A    between atoms: C3_4  and  N2_5 
REMARK    3  A    between atoms: C4_8  and  C5_9 
REMARK       I    between atoms: C5_9  and  N3_11 
REMARK    4  A    between atoms: N3_11  and  C6_13 
REMARK    5  A    between atoms: C6_13  and  C7_14 
REMARK    6  A    between atoms: C7_14  and  C8_15 
REMARK    7  A    between atoms: C8_15  and  C9_16 
REMARK    8  A    between atoms: C9_16  and  C10_17 
REMARK    9  A    between atoms: C10_17  and  C11_18 
REMARK       I    between atoms: C11_18  and  N4_20 
REMARK   10  A    between atoms: N4_20  and  C12_22 
REMARK   11  A    between atoms: C12_22  and  C13_23 
REMARK   12  A    between atoms: C13_23  and  N5_24 
ROOT
HETATM    1  C5  UNL     1      20.494  41.197  -8.635  1.00  0.00     0.255 C 
HETATM    2  O1  UNL     1      21.520  40.482  -8.817  1.00  0.00    -0.268 OA
HETATM    3  N3  UNL     1      19.184  40.649  -8.699  1.00  0.00    -0.357 N 
ATOM      4  H3  UNL     1      18.340  41.208  -8.571  1.00  0.00     0.162 HD
ENDROOT
BRANCH   1   5
HETATM    5  C4  UNL     1      20.752  42.601  -8.367  1.00  0.00     0.082 A 
HETATM    6  C3  UNL     1      20.882  43.396  -9.492  1.00  0.00     0.118 A 
HETATM    7  N1  UNL     1      21.173  44.681  -9.241  1.00  0.00    -0.327 N 
HETATM    8  C24 UNL     1      21.328  45.171  -7.974  1.00  0.00     0.089 A 
HETATM    9  C21 UNL     1      21.206  44.416  -6.835  1.00  0.00     0.012 A 
HETATM   10  S1  UNL     1      21.697  46.728  -7.382  1.00  0.00    -0.073 SA
HETATM   11  C19 UNL     1      20.902  43.050  -7.076  1.00  0.00    -0.029 A 
HETATM   12  C22 UNL     1      21.385  45.042  -5.653  1.00  0.00    -0.028 A 
HETATM   13  C20 UNL     1      20.867  42.056  -5.963  1.00  0.00     0.050 C 
HETATM   14  C23 UNL     1      21.688  46.406  -5.728  1.00  0.00     0.020 A 
HETATM   15  C28 UNL     1      21.280  44.653  -4.188  1.00  0.00     0.070 C 
HETATM   16  C25 UNL     1      21.928  47.140  -4.442  1.00  0.00     0.318 C 
HETATM   17  N7  UNL     1      22.817  46.450  -3.567  1.00  0.00     0.089 N 
HETATM   18  C26 UNL     1      22.675  46.843  -2.181  1.00  0.00     0.310 C 
HETATM   19  C27 UNL     1      22.658  45.008  -3.611  1.00  0.00     0.277 C 
BRANCH   6  20
HETATM   20  N2  UNL     1      20.743  43.036 -10.703  1.00  0.00    -0.384 N 
ATOM     21  H22 UNL     1      19.871  42.800 -11.176  1.00  0.00     0.157 HD
ATOM     22  H21 UNL     1      21.577  42.981 -11.288  1.00  0.00     0.157 HD
ENDBRANCH   6  20
BRANCH   7  23
HETATM   23  C2  UNL     1      21.345  45.653 -10.318  1.00  0.00     0.127 C 
HETATM   24  C1  UNL     1      22.794  46.025 -10.535  1.00  0.00     0.027 C 
ENDBRANCH   7  23
ENDBRANCH   1   5
BRANCH   3  25
HETATM   25  C6  UNL     1      19.156  39.204  -8.964  1.00  0.00     0.123 C 
BRANCH  25  26
HETATM   26  C7  UNL     1      18.883  38.385  -7.757  1.00  0.00     0.020 C 
BRANCH  26  27
HETATM   27  C8  UNL     1      17.442  38.672  -7.319  1.00  0.00     0.002 C 
BRANCH  27  28
HETATM   28  C9  UNL     1      16.884  37.561  -6.512  1.00  0.00     0.009 C 
BRANCH  28  29
HETATM   29  C10 UNL     1      16.891  36.204  -7.097  1.00  0.00     0.103 C 
BRANCH  29  30
HETATM   30  C11 UNL     1      16.023  36.008  -8.268  1.00  0.00     0.221 C 
HETATM   31  O2  UNL     1      14.783  35.899  -8.253  1.00  0.00    -0.273 OA
HETATM   32  N4  UNL     1      16.651  35.940  -9.564  1.00  0.00    -0.336 N 
ATOM     33  H4  UNL     1      17.665  36.034  -9.619  1.00  0.00     0.168 HD
BRANCH  32  34
HETATM   34  C12 UNL     1      15.928  35.749 -10.759  1.00  0.00     0.102 C 
BRANCH  34  35
HETATM   35  C13 UNL     1      15.652  36.949 -11.593  1.00  0.00     0.081 C 
BRANCH  35  36
HETATM   36  N5  UNL     1      16.794  37.480 -12.215  1.00  0.00    -0.267 NA
HETATM   37  C14 UNL     1      16.424  38.595 -13.132  1.00  0.00     0.115 C 
HETATM   38  C15 UNL     1      17.614  39.526 -13.056  1.00  0.00     0.109 C 
HETATM   39  N6  UNL     1      18.856  38.894 -13.334  1.00  0.00    -0.295 NA
HETATM   40  C16 UNL     1      19.862  39.597 -12.517  1.00  0.00     0.116 C 
HETATM   41  C17 UNL     1      19.001  37.522 -13.064  1.00  0.00     0.071 C 
HETATM   42  C18 UNL     1      17.709  36.713 -12.944  1.00  0.00     0.076 C 
ENDBRANCH  35  36
ENDBRANCH  34  35
ENDBRANCH  32  34
ENDBRANCH  29  30
ENDBRANCH  28  29
ENDBRANCH  27  28
ENDBRANCH  26  27
ENDBRANCH  25  26
ENDBRANCH   3  25
TORSDOF 12
ENDMDL
MODEL 3
REMARK VINA RESULT: -8.881051651      2.881     10.410
REMARK  12 active torsions:
REMARK  status: ('A' for Active; 'I' for Inactive)
REMARK    1  A    between atoms: C2_2  and  N1_3 
REMARK    2  A    between atoms: C3_4  and  N2_5 
REMARK    3  A    between atoms: C4_8  and  C5_9 
REMARK       I    between atoms: C5_9  and  N3_11 
REMARK    4  A    between atoms: N3_11  and  C6_13 
REMARK    5  A    between atoms: C6_13  and  C7_14 
REMARK    6  A    between atoms: C7_14  and  C8_15 
REMARK    7  A    between atoms: C8_15  and  C9_16 
REMARK    8  A    between atoms: C9_16  and  C10_17 
REMARK    9  A    between atoms: C10_17  and  C11_18 
REMARK       I    between atoms: C11_18  and  N4_20 
REMARK   10  A    between atoms: N4_20  and  C12_22 
REMARK   11  A    between atoms: C12_22  and  C13_23 
REMARK   12  A    between atoms: C13_23  and  N5_24 
ROOT
HETATM    1  C5  UNL     1      19.663  42.492  -9.195  1.00  0.00     0.255 C 
HETATM    2  O1  UNL     1      18.928  43.490  -8.946  1.00  0.00    -0.268 OA
HETATM    3  N3  UNL     1      21.075  42.552  -9.045  1.00  0.00    -0.357 N 
ATOM      4  H3  UNL     1      21.690  41.766  -9.254  1.00  0.00     0.162 HD
ENDROOT
BRANCH   1   5
HETATM    5  C4  UNL     1      18.965  41.301  -9.645  1.00  0.00     0.082 A 
HETATM    6  C3  UNL     1      18.580  41.317 -10.974  1.00  0.00     0.118 A 
HETATM    7  N1  UNL     1      17.889  40.239 -11.372  1.00  0.00    -0.327 N 
HETATM    8  C24 UNL     1      17.588  39.202 -10.532  1.00  0.00     0.089 A 
HETATM    9  C21 UNL     1      17.952  39.149  -9.211  1.00  0.00     0.012 A 
HETATM   10  S1  UNL     1      16.736  37.742 -10.769  1.00  0.00    -0.073 SA
HETATM   11  C19 UNL     1      18.681  40.282  -8.766  1.00  0.00    -0.029 A 
HETATM   12  C22 UNL     1      17.583  38.058  -8.509  1.00  0.00    -0.028 A 
HETATM   13  C20 UNL     1      19.040  40.458  -7.327  1.00  0.00     0.050 C 
HETATM   14  C23 UNL     1      16.854  37.096  -9.218  1.00  0.00     0.020 A 
HETATM   15  C28 UNL     1      17.814  37.541  -7.098  1.00  0.00     0.070 C 
HETATM   16  C25 UNL     1      16.393  35.878  -8.473  1.00  0.00     0.318 C 
HETATM   17  N7  UNL     1      15.779  36.191  -7.225  1.00  0.00     0.089 N 
HETATM   18  C26 UNL     1      15.790  35.087  -6.290  1.00  0.00     0.310 C 
HETATM   19  C27 UNL     1      16.397  37.317  -6.550  1.00  0.00     0.277 C 
BRANCH   6  20
HETATM   20  N2  UNL     1      18.825  42.223 -11.830  1.00  0.00    -0.384 N 
ATOM     21  H22 UNL     1      18.838  43.231 -11.671  1.00  0.00     0.157 HD
ATOM     22  H21 UNL     1      19.045  41.938 -12.785  1.00  0.00     0.157 HD
ENDBRANCH   6  20
BRANCH   7  23
HETATM   23  C2  UNL     1      17.408  40.098 -12.744  1.00  0.00     0.127 C 
HETATM   24  C1  UNL     1      18.302  39.211 -13.581  1.00  0.00     0.027 C 
ENDBRANCH   7  23
ENDBRANCH   1   5
BRANCH   3  25
HETATM   25  C6  UNL     1      21.568  43.849  -8.560  1.00  0.00     0.123 C 
BRANCH  25  26
HETATM   26  C7  UNL     1      22.383  44.583  -9.559  1.00  0.00     0.020 C 
BRANCH  26  27
HETATM   27  C8  UNL     1      21.464  45.595 -10.253  1.00  0.00     0.002 C 
BRANCH  27  28
HETATM   28  C9  UNL     1      22.228  46.517 -11.128  1.00  0.00     0.009 C 
BRANCH  28  29
HETATM   29  C10 UNL     1      23.340  47.284 -10.529  1.00  0.00     0.103 C 
BRANCH  29  30
HETATM   30  C11 UNL     1      23.011  48.044  -9.314  1.00  0.00     0.221 C 
HETATM   31  O2  UNL     1      22.450  49.154  -9.271  1.00  0.00    -0.273 OA
HETATM   32  N4  UNL     1      23.357  47.459  -8.042  1.00  0.00    -0.336 N 
ATOM     33  H4  UNL     1      23.809  46.545  -8.035  1.00  0.00     0.168 HD
BRANCH  32  34
HETATM   34  C12 UNL     1      23.099  48.091  -6.810  1.00  0.00     0.102 C 
BRANCH  34  35
HETATM   35  C13 UNL     1      21.818  47.768  -6.127  1.00  0.00     0.081 C 
BRANCH  35  36
HETATM   36  N5  UNL     1      21.832  46.536  -5.452  1.00  0.00    -0.267 NA
HETATM   37  C14 UNL     1      20.666  46.427  -4.530  1.00  0.00     0.115 C 
HETATM   38  C15 UNL     1      20.341  44.950  -4.542  1.00  0.00     0.109 C 
HETATM   39  N6  UNL     1      21.448  44.116  -4.227  1.00  0.00    -0.295 NA
HETATM   40  C16 UNL     1      21.250  42.871  -4.992  1.00  0.00     0.116 C 
HETATM   41  C17 UNL     1      22.748  44.568  -4.515  1.00  0.00     0.071 C 
HETATM   42  C18 UNL     1      22.919  46.075  -4.700  1.00  0.00     0.076 C 
ENDBRANCH  35  36
ENDBRANCH  34  35
ENDBRANCH  32  34
ENDBRANCH  29  30
ENDBRANCH  28  29
ENDBRANCH  27  28
ENDBRANCH  26  27
ENDBRANCH  25  26
ENDBRANCH   3  25
TORSDOF 12
ENDMDL
MODEL 4
REMARK VINA RESULT: -8.855835568      2.908      9.966
REMARK  12 active torsions:
REMARK  status: ('A' for Active; 'I' for Inactive)
REMARK    1  A    between atoms: C2_2  and  N1_3 
REMARK    2  A    between atoms: C3_4  and  N2_5 
REMARK    3  A    between atoms: C4_8  and  C5_9 
REMARK       I    between atoms: C5_9  and  N3_11 
REMARK    4  A    between atoms: N3_11  and  C6_13 
REMARK    5  A    between atoms: C6_13  and  C7_14 
REMARK    6  A    between atoms: C7_14  and  C8_15 
REMARK    7  A    between atoms: C8_15  and  C9_16 
REMARK    8  A    between atoms: C9_16  and  C10_17 
REMARK    9  A    between atoms: C10_17  and  C11_18 
REMARK       I    between atoms: C11_18  and  N4_20 
REMARK   10  A    between atoms: N4_20  and  C12_22 
REMARK   11  A    between atoms: C12_22  and  C13_23 
REMARK   12  A    between atoms: C13_23  and  N5_24 
ROOT
HETATM    1  C5  UNL     1      20.578  41.350  -8.948  1.00  0.00     0.255 C 
HETATM    2  O1  UNL     1      21.720  40.855  -8.729  1.00  0.00    -0.268 OA
HETATM    3  N3  UNL     1      20.351  42.752  -8.890  1.00  0.00    -0.357 N 
ATOM      4  H3  UNL     1      19.437  43.174  -9.048  1.00  0.00     0.162 HD
ENDROOT
BRANCH   1   5
HETATM    5  C4  UNL     1      19.531  40.392  -9.254  1.00  0.00     0.082 A 
HETATM    6  C3  UNL     1      18.882  39.866  -8.151  1.00  0.00     0.118 A 
HETATM    7  N1  UNL     1      17.952  38.941  -8.434  1.00  0.00    -0.327 N 
HETATM    8  C24 UNL     1      17.665  38.548  -9.712  1.00  0.00     0.089 A 
HETATM    9  C21 UNL     1      18.285  39.046 -10.830  1.00  0.00     0.012 A 
HETATM   10  S1  UNL     1      16.557  37.413 -10.343  1.00  0.00    -0.073 SA
HETATM   11  C19 UNL     1      19.277  40.023 -10.554  1.00  0.00    -0.029 A 
HETATM   12  C22 UNL     1      17.892  38.561 -12.025  1.00  0.00    -0.028 A 
HETATM   13  C20 UNL     1      20.146  40.573 -11.636  1.00  0.00     0.050 C 
HETATM   14  C23 UNL     1      16.889  37.586 -11.986  1.00  0.00     0.020 A 
HETATM   15  C28 UNL     1      18.222  38.851 -13.481  1.00  0.00     0.070 C 
HETATM   16  C25 UNL     1      16.439  36.991 -13.288  1.00  0.00     0.318 C 
HETATM   17  N7  UNL     1      17.526  36.596 -14.121  1.00  0.00     0.089 N 
HETATM   18  C26 UNL     1      17.170  36.506 -15.521  1.00  0.00     0.310 C 
HETATM   19  C27 UNL     1      18.666  37.490 -14.037  1.00  0.00     0.277 C 
BRANCH   6  20
HETATM   20  N2  UNL     1      19.068  40.177  -6.933  1.00  0.00    -0.384 N 
ATOM     21  H22 UNL     1      18.543  40.860  -6.386  1.00  0.00     0.157 HD
ATOM     22  H21 UNL     1      19.810  39.698  -6.421  1.00  0.00     0.157 HD
ENDBRANCH   6  20
BRANCH   7  23
HETATM   23  C2  UNL     1      17.175  38.287  -7.384  1.00  0.00     0.127 C 
HETATM   24  C1  UNL     1      17.684  36.899  -7.069  1.00  0.00     0.027 C 
ENDBRANCH   7  23
ENDBRANCH   1   5
BRANCH   3  25
HETATM   25  C6  UNL     1      21.556  43.537  -8.583  1.00  0.00     0.123 C 
BRANCH  25  26
HETATM   26  C7  UNL     1      22.148  44.201  -9.770  1.00  0.00     0.020 C 
BRANCH  26  27
HETATM   27  C8  UNL     1      21.168  45.286 -10.231  1.00  0.00     0.002 C 
BRANCH  27  28
HETATM   28  C9  UNL     1      21.841  46.315 -11.059  1.00  0.00     0.009 C 
BRANCH  28  29
HETATM   29  C10 UNL     1      23.056  46.958 -10.518  1.00  0.00     0.103 C 
BRANCH  29  30
HETATM   30  C11 UNL     1      22.852  47.831  -9.352  1.00  0.00     0.221 C 
HETATM   31  O2  UNL     1      22.432  49.003  -9.376  1.00  0.00    -0.273 OA
HETATM   32  N4  UNL     1      23.155  47.293  -8.049  1.00  0.00    -0.336 N 
ATOM     33  H4  UNL     1      23.493  46.333  -7.987  1.00  0.00     0.168 HD
BRANCH  32  34
HETATM   34  C12 UNL     1      23.007  48.032  -6.859  1.00  0.00     0.102 C 
BRANCH  34  35
HETATM   35  C13 UNL     1      21.800  47.767  -6.033  1.00  0.00     0.081 C 
BRANCH  35  36
HETATM   36  N5  UNL     1      21.807  46.510  -5.407  1.00  0.00    -0.267 NA
HETATM   37  C14 UNL     1      20.618  46.354  -4.522  1.00  0.00     0.115 C 
HETATM   38  C15 UNL     1      20.307  44.876  -4.602  1.00  0.00     0.109 C 
HETATM   39  N6  UNL     1      21.413  44.039  -4.291  1.00  0.00    -0.295 NA
HETATM   40  C16 UNL     1      21.247  42.825  -5.110  1.00  0.00     0.116 C 
HETATM   41  C17 UNL     1      22.716  44.512  -4.526  1.00  0.00     0.071 C 
HETATM   42  C18 UNL     1      22.878  46.027  -4.646  1.00  0.00     0.076 C 
ENDBRANCH  35  36
ENDBRANCH  34  35
ENDBRANCH  32  34
ENDBRANCH  29  30
ENDBRANCH  28  29
ENDBRANCH  27  28
ENDBRANCH  26  27
ENDBRANCH  25  26
ENDBRANCH   3  25
TORSDOF 12
ENDMDL
MODEL 5
REMARK VINA RESULT: -8.816782521      1.929      3.840
REMARK  12 active torsions:
REMARK  status: ('A' for Active; 'I' for Inactive)
REMARK    1  A    between atoms: C2_2  and  N1_3 
REMARK    2  A    between atoms: C3_4  and  N2_5 
REMARK    3  A    between atoms: C4_8  and  C5_9 
REMARK       I    between atoms: C5_9  and  N3_11 
REMARK    4  A    between atoms: N3_11  and  C6_13 
REMARK    5  A    between atoms: C6_13  and  C7_14 
REMARK    6  A    between atoms: C7_14  and  C8_15 
REMARK    7  A    between atoms: C8_15  and  C9_16 
REMARK    8  A    between atoms: C9_16  and  C10_17 
REMARK    9  A    between atoms: C10_17  and  C11_18 
REMARK       I    between atoms: C11_18  and  N4_20 
REMARK   10  A    between atoms: N4_20  and  C12_22 
REMARK   11  A    between atoms: C12_22  and  C13_23 
REMARK   12  A    between atoms: C13_23  and  N5_24 
ROOT
HETATM    1  C5  UNL     1      20.683  41.219  -8.196  1.00  0.00     0.255 C 
HETATM    2  O1  UNL     1      21.671  40.559  -8.626  1.00  0.00    -0.268 OA
HETATM    3  N3  UNL     1      19.440  40.593  -7.903  1.00  0.00    -0.357 N 
ATOM      4  H3  UNL     1      18.624  41.106  -7.571  1.00  0.00     0.162 HD
ENDROOT
BRANCH   1   5
HETATM    5  C4  UNL     1      20.908  42.644  -8.033  1.00  0.00     0.082 A 
HETATM    6  C3  UNL     1      20.967  43.364  -9.214  1.00  0.00     0.118 A 
HETATM    7  N1  UNL     1      21.228  44.671  -9.063  1.00  0.00    -0.327 N 
HETATM    8  C24 UNL     1      21.421  45.250  -7.839  1.00  0.00     0.089 A 
HETATM    9  C21 UNL     1      21.370  44.571  -6.648  1.00  0.00     0.012 A 
HETATM   10  S1  UNL     1      21.766  46.854  -7.368  1.00  0.00    -0.073 SA
HETATM   11  C19 UNL     1      21.099  43.184  -6.783  1.00  0.00    -0.029 A 
HETATM   12  C22 UNL     1      21.579  45.280  -5.519  1.00  0.00    -0.028 A 
HETATM   13  C20 UNL     1      21.142  42.267  -5.607  1.00  0.00     0.050 C 
HETATM   14  C23 UNL     1      21.837  46.644  -5.698  1.00  0.00     0.020 A 
HETATM   15  C28 UNL     1      21.548  44.989  -4.028  1.00  0.00     0.070 C 
HETATM   16  C25 UNL     1      22.108  47.471  -4.476  1.00  0.00     0.318 C 
HETATM   17  N7  UNL     1      23.054  46.866  -3.597  1.00  0.00     0.089 N 
HETATM   18  C26 UNL     1      22.958  47.349  -2.235  1.00  0.00     0.310 C 
HETATM   19  C27 UNL     1      22.937  45.421  -3.537  1.00  0.00     0.277 C 
BRANCH   6  20
HETATM   20  N2  UNL     1      20.788  42.919 -10.391  1.00  0.00    -0.384 N 
ATOM     21  H22 UNL     1      19.920  42.552 -10.783  1.00  0.00     0.157 HD
ATOM     22  H21 UNL     1      21.578  42.930 -11.036  1.00  0.00     0.157 HD
ENDBRANCH   6  20
BRANCH   7  23
HETATM   23  C2  UNL     1      21.324  45.572 -10.208  1.00  0.00     0.127 C 
HETATM   24  C1  UNL     1      22.755  45.928 -10.544  1.00  0.00     0.027 C 
ENDBRANCH   7  23
ENDBRANCH   1   5
BRANCH   3  25
HETATM   25  C6  UNL     1      19.440  39.140  -8.122  1.00  0.00     0.123 C 
BRANCH  25  26
HETATM   26  C7  UNL     1      18.174  38.629  -8.703  1.00  0.00     0.020 C 
BRANCH  26  27
HETATM   27  C8  UNL     1      17.265  38.216  -7.540  1.00  0.00     0.002 C 
BRANCH  27  28
HETATM   28  C9  UNL     1      17.713  36.948  -6.917  1.00  0.00     0.009 C 
BRANCH  28  29
HETATM   29  C10 UNL     1      16.713  35.878  -6.718  1.00  0.00     0.103 C 
BRANCH  29  30
HETATM   30  C11 UNL     1      15.895  35.541  -7.893  1.00  0.00     0.221 C 
HETATM   31  O2  UNL     1      14.671  35.733  -8.015  1.00  0.00    -0.273 OA
HETATM   32  N4  UNL     1      16.558  34.937  -9.021  1.00  0.00    -0.336 N 
ATOM     33  H4  UNL     1      17.563  34.772  -8.964  1.00  0.00     0.168 HD
BRANCH  32  34
HETATM   34  C12 UNL     1      15.883  34.564 -10.201  1.00  0.00     0.102 C 
BRANCH  34  35
HETATM   35  C13 UNL     1      16.598  34.755 -11.490  1.00  0.00     0.081 C 
BRANCH  35  36
HETATM   36  N5  UNL     1      16.150  35.864 -12.227  1.00  0.00    -0.267 NA
HETATM   37  C14 UNL     1      17.304  36.653 -12.744  1.00  0.00     0.115 C 
HETATM   38  C15 UNL     1      16.795  37.205 -14.058  1.00  0.00     0.109 C 
HETATM   39  N6  UNL     1      15.570  37.916 -13.946  1.00  0.00    -0.295 NA
HETATM   40  C16 UNL     1      14.855  37.699 -15.216  1.00  0.00     0.116 C 
HETATM   41  C17 UNL     1      14.676  37.580 -12.914  1.00  0.00     0.071 C 
HETATM   42  C18 UNL     1      15.265  36.824 -11.723  1.00  0.00     0.076 C 
ENDBRANCH  35  36
ENDBRANCH  34  35
ENDBRANCH  32  34
ENDBRANCH  29  30
ENDBRANCH  28  29
ENDBRANCH  27  28
ENDBRANCH  26  27
ENDBRANCH  25  26
ENDBRANCH   3  25
TORSDOF 12
ENDMDL
