MODEL 1
REMARK VINA RESULT: -8.200425708      0.000      0.000
REMARK  14 active torsions:
REMARK  status: ('A' for Active; 'I' for Inactive)
REMARK    1  A    between atoms: C2_2  and  C3_4 
REMARK    2  A    between atoms: C4_8  and  C5_9 
REMARK    3  A    between atoms: C5_9  and  N2_10 
REMARK       I    between atoms: N2_10  and  C6_12 
REMARK    4  A    between atoms: C6_12  and  O3_14 
REMARK    5  A    between atoms: O3_14  and  C7_15 
REMARK    6  A    between atoms: C14_22  and  N3_23 
REMARK       I    between atoms: N3_23  and  C16_25 
REMARK    7  A    between atoms: C16_25  and  C17_27 
REMARK    8  A    between atoms: C17_27  and  C18_28 
REMARK    9  A    between atoms: C18_28  and  C19_29 
REMARK   10  A    between atoms: C19_29  and  C20_30 
REMARK   11  A    between atoms: C20_30  and  C21_31 
REMARK   12  A    between atoms: C21_31  and  O5_32 
REMARK   13  A    between atoms: O5_32  and  C22_33 
REMARK       I    between atoms: C22_33  and  N4_35 
REMARK   14  A    between atoms: C25_38  and  C26_39 
ROOT
HETATM    1  C3  UNL     1      19.025  43.107  -6.002  1.00  0.00     0.270 C 
HETATM    2  N1  UNL     1      18.967  43.284  -7.489  1.00  0.00    -0.044 N 
ATOM      3  H11 UNL     1      19.610  43.990  -7.846  1.00  0.00     0.280 HD
ATOM      4  H12 UNL     1      18.110  43.728  -7.818  1.00  0.00     0.280 HD
HETATM    5  C4  UNL     1      19.182  41.997  -8.022  1.00  0.00     0.201 C 
HETATM    6  C11 UNL     1      20.224  41.501  -7.068  1.00  0.00     0.050 C 
HETATM    7  C12 UNL     1      20.590  40.231  -7.675  1.00  0.00     0.014 C 
HETATM    8  C13 UNL     1      21.025  40.880  -9.037  1.00  0.00     0.056 C 
HETATM    9  C14 UNL     1      20.043  41.945  -9.311  1.00  0.00     0.033 C 
HETATM   10  C25 UNL     1      19.699  41.781  -5.774  1.00  0.00     0.132 C 
ENDROOT
BRANCH   9  11
HETATM   11  N3  UNL     1      20.319  43.130  -9.952  1.00  0.00    -0.327 N 
HETATM   12  C15 UNL     1      19.597  43.363 -11.248  1.00  0.00     0.159 C 
HETATM   13  C16 UNL     1      21.168  44.228  -9.649  1.00  0.00     0.223 C 
HETATM   14  O4  UNL     1      21.925  44.347  -8.667  1.00  0.00    -0.273 OA
BRANCH  13  15
HETATM   15  C17 UNL     1      21.230  45.418 -10.541  1.00  0.00     0.103 C 
BRANCH  15  16
HETATM   16  C18 UNL     1      22.537  46.101 -10.607  1.00  0.00     0.009 C 
BRANCH  16  17
HETATM   17  C19 UNL     1      22.550  47.549 -10.923  1.00  0.00     0.002 C 
BRANCH  17  18
HETATM   18  C20 UNL     1      23.416  48.387 -10.005  1.00  0.00     0.027 C 
BRANCH  18  19
HETATM   19  C21 UNL     1      23.813  47.546  -8.842  1.00  0.00     0.180 C 
BRANCH  19  20
HETATM   20  O5  UNL     1      23.683  48.155  -7.590  1.00  0.00    -0.304 OA
BRANCH  20  21
HETATM   21  C22 UNL     1      22.498  48.049  -6.882  1.00  0.00     0.362 C 
HETATM   22  O6  UNL     1      21.385  47.917  -7.454  1.00  0.00    -0.238 OA
HETATM   23  N4  UNL     1      22.512  48.089  -5.437  1.00  0.00    -0.337 N 
HETATM   24  C23 UNL     1      23.778  48.244  -4.726  1.00  0.00     0.154 C 
HETATM   25  C24 UNL     1      21.293  47.969  -4.704  1.00  0.00     0.154 C 
ENDBRANCH  20  21
ENDBRANCH  19  20
ENDBRANCH  18  19
ENDBRANCH  17  18
ENDBRANCH  16  17
ENDBRANCH  15  16
ENDBRANCH  13  15
ENDBRANCH   9  11
BRANCH   5  26
HETATM   26  C5  UNL     1      17.981  41.191  -8.292  1.00  0.00     0.111 C 
BRANCH  26  27
HETATM   27  N2  UNL     1      17.550  40.809  -9.551  1.00  0.00    -0.314 N 
HETATM   28  C6  UNL     1      17.644  39.408  -9.910  1.00  0.00     0.365 C 
HETATM   29  O2  UNL     1      18.110  38.623  -9.060  1.00  0.00    -0.238 OA
ATOM     30  H2  UNL     1      17.176  41.495 -10.207  1.00  0.00     0.170 HD
BRANCH  28  31
HETATM   31  O3  UNL     1      17.239  38.952 -11.142  1.00  0.00    -0.294 OA
BRANCH  31  32
HETATM   32  C7  UNL     1      17.950  39.213 -12.335  1.00  0.00     0.061 C 
HETATM   33  C8  UNL     1      19.444  39.280 -12.094  1.00  0.00     0.046 C 
HETATM   34  C9  UNL     1      17.597  38.128 -13.329  1.00  0.00     0.046 C 
HETATM   35  C10 UNL     1      17.541  40.536 -12.948  1.00  0.00     0.046 C 
ENDBRANCH  31  32
ENDBRANCH  28  31
ENDBRANCH  26  27
ENDBRANCH   5  26
BRANCH   1  36
HETATM   36  C2  UNL     1      19.606  44.295  -5.386  1.00  0.00     0.154 C 
HETATM   37  C1  UNL     1      19.392  44.914  -4.085  1.00  0.00     0.093 C 
HETATM   38  O1  UNL     1      20.440  44.908  -6.092  1.00  0.00    -0.296 OA
ENDBRANCH   1  36
BRANCH  10  39
HETATM   39  C26 UNL     1      20.645  41.733  -4.640  1.00  0.00     0.180 C 
HETATM   40  O7  UNL     1      21.861  41.904  -4.839  1.00  0.00    -0.648 OA
HETATM   41  O8  UNL     1      20.185  41.500  -3.368  1.00  0.00    -0.648 OA
ENDBRANCH  10  39
TORSDOF 14
ENDMDL
MODEL 2
REMARK VINA RESULT: -8.098634757      2.813      9.643
REMARK  14 active torsions:
REMARK  status: ('A' for Active; 'I' for Inactive)
REMARK    1  A    between atoms: C2_2  and  C3_4 
REMARK    2  A    between atoms: C4_8  and  C5_9 
REMARK    3  A    between atoms: C5_9  and  N2_10 
REMARK       I    between atoms: N2_10  and  C6_12 
REMARK    4  A    between atoms: C6_12  and  O3_14 
REMARK    5  A    between atoms: O3_14  and  C7_15 
REMARK    6  A    between atoms: C14_22  and  N3_23 
REMARK       I    between atoms: N3_23  and  C16_25 
REMARK    7  A    between atoms: C16_25  and  C17_27 
REMARK    8  A    between atoms: C17_27  and  C18_28 
REMARK    9  A    between atoms: C18_28  and  C19_29 
REMARK   10  A    between atoms: C19_29  and  C20_30 
REMARK   11  A    between atoms: C20_30  and  C21_31 
REMARK   12  A    between atoms: C21_31  and  O5_32 
REMARK   13  A    between atoms: O5_32  and  C22_33 
REMARK       I    between atoms: C22_33  and  N4_35 
REMARK   14  A    between atoms: C25_38  and  C26_39 
ROOT
HETATM    1  C3  UNL     1      18.300  41.784 -11.603  1.00  0.00     0.270 C 
HETATM    2  N1  UNL     1      18.120  41.747 -10.115  1.00  0.00    -0.044 N 
ATOM      3  H11 UNL     1      17.833  40.836  -9.758  1.00  0.00     0.280 HD
ATOM      4  H12 UNL     1      17.306  42.265  -9.786  1.00  0.00     0.280 HD
HETATM    5  C4  UNL     1      19.341  42.208  -9.585  1.00  0.00     0.201 C 
HETATM    6  C11 UNL     1      20.293  41.555 -10.539  1.00  0.00     0.050 C 
HETATM    7  C12 UNL     1      21.576  41.877  -9.935  1.00  0.00     0.014 C 
HETATM    8  C13 UNL     1      21.235  41.176  -8.571  1.00  0.00     0.056 C 
HETATM    9  C14 UNL     1      19.821  41.490  -8.296  1.00  0.00     0.033 C 
HETATM   10  C25 UNL     1      19.785  41.867 -11.833  1.00  0.00     0.132 C 
ENDROOT
BRANCH   9  11
HETATM   11  N3  UNL     1      18.935  40.657  -7.653  1.00  0.00    -0.327 N 
HETATM   12  C15 UNL     1      18.376  41.165  -6.355  1.00  0.00     0.159 C 
HETATM   13  C16 UNL     1      18.410  39.373  -7.955  1.00  0.00     0.223 C 
HETATM   14  O4  UNL     1      18.684  38.659  -8.938  1.00  0.00    -0.273 OA
BRANCH  13  15
HETATM   15  C17 UNL     1      17.414  38.722  -7.061  1.00  0.00     0.103 C 
BRANCH  15  16
HETATM   16  C18 UNL     1      17.388  37.246  -7.099  1.00  0.00     0.009 C 
BRANCH  16  17
HETATM   17  C19 UNL     1      16.161  36.561  -6.629  1.00  0.00     0.002 C 
BRANCH  17  18
HETATM   18  C20 UNL     1      15.878  35.237  -7.310  1.00  0.00     0.027 C 
BRANCH  18  19
HETATM   19  C21 UNL     1      16.684  35.175  -8.561  1.00  0.00     0.180 C 
BRANCH  19  20
HETATM   20  O5  UNL     1      15.966  34.868  -9.722  1.00  0.00    -0.304 OA
BRANCH  20  21
HETATM   21  C22 UNL     1      15.563  35.876 -10.579  1.00  0.00     0.362 C 
HETATM   22  O6  UNL     1      15.138  36.984 -10.160  1.00  0.00    -0.238 OA
HETATM   23  N4  UNL     1      15.621  35.676 -12.010  1.00  0.00    -0.337 N 
HETATM   24  C23 UNL     1      16.102  34.407 -12.548  1.00  0.00     0.154 C 
HETATM   25  C24 UNL     1      15.215  36.718 -12.898  1.00  0.00     0.154 C 
ENDBRANCH  20  21
ENDBRANCH  19  20
ENDBRANCH  18  19
ENDBRANCH  17  18
ENDBRANCH  16  17
ENDBRANCH  15  16
ENDBRANCH  13  15
ENDBRANCH   9  11
BRANCH   5  26
HETATM   26  C5  UNL     1      19.435  43.652  -9.317  1.00  0.00     0.111 C 
BRANCH  26  27
HETATM   27  N2  UNL     1      19.509  44.220  -8.057  1.00  0.00    -0.314 N 
HETATM   28  C6  UNL     1      20.761  44.830  -7.654  1.00  0.00     0.365 C 
HETATM   29  O2  UNL     1      21.703  44.809  -8.471  1.00  0.00    -0.238 OA
ATOM     30  H2  UNL     1      18.706  44.209  -7.429  1.00  0.00     0.170 HD
BRANCH  28  31
HETATM   31  O3  UNL     1      20.914  45.413  -6.418  1.00  0.00    -0.294 OA
BRANCH  31  32
HETATM   32  C7  UNL     1      21.037  44.668  -5.223  1.00  0.00     0.061 C 
HETATM   33  C8  UNL     1      21.621  43.294  -5.477  1.00  0.00     0.046 C 
HETATM   34  C9  UNL     1      21.898  45.467  -4.269  1.00  0.00     0.046 C 
HETATM   35  C10 UNL     1      19.695  44.462  -4.555  1.00  0.00     0.046 C 
ENDBRANCH  31  32
ENDBRANCH  28  31
ENDBRANCH  26  27
ENDBRANCH   5  26
BRANCH   1  36
HETATM   36  C2  UNL     1      17.564  40.684 -12.217  1.00  0.00     0.154 C 
HETATM   37  C1  UNL     1      17.445  39.277 -11.857  1.00  0.00     0.093 C 
HETATM   38  O1  UNL     1      16.910  40.987 -13.242  1.00  0.00    -0.296 OA
ENDBRANCH   1  36
BRANCH  10  39
HETATM   39  C26 UNL     1      20.301  41.072 -12.967  1.00  0.00     0.180 C 
HETATM   40  O7  UNL     1      20.777  39.941 -12.766  1.00  0.00    -0.648 OA
HETATM   41  O8  UNL     1      20.254  41.578 -14.242  1.00  0.00    -0.648 OA
ENDBRANCH  10  39
TORSDOF 14
ENDMDL
MODEL 3
REMARK VINA RESULT: -8.051750976      3.218      9.755
REMARK  14 active torsions:
REMARK  status: ('A' for Active; 'I' for Inactive)
REMARK    1  A    between atoms: C2_2  and  C3_4 
REMARK    2  A    between atoms: C4_8  and  C5_9 
REMARK    3  A    between atoms: C5_9  and  N2_10 
REMARK       I    between atoms: N2_10  and  C6_12 
REMARK    4  A    between atoms: C6_12  and  O3_14 
REMARK    5  A    between atoms: O3_14  and  C7_15 
REMARK    6  A    between atoms: C14_22  and  N3_23 
REMARK       I    between atoms: N3_23  and  C16_25 
REMARK    7  A    between atoms: C16_25  and  C17_27 
REMARK    8  A    between atoms: C17_27  and  C18_28 
REMARK    9  A    between atoms: C18_28  and  C19_29 
REMARK   10  A    between atoms: C19_29  and  C20_30 
REMARK   11  A    between atoms: C20_30  and  C21_31 
REMARK   12  A    between atoms: C21_31  and  O5_32 
REMARK   13  A    between atoms: O5_32  and  C22_33 
REMARK       I    between atoms: C22_33  and  N4_35 
REMARK   14  A    between atoms: C25_38  and  C26_39 
ROOT
HETATM    1  C3  UNL     1      17.970  40.578 -11.779  1.00  0.00     0.270 C 
HETATM    2  N1  UNL     1      17.788  40.199 -10.341  1.00  0.00    -0.044 N 
ATOM      3  H11 UNL     1      17.868  39.197 -10.166  1.00  0.00     0.280 HD
ATOM      4  H12 UNL     1      16.831  40.301 -10.005  1.00  0.00     0.280 HD
HETATM    5  C4  UNL     1      18.726  40.976  -9.634  1.00  0.00     0.201 C 
HETATM    6  C11 UNL     1      19.874  40.920 -10.593  1.00  0.00     0.050 C 
HETATM    7  C12 UNL     1      20.922  41.582  -9.831  1.00  0.00     0.014 C 
HETATM    8  C13 UNL     1      20.851  40.563  -8.638  1.00  0.00     0.056 C 
HETATM    9  C14 UNL     1      19.420  40.265  -8.443  1.00  0.00     0.033 C 
HETATM   10  C25 UNL     1      19.311  41.254 -11.858  1.00  0.00     0.132 C 
ENDROOT
BRANCH   9  11
HETATM   11  N3  UNL     1      18.912  39.056  -8.029  1.00  0.00    -0.327 N 
HETATM   12  C15 UNL     1      19.854  37.888  -8.094  1.00  0.00     0.159 C 
HETATM   13  C16 UNL     1      17.645  38.649  -7.532  1.00  0.00     0.223 C 
HETATM   14  O4  UNL     1      16.633  39.359  -7.378  1.00  0.00    -0.273 OA
BRANCH  13  15
HETATM   15  C17 UNL     1      17.399  37.240  -7.121  1.00  0.00     0.103 C 
BRANCH  15  16
HETATM   16  C18 UNL     1      16.000  36.906  -6.787  1.00  0.00     0.009 C 
BRANCH  16  17
HETATM   17  C19 UNL     1      15.476  35.591  -7.226  1.00  0.00     0.002 C 
BRANCH  17  18
HETATM   18  C20 UNL     1      16.377  34.841  -8.185  1.00  0.00     0.027 C 
BRANCH  18  19
HETATM   19  C21 UNL     1      15.675  34.729  -9.493  1.00  0.00     0.180 C 
BRANCH  19  20
HETATM   20  O5  UNL     1      16.206  35.507 -10.527  1.00  0.00    -0.304 OA
BRANCH  20  21
HETATM   21  C22 UNL     1      15.422  36.455 -11.160  1.00  0.00     0.362 C 
HETATM   22  O6  UNL     1      14.876  37.401 -10.534  1.00  0.00    -0.238 OA
HETATM   23  N4  UNL     1      15.206  36.381 -12.588  1.00  0.00    -0.337 N 
HETATM   24  C23 UNL     1      15.814  35.301 -13.360  1.00  0.00     0.154 C 
HETATM   25  C24 UNL     1      14.406  37.365 -13.245  1.00  0.00     0.154 C 
ENDBRANCH  20  21
ENDBRANCH  19  20
ENDBRANCH  18  19
ENDBRANCH  17  18
ENDBRANCH  16  17
ENDBRANCH  15  16
ENDBRANCH  13  15
ENDBRANCH   9  11
BRANCH   5  26
HETATM   26  C5  UNL     1      18.250  42.272  -9.124  1.00  0.00     0.111 C 
BRANCH  26  27
HETATM   27  N2  UNL     1      18.276  42.658  -7.795  1.00  0.00    -0.314 N 
HETATM   28  C6  UNL     1      19.078  43.809  -7.432  1.00  0.00     0.365 C 
HETATM   29  O2  UNL     1      19.702  44.390  -8.343  1.00  0.00    -0.238 OA
ATOM     30  H2  UNL     1      17.745  42.146  -7.090  1.00  0.00     0.170 HD
BRANCH  28  31
HETATM   31  O3  UNL     1      19.157  44.252  -6.133  1.00  0.00    -0.294 OA
BRANCH  31  32
HETATM   32  C7  UNL     1      20.270  44.004  -5.298  1.00  0.00     0.061 C 
HETATM   33  C8  UNL     1      21.542  43.821  -6.100  1.00  0.00     0.046 C 
HETATM   34  C9  UNL     1      20.388  45.162  -4.330  1.00  0.00     0.046 C 
HETATM   35  C10 UNL     1      20.081  42.747  -4.475  1.00  0.00     0.046 C 
ENDBRANCH  31  32
ENDBRANCH  28  31
ENDBRANCH  26  27
ENDBRANCH   5  26
BRANCH   1  36
HETATM   36  C2  UNL     1      17.727  39.417 -12.630  1.00  0.00     0.154 C 
HETATM   37  C1  UNL     1      18.238  38.054 -12.578  1.00  0.00     0.093 C 
HETATM   38  O1  UNL     1      16.939  39.612 -13.585  1.00  0.00    -0.296 OA
ENDBRANCH   1  36
BRANCH  10  39
HETATM   39  C26 UNL     1      20.116  40.939 -13.057  1.00  0.00     0.180 C 
HETATM   40  O7  UNL     1      20.977  40.042 -13.007  1.00  0.00    -0.648 OA
HETATM   41  O8  UNL     1      19.916  41.632 -14.224  1.00  0.00    -0.648 OA
ENDBRANCH  10  39
TORSDOF 14
ENDMDL
MODEL 4
REMARK VINA RESULT: -7.971444486      0.622      1.249
REMARK  14 active torsions:
REMARK  status: ('A' for Active; 'I' for Inactive)
REMARK    1  A    between atoms: C2_2  and  C3_4 
REMARK    2  A    between atoms: C4_8  and  C5_9 
REMARK    3  A    between atoms: C5_9  and  N2_10 
REMARK       I    between atoms: N2_10  and  C6_12 
REMARK    4  A    between atoms: C6_12  and  O3_14 
REMARK    5  A    between atoms: O3_14  and  C7_15 
REMARK    6  A    between atoms: C14_22  and  N3_23 
REMARK       I    between atoms: N3_23  and  C16_25 
REMARK    7  A    between atoms: C16_25  and  C17_27 
REMARK    8  A    between atoms: C17_27  and  C18_28 
REMARK    9  A    between atoms: C18_28  and  C19_29 
REMARK   10  A    between atoms: C19_29  and  C20_30 
REMARK   11  A    between atoms: C20_30  and  C21_31 
REMARK   12  A    between atoms: C21_31  and  O5_32 
REMARK   13  A    between atoms: O5_32  and  C22_33 
REMARK       I    between atoms: C22_33  and  N4_35 
REMARK   14  A    between atoms: C25_38  and  C26_39 
ROOT
HETATM    1  C3  UNL     1      19.083  43.211  -6.026  1.00  0.00     0.270 C 
HETATM    2  N1  UNL     1      19.056  43.387  -7.515  1.00  0.00    -0.044 N 
ATOM      3  H11 UNL     1      19.728  44.071  -7.861  1.00  0.00     0.280 HD
ATOM      4  H12 UNL     1      18.220  43.857  -7.859  1.00  0.00     0.280 HD
HETATM    5  C4  UNL     1      19.240  42.093  -8.041  1.00  0.00     0.201 C 
HETATM    6  C11 UNL     1      20.248  41.565  -7.068  1.00  0.00     0.050 C 
HETATM    7  C12 UNL     1      20.585  40.283  -7.666  1.00  0.00     0.014 C 
HETATM    8  C13 UNL     1      21.064  40.914  -9.021  1.00  0.00     0.056 C 
HETATM    9  C14 UNL     1      20.122  42.010  -9.314  1.00  0.00     0.033 C 
HETATM   10  C25 UNL     1      19.710  41.865  -5.784  1.00  0.00     0.132 C 
ENDROOT
BRANCH   9  11
HETATM   11  N3  UNL     1      20.446  43.184  -9.952  1.00  0.00    -0.327 N 
HETATM   12  C15 UNL     1      19.755  43.437 -11.261  1.00  0.00     0.159 C 
HETATM   13  C16 UNL     1      21.325  44.255  -9.637  1.00  0.00     0.223 C 
HETATM   14  O4  UNL     1      22.069  44.351  -8.642  1.00  0.00    -0.273 OA
BRANCH  13  15
HETATM   15  C17 UNL     1      21.441  45.440 -10.529  1.00  0.00     0.103 C 
BRANCH  15  16
HETATM   16  C18 UNL     1      22.615  46.305 -10.296  1.00  0.00     0.009 C 
BRANCH  16  17
HETATM   17  C19 UNL     1      22.465  47.759 -10.536  1.00  0.00     0.002 C 
BRANCH  17  18
HETATM   18  C20 UNL     1      22.800  48.632  -9.344  1.00  0.00     0.027 C 
BRANCH  18  19
HETATM   19  C21 UNL     1      23.065  47.746  -8.177  1.00  0.00     0.180 C 
BRANCH  19  20
HETATM   20  O5  UNL     1      22.262  47.975  -7.055  1.00  0.00    -0.304 OA
BRANCH  20  21
HETATM   21  C22 UNL     1      22.790  47.853  -5.782  1.00  0.00     0.362 C 
HETATM   22  O6  UNL     1      23.993  47.545  -5.581  1.00  0.00    -0.238 OA
HETATM   23  N4  UNL     1      21.952  48.082  -4.626  1.00  0.00    -0.337 N 
HETATM   24  C23 UNL     1      20.547  48.438  -4.804  1.00  0.00     0.154 C 
HETATM   25  C24 UNL     1      22.497  47.967  -3.311  1.00  0.00     0.154 C 
ENDBRANCH  20  21
ENDBRANCH  19  20
ENDBRANCH  18  19
ENDBRANCH  17  18
ENDBRANCH  16  17
ENDBRANCH  15  16
ENDBRANCH  13  15
ENDBRANCH   9  11
BRANCH   5  26
HETATM   26  C5  UNL     1      18.018  41.325  -8.330  1.00  0.00     0.111 C 
BRANCH  26  27
HETATM   27  N2  UNL     1      17.604  40.943  -9.595  1.00  0.00    -0.314 N 
HETATM   28  C6  UNL     1      17.650  39.535  -9.934  1.00  0.00     0.365 C 
HETATM   29  O2  UNL     1      18.061  38.743  -9.062  1.00  0.00    -0.238 OA
ATOM     30  H2  UNL     1      17.276  41.634 -10.270  1.00  0.00     0.170 HD
BRANCH  28  31
HETATM   31  O3  UNL     1      17.258  39.078 -11.170  1.00  0.00    -0.294 OA
BRANCH  31  32
HETATM   32  C7  UNL     1      18.025  39.265 -12.342  1.00  0.00     0.061 C 
HETATM   33  C8  UNL     1      17.874  38.102 -13.302  1.00  0.00     0.046 C 
HETATM   34  C9  UNL     1      17.587  40.567 -12.977  1.00  0.00     0.046 C 
HETATM   35  C10 UNL     1      19.500  39.390 -12.028  1.00  0.00     0.046 C 
ENDBRANCH  31  32
ENDBRANCH  28  31
ENDBRANCH  26  27
ENDBRANCH   5  26
BRANCH   1  36
HETATM   36  C2  UNL     1      19.690  44.382  -5.402  1.00  0.00     0.154 C 
HETATM   37  C1  UNL     1      19.501  44.989  -4.091  1.00  0.00     0.093 C 
HETATM   38  O1  UNL     1      20.527  44.990  -6.110  1.00  0.00    -0.296 OA
ENDBRANCH   1  36
BRANCH  10  39
HETATM   39  C26 UNL     1      20.634  41.790  -4.633  1.00  0.00     0.180 C 
HETATM   40  O7  UNL     1      20.196  41.510  -3.503  1.00  0.00    -0.648 OA
HETATM   41  O8  UNL     1      21.974  42.027  -4.808  1.00  0.00    -0.648 OA
ENDBRANCH  10  39
TORSDOF 14
ENDMDL
MODEL 5
REMARK VINA RESULT: -7.896550597      1.627      2.122
REMARK  14 active torsions:
REMARK  status: ('A' for Active; 'I' for Inactive)
REMARK    1  A    between atoms: C2_2  and  C3_4 
REMARK    2  A    between atoms: C4_8  and  C5_9 
REMARK    3  A    between atoms: C5_9  and  N2_10 
REMARK       I    between atoms: N2_10  and  C6_12 
REMARK    4  A    between atoms: C6_12  and  O3_14 
REMARK    5  A    between atoms: O3_14  and  C7_15 
REMARK    6  A    between atoms: C14_22  and  N3_23 
REMARK       I    between atoms: N3_23  and  C16_25 
REMARK    7  A    between atoms: C16_25  and  C17_27 
REMARK    8  A    between atoms: C17_27  and  C18_28 
REMARK    9  A    between atoms: C18_28  and  C19_29 
REMARK   10  A    between atoms: C19_29  and  C20_30 
REMARK   11  A    between atoms: C20_30  and  C21_31 
REMARK   12  A    between atoms: C21_31  and  O5_32 
REMARK   13  A    between atoms: O5_32  and  C22_33 
REMARK       I    between atoms: C22_33  and  N4_35 
REMARK   14  A    between atoms: C25_38  and  C26_39 
ROOT
HETATM    1  C3  UNL     1      19.185  43.342  -5.902  1.00  0.00     0.270 C 
HETATM    2  N1  UNL     1      19.148  43.564  -7.383  1.00  0.00    -0.044 N 
ATOM      3  H11 UNL     1      19.819  44.258  -7.713  1.00  0.00     0.280 HD
ATOM      4  H12 UNL     1      18.310  44.048  -7.707  1.00  0.00     0.280 HD
HETATM    5  C4  UNL     1      19.323  42.287  -7.952  1.00  0.00     0.201 C 
HETATM    6  C11 UNL     1      20.338  41.727  -7.004  1.00  0.00     0.050 C 
HETATM    7  C12 UNL     1      20.666  40.463  -7.644  1.00  0.00     0.014 C 
HETATM    8  C13 UNL     1      21.137  41.135  -8.983  1.00  0.00     0.056 C 
HETATM    9  C14 UNL     1      20.196  42.242  -9.233  1.00  0.00     0.033 C 
HETATM   10  C25 UNL     1      19.810  41.987  -5.706  1.00  0.00     0.132 C 
ENDROOT
BRANCH   9  11
HETATM   11  N3  UNL     1      20.519  43.435  -9.837  1.00  0.00    -0.327 N 
HETATM   12  C15 UNL     1      19.685  43.821 -11.024  1.00  0.00     0.159 C 
HETATM   13  C16 UNL     1      21.505  44.424  -9.576  1.00  0.00     0.223 C 
HETATM   14  O4  UNL     1      22.375  44.404  -8.685  1.00  0.00    -0.273 OA
BRANCH  13  15
HETATM   15  C17 UNL     1      21.590  45.658 -10.402  1.00  0.00     0.103 C 
BRANCH  15  16
HETATM   16  C18 UNL     1      22.932  46.264 -10.513  1.00  0.00     0.009 C 
BRANCH  16  17
HETATM   17  C19 UNL     1      23.020  47.698 -10.877  1.00  0.00     0.002 C 
BRANCH  17  18
HETATM   18  C20 UNL     1      22.743  48.656  -9.736  1.00  0.00     0.027 C 
BRANCH  18  19
HETATM   19  C21 UNL     1      23.668  48.328  -8.616  1.00  0.00     0.180 C 
BRANCH  19  20
HETATM   20  O5  UNL     1      24.561  49.343  -8.260  1.00  0.00    -0.304 OA
BRANCH  20  21
HETATM   21  C22 UNL     1      25.700  49.047  -7.531  1.00  0.00     0.362 C 
HETATM   22  O6  UNL     1      25.839  47.958  -6.917  1.00  0.00    -0.238 OA
HETATM   23  N4  UNL     1      26.781  50.005  -7.456  1.00  0.00    -0.337 N 
HETATM   24  C23 UNL     1      26.668  51.285  -8.148  1.00  0.00     0.154 C 
HETATM   25  C24 UNL     1      27.961  49.698  -6.713  1.00  0.00     0.154 C 
ENDBRANCH  20  21
ENDBRANCH  19  20
ENDBRANCH  18  19
ENDBRANCH  17  18
ENDBRANCH  16  17
ENDBRANCH  15  16
ENDBRANCH  13  15
ENDBRANCH   9  11
BRANCH   5  26
HETATM   26  C5  UNL     1      18.097  41.532  -8.256  1.00  0.00     0.111 C 
BRANCH  26  27
HETATM   27  N2  UNL     1      17.679  41.181  -9.528  1.00  0.00    -0.314 N 
HETATM   28  C6  UNL     1      17.740  39.783  -9.906  1.00  0.00     0.365 C 
HETATM   29  O2  UNL     1      18.166  38.973  -9.060  1.00  0.00    -0.238 OA
ATOM     30  H2  UNL     1      17.338  41.887 -10.181  1.00  0.00     0.170 HD
BRANCH  28  31
HETATM   31  O3  UNL     1      17.344  39.356 -11.152  1.00  0.00    -0.294 OA
BRANCH  31  32
HETATM   32  C7  UNL     1      18.201  39.355 -12.276  1.00  0.00     0.061 C 
HETATM   33  C8  UNL     1      18.225  38.004 -12.961  1.00  0.00     0.046 C 
HETATM   34  C9  UNL     1      17.729  40.443 -13.216  1.00  0.00     0.046 C 
HETATM   35  C10 UNL     1      19.627  39.681 -11.890  1.00  0.00     0.046 C 
ENDBRANCH  31  32
ENDBRANCH  28  31
ENDBRANCH  26  27
ENDBRANCH   5  26
BRANCH   1  36
HETATM   36  C2  UNL     1      19.801  44.491  -5.245  1.00  0.00     0.154 C 
HETATM   37  C1  UNL     1      20.867  45.390  -5.666  1.00  0.00     0.093 C 
HETATM   38  O1  UNL     1      19.341  44.767  -4.113  1.00  0.00    -0.296 OA
ENDBRANCH   1  36
BRANCH  10  39
HETATM   39  C26 UNL     1      20.742  41.872  -4.565  1.00  0.00     0.180 C 
HETATM   40  O7  UNL     1      21.965  42.006  -4.748  1.00  0.00    -0.648 OA
HETATM   41  O8  UNL     1      20.262  41.620  -3.305  1.00  0.00    -0.648 OA
ENDBRANCH  10  39
TORSDOF 14
ENDMDL
