MODEL 1
REMARK VINA RESULT: -8.778378269      0.000      0.000
REMARK  13 active torsions:
REMARK  status: ('A' for Active; 'I' for Inactive)
REMARK    1  A    between atoms: C2_2  and  N1_3 
REMARK    2  A    between atoms: N1_3  and  C3_5 
REMARK    3  A    between atoms: C4_8  and  N3_9 
REMARK    4  A    between atoms: C7_14  and  N5_15 
REMARK    5  A    between atoms: N5_15  and  C8_17 
REMARK    6  A    between atoms: C13_22  and  O1_23 
REMARK    7  A    between atoms: O1_23  and  C14_24 
REMARK    8  A    between atoms: C14_24  and  C15_25 
REMARK    9  A    between atoms: C15_25  and  C16_26 
REMARK   10  A    between atoms: C16_26  and  C17_27 
REMARK   11  A    between atoms: C17_27  and  C18_28 
REMARK   12  A    between atoms: C18_28  and  N6_29 
REMARK   13  A    between atoms: N7_32  and  C21_33 
ROOT
HETATM    1  C8  UNL     1      18.859  30.347  14.960  1.00  0.00     0.083 A 
HETATM    2  C9  UNL     1      17.638  30.574  15.548  1.00  0.00     0.040 A 
HETATM    3  C10 UNL     1      17.072  31.807  15.495  1.00  0.00    -0.046 A 
HETATM    4  C11 UNL     1      17.731  32.825  14.848  1.00  0.00    -0.024 A 
HETATM    5  C12 UNL     1      18.976  32.577  14.253  1.00  0.00     0.048 A 
HETATM    6  C13 UNL     1      19.584  31.349  14.283  1.00  0.00     0.096 A 
HETATM    7  C25 UNL     1      17.194  34.210  14.739  1.00  0.00     0.271 C 
HETATM    8  N8  UNL     1      15.948  34.376  15.417  1.00  0.00    -0.071 N 
ATOM      9  H81 UNL     1      15.165  34.221  14.782  1.00  0.00     0.277 HD
ATOM     10  H82 UNL     1      15.786  35.358  15.645  1.00  0.00     0.277 HD
HETATM   11  C26 UNL     1      15.828  33.545  16.599  1.00  0.00     0.237 C 
HETATM   12  C27 UNL     1      15.738  32.112  16.113  1.00  0.00     0.066 C 
ENDROOT
BRANCH   1  13
HETATM   13  N5  UNL     1      19.482  29.061  15.009  1.00  0.00    -0.188 N 
ATOM     14  H5  UNL     1      19.696  28.615  15.900  1.00  0.00     0.184 HD
BRANCH  13  15
HETATM   15  C7  UNL     1      19.762  28.486  13.897  1.00  0.00     0.712 A 
HETATM   16  N4  UNL     1      18.822  28.394  12.948  1.00  0.00    -0.021 N 
HETATM   17  C4  UNL     1      19.035  27.809  11.772  1.00  0.00     0.708 A 
ATOM     18  H4  UNL     1      17.901  28.791  13.135  1.00  0.00     0.203 HD
HETATM   19  N2  UNL     1      20.243  27.293  11.537  1.00  0.00    -0.021 N 
HETATM   20  C3  UNL     1      21.227  27.355  12.451  1.00  0.00     0.707 A 
ATOM     21  H2  UNL     1      20.425  26.841  10.642  1.00  0.00     0.203 HD
HETATM   22  N9  UNL     1      20.972  27.959  13.635  1.00  0.00    -0.021 N 
ATOM     23  H9  UNL     1      21.707  28.016  14.340  1.00  0.00     0.203 HD
BRANCH  17  24
HETATM   24  N3  UNL     1      17.953  27.779  10.853  1.00  0.00    -0.225 N 
HETATM   25  C5  UNL     1      16.811  28.626  11.129  1.00  0.00     0.168 C 
HETATM   26  C6  UNL     1      18.038  26.919   9.703  1.00  0.00     0.168 C 
ENDBRANCH  17  24
BRANCH  20  27
HETATM   27  N1  UNL     1      22.371  26.834  12.155  1.00  0.00    -0.225 N 
ATOM     28  H1  UNL     1      22.431  25.848  11.902  1.00  0.00     0.177 HD
BRANCH  27  29
HETATM   29  C2  UNL     1      23.573  27.651  12.180  1.00  0.00     0.133 C 
HETATM   30  C1  UNL     1      24.771  26.745  12.066  1.00  0.00     0.027 C 
ENDBRANCH  27  29
ENDBRANCH  20  27
ENDBRANCH  13  15
ENDBRANCH   1  13
BRANCH   6  31
HETATM   31  O1  UNL     1      20.767  30.996  13.744  1.00  0.00    -0.349 OA
BRANCH  31  32
HETATM   32  C14 UNL     1      21.967  31.730  13.848  1.00  0.00     0.175 C 
BRANCH  32  33
HETATM   33  C15 UNL     1      22.541  31.572  15.203  1.00  0.00     0.027 C 
BRANCH  33  34
HETATM   34  C16 UNL     1      22.646  32.785  16.017  1.00  0.00     0.004 C 
BRANCH  34  35
HETATM   35  C17 UNL     1      22.094  32.945  17.357  1.00  0.00     0.030 C 
BRANCH  35  36
HETATM   36  C18 UNL     1      21.948  34.333  17.856  1.00  0.00     0.272 C 
BRANCH  36  37
HETATM   37  N6  UNL     1      20.870  35.074  17.244  1.00  0.00     0.091 N 
HETATM   38  C19 UNL     1      20.946  36.458  17.718  1.00  0.00     0.302 C 
HETATM   39  C20 UNL     1      19.557  37.079  17.738  1.00  0.00     0.302 C 
HETATM   40  N7  UNL     1      18.754  36.430  18.765  1.00  0.00     0.091 N 
HETATM   41  C23 UNL     1      19.091  35.025  18.849  1.00  0.00     0.302 C 
HETATM   42  C24 UNL     1      19.589  34.502  17.519  1.00  0.00     0.302 C 
BRANCH  40  43
HETATM   43  C21 UNL     1      17.348  36.668  18.614  1.00  0.00     0.268 C 
HETATM   44  C22 UNL     1      17.153  37.299  17.235  1.00  0.00     0.037 C 
ENDBRANCH  40  43
ENDBRANCH  36  37
ENDBRANCH  35  36
ENDBRANCH  34  35
ENDBRANCH  33  34
ENDBRANCH  32  33
ENDBRANCH  31  32
ENDBRANCH   6  31
TORSDOF 13
ENDMDL
MODEL 2
REMARK VINA RESULT: -8.625551732      0.642      2.655
REMARK  13 active torsions:
REMARK  status: ('A' for Active; 'I' for Inactive)
REMARK    1  A    between atoms: C2_2  and  N1_3 
REMARK    2  A    between atoms: N1_3  and  C3_5 
REMARK    3  A    between atoms: C4_8  and  N3_9 
REMARK    4  A    between atoms: C7_14  and  N5_15 
REMARK    5  A    between atoms: N5_15  and  C8_17 
REMARK    6  A    between atoms: C13_22  and  O1_23 
REMARK    7  A    between atoms: O1_23  and  C14_24 
REMARK    8  A    between atoms: C14_24  and  C15_25 
REMARK    9  A    between atoms: C15_25  and  C16_26 
REMARK   10  A    between atoms: C16_26  and  C17_27 
REMARK   11  A    between atoms: C17_27  and  C18_28 
REMARK   12  A    between atoms: C18_28  and  N6_29 
REMARK   13  A    between atoms: N7_32  and  C21_33 
ROOT
HETATM    1  C8  UNL     1      19.269  30.627  15.072  1.00  0.00     0.083 A 
HETATM    2  C9  UNL     1      18.013  30.684  15.625  1.00  0.00     0.040 A 
HETATM    3  C10 UNL     1      17.282  31.825  15.547  1.00  0.00    -0.046 A 
HETATM    4  C11 UNL     1      17.810  32.923  14.909  1.00  0.00    -0.024 A 
HETATM    5  C12 UNL     1      19.093  32.848  14.350  1.00  0.00     0.048 A 
HETATM    6  C13 UNL     1      19.865  31.717  14.407  1.00  0.00     0.096 A 
HETATM    7  C25 UNL     1      17.089  34.219  14.774  1.00  0.00     0.271 C 
HETATM    8  N8  UNL     1      15.813  34.213  15.417  1.00  0.00    -0.071 N 
ATOM      9  H81 UNL     1      15.077  33.947  14.763  1.00  0.00     0.277 HD
ATOM     10  H82 UNL     1      15.510  35.164  15.632  1.00  0.00     0.277 HD
HETATM   11  C26 UNL     1      15.778  33.379  16.602  1.00  0.00     0.237 C 
HETATM   12  C27 UNL     1      15.902  31.945  16.127  1.00  0.00     0.066 C 
ENDROOT
BRANCH   1  13
HETATM   13  N5  UNL     1      20.062  29.441  15.149  1.00  0.00    -0.188 N 
ATOM     14  H5  UNL     1      20.615  29.230  15.980  1.00  0.00     0.184 HD
BRANCH  13  15
HETATM   15  C7  UNL     1      20.059  28.648  14.140  1.00  0.00     0.712 A 
HETATM   16  N4  UNL     1      21.223  28.217  13.638  1.00  0.00    -0.021 N 
HETATM   17  C4  UNL     1      21.302  27.398  12.591  1.00  0.00     0.708 A 
ATOM     18  H4  UNL     1      22.089  28.529  14.078  1.00  0.00     0.203 HD
HETATM   19  N2  UNL     1      20.164  26.995  12.023  1.00  0.00    -0.021 N 
HETATM   20  C3  UNL     1      18.965  27.394  12.482  1.00  0.00     0.707 A 
ATOM     21  H2  UNL     1      20.205  26.368  11.220  1.00  0.00     0.203 HD
HETATM   22  N9  UNL     1      18.926  28.227  13.549  1.00  0.00    -0.021 N 
ATOM     23  H9  UNL     1      18.025  28.539  13.911  1.00  0.00     0.203 HD
BRANCH  17  24
HETATM   24  N3  UNL     1      22.599  27.016  12.160  1.00  0.00    -0.225 N 
HETATM   25  C5  UNL     1      23.704  27.891  12.489  1.00  0.00     0.168 C 
HETATM   26  C6  UNL     1      22.755  25.790  11.422  1.00  0.00     0.168 C 
ENDBRANCH  17  24
BRANCH  20  27
HETATM   27  N1  UNL     1      17.906  26.964  11.882  1.00  0.00    -0.225 N 
ATOM     28  H1  UNL     1      17.394  26.168  12.261  1.00  0.00     0.177 HD
BRANCH  27  29
HETATM   29  C2  UNL     1      17.441  27.614  10.667  1.00  0.00     0.133 C 
HETATM   30  C1  UNL     1      16.488  28.717  11.048  1.00  0.00     0.027 C 
ENDBRANCH  27  29
ENDBRANCH  20  27
ENDBRANCH  13  15
ENDBRANCH   1  13
BRANCH   6  31
HETATM   31  O1  UNL     1      21.100  31.529  13.902  1.00  0.00    -0.349 OA
BRANCH  31  32
HETATM   32  C14 UNL     1      22.237  32.307  14.206  1.00  0.00     0.175 C 
BRANCH  32  33
HETATM   33  C15 UNL     1      22.850  31.835  15.468  1.00  0.00     0.027 C 
BRANCH  33  34
HETATM   34  C16 UNL     1      22.375  32.460  16.704  1.00  0.00     0.004 C 
BRANCH  34  35
HETATM   35  C17 UNL     1      22.754  33.790  17.169  1.00  0.00     0.030 C 
BRANCH  35  36
HETATM   36  C18 UNL     1      21.803  34.475  18.076  1.00  0.00     0.272 C 
BRANCH  36  37
HETATM   37  N6  UNL     1      20.709  35.133  17.402  1.00  0.00     0.091 N 
HETATM   38  C19 UNL     1      20.721  36.545  17.793  1.00  0.00     0.302 C 
HETATM   39  C20 UNL     1      19.307  37.109  17.752  1.00  0.00     0.302 C 
HETATM   40  N7  UNL     1      18.511  36.490  18.802  1.00  0.00     0.091 N 
HETATM   41  C23 UNL     1      18.901  35.108  18.976  1.00  0.00     0.302 C 
HETATM   42  C24 UNL     1      19.446  34.528  17.689  1.00  0.00     0.302 C 
BRANCH  40  43
HETATM   43  C21 UNL     1      17.100  36.662  18.613  1.00  0.00     0.268 C 
HETATM   44  C22 UNL     1      16.908  37.208  17.198  1.00  0.00     0.037 C 
ENDBRANCH  40  43
ENDBRANCH  36  37
ENDBRANCH  35  36
ENDBRANCH  34  35
ENDBRANCH  33  34
ENDBRANCH  32  33
ENDBRANCH  31  32
ENDBRANCH   6  31
TORSDOF 13
ENDMDL
MODEL 3
REMARK VINA RESULT: -8.562738550      1.360      1.512
REMARK  13 active torsions:
REMARK  status: ('A' for Active; 'I' for Inactive)
REMARK    1  A    between atoms: C2_2  and  N1_3 
REMARK    2  A    between atoms: N1_3  and  C3_5 
REMARK    3  A    between atoms: C4_8  and  N3_9 
REMARK    4  A    between atoms: C7_14  and  N5_15 
REMARK    5  A    between atoms: N5_15  and  C8_17 
REMARK    6  A    between atoms: C13_22  and  O1_23 
REMARK    7  A    between atoms: O1_23  and  C14_24 
REMARK    8  A    between atoms: C14_24  and  C15_25 
REMARK    9  A    between atoms: C15_25  and  C16_26 
REMARK   10  A    between atoms: C16_26  and  C17_27 
REMARK   11  A    between atoms: C17_27  and  C18_28 
REMARK   12  A    between atoms: C18_28  and  N6_29 
REMARK   13  A    between atoms: N7_32  and  C21_33 
ROOT
HETATM    1  C8  UNL     1      18.980  30.809  16.096  1.00  0.00     0.083 A 
HETATM    2  C9  UNL     1      17.608  30.874  16.139  1.00  0.00     0.040 A 
HETATM    3  C10 UNL     1      16.979  32.076  16.096  1.00  0.00    -0.046 A 
HETATM    4  C11 UNL     1      17.725  33.227  16.009  1.00  0.00    -0.024 A 
HETATM    5  C12 UNL     1      19.124  33.143  15.966  1.00  0.00     0.048 A 
HETATM    6  C13 UNL     1      19.800  31.952  16.008  1.00  0.00     0.096 A 
HETATM    7  C25 UNL     1      17.128  34.590  15.959  1.00  0.00     0.271 C 
HETATM    8  N8  UNL     1      15.703  34.575  16.058  1.00  0.00    -0.071 N 
ATOM      9  H81 UNL     1      15.274  34.555  15.133  1.00  0.00     0.277 HD
ATOM     10  H82 UNL     1      15.352  35.476  16.385  1.00  0.00     0.277 HD
HETATM   11  C26 UNL     1      15.202  33.494  16.884  1.00  0.00     0.237 C 
HETATM   12  C27 UNL     1      15.483  32.208  16.133  1.00  0.00     0.066 C 
ENDROOT
BRANCH   1  13
HETATM   13  N5  UNL     1      19.668  29.557  16.150  1.00  0.00    -0.188 N 
ATOM     14  H5  UNL     1      19.836  29.087  17.039  1.00  0.00     0.184 HD
BRANCH  13  15
HETATM   15  C7  UNL     1      20.068  29.043  15.045  1.00  0.00     0.712 A 
HETATM   16  N4  UNL     1      19.166  28.573  14.174  1.00  0.00    -0.021 N 
HETATM   17  C4  UNL     1      19.502  28.021  13.010  1.00  0.00     0.708 A 
ATOM     18  H4  UNL     1      18.176  28.640  14.413  1.00  0.00     0.203 HD
HETATM   19  N2  UNL     1      20.799  27.938  12.706  1.00  0.00    -0.021 N 
HETATM   20  C3  UNL     1      21.750  28.392  13.540  1.00  0.00     0.707 A 
ATOM     21  H2  UNL     1      21.075  27.518  11.819  1.00  0.00     0.203 HD
HETATM   22  N9  UNL     1      21.368  28.947  14.715  1.00  0.00    -0.021 N 
ATOM     23  H9  UNL     1      22.077  29.298  15.359  1.00  0.00     0.203 HD
BRANCH  17  24
HETATM   24  N3  UNL     1      18.447  27.563  12.177  1.00  0.00    -0.225 N 
HETATM   25  C5  UNL     1      17.413  28.510  11.816  1.00  0.00     0.168 C 
HETATM   26  C6  UNL     1      18.452  26.194  11.735  1.00  0.00     0.168 C 
ENDBRANCH  17  24
BRANCH  20  27
HETATM   27  N1  UNL     1      22.984  28.278  13.180  1.00  0.00    -0.225 N 
ATOM     28  H1  UNL     1      23.721  28.704  13.743  1.00  0.00     0.177 HD
BRANCH  27  29
HETATM   29  C2  UNL     1      23.328  27.541  11.975  1.00  0.00     0.133 C 
HETATM   30  C1  UNL     1      24.769  27.112  12.069  1.00  0.00     0.027 C 
ENDBRANCH  27  29
ENDBRANCH  20  27
ENDBRANCH  13  15
ENDBRANCH   1  13
BRANCH   6  31
HETATM   31  O1  UNL     1      21.132  31.752  15.967  1.00  0.00    -0.349 OA
BRANCH  31  32
HETATM   32  C14 UNL     1      22.048  32.124  16.972  1.00  0.00     0.175 C 
BRANCH  32  33
HETATM   33  C15 UNL     1      23.061  33.050  16.417  1.00  0.00     0.027 C 
BRANCH  33  34
HETATM   34  C16 UNL     1      23.524  34.123  17.299  1.00  0.00     0.004 C 
BRANCH  34  35
HETATM   35  C17 UNL     1      22.669  34.911  18.180  1.00  0.00     0.030 C 
BRANCH  35  36
HETATM   36  C18 UNL     1      22.463  36.332  17.813  1.00  0.00     0.272 C 
BRANCH  36  37
HETATM   37  N6  UNL     1      21.206  36.600  17.155  1.00  0.00     0.091 N 
HETATM   38  C19 UNL     1      20.895  38.020  17.333  1.00  0.00     0.302 C 
HETATM   39  C20 UNL     1      19.387  38.226  17.343  1.00  0.00     0.302 C 
HETATM   40  N7  UNL     1      18.825  37.620  18.541  1.00  0.00     0.091 N 
HETATM   41  C23 UNL     1      19.550  36.414  18.878  1.00  0.00     0.302 C 
HETATM   42  C24 UNL     1      20.147  35.773  17.643  1.00  0.00     0.302 C 
BRANCH  40  43
HETATM   43  C21 UNL     1      17.407  37.426  18.462  1.00  0.00     0.268 C 
HETATM   44  C22 UNL     1      16.942  38.096  17.169  1.00  0.00     0.037 C 
ENDBRANCH  40  43
ENDBRANCH  36  37
ENDBRANCH  35  36
ENDBRANCH  34  35
ENDBRANCH  33  34
ENDBRANCH  32  33
ENDBRANCH  31  32
ENDBRANCH   6  31
TORSDOF 13
ENDMDL
MODEL 4
REMARK VINA RESULT: -8.470455505      1.551      4.777
REMARK  13 active torsions:
REMARK  status: ('A' for Active; 'I' for Inactive)
REMARK    1  A    between atoms: C2_2  and  N1_3 
REMARK    2  A    between atoms: N1_3  and  C3_5 
REMARK    3  A    between atoms: C4_8  and  N3_9 
REMARK    4  A    between atoms: C7_14  and  N5_15 
REMARK    5  A    between atoms: N5_15  and  C8_17 
REMARK    6  A    between atoms: C13_22  and  O1_23 
REMARK    7  A    between atoms: O1_23  and  C14_24 
REMARK    8  A    between atoms: C14_24  and  C15_25 
REMARK    9  A    between atoms: C15_25  and  C16_26 
REMARK   10  A    between atoms: C16_26  and  C17_27 
REMARK   11  A    between atoms: C17_27  and  C18_28 
REMARK   12  A    between atoms: C18_28  and  N6_29 
REMARK   13  A    between atoms: N7_32  and  C21_33 
ROOT
HETATM    1  C8  UNL     1      21.471  32.188  14.429  1.00  0.00     0.083 A 
HETATM    2  C9  UNL     1      22.580  32.400  15.212  1.00  0.00     0.040 A 
HETATM    3  C10 UNL     1      22.487  33.152  16.338  1.00  0.00    -0.046 A 
HETATM    4  C11 UNL     1      21.276  33.699  16.688  1.00  0.00    -0.024 A 
HETATM    5  C12 UNL     1      20.154  33.473  15.878  1.00  0.00     0.048 A 
HETATM    6  C13 UNL     1      20.202  32.721  14.733  1.00  0.00     0.096 A 
HETATM    7  C25 UNL     1      21.074  34.540  17.901  1.00  0.00     0.271 C 
HETATM    8  N8  UNL     1      22.282  34.755  18.633  1.00  0.00    -0.071 N 
ATOM      9  H81 UNL     1      22.393  34.053  19.365  1.00  0.00     0.277 HD
ATOM     10  H82 UNL     1      22.211  35.591  19.214  1.00  0.00     0.277 HD
HETATM   11  C26 UNL     1      23.458  34.811  17.787  1.00  0.00     0.237 C 
HETATM   12  C27 UNL     1      23.662  33.414  17.237  1.00  0.00     0.066 C 
ENDROOT
BRANCH   1  13
HETATM   13  N5  UNL     1      21.543  31.408  13.234  1.00  0.00    -0.188 N 
ATOM     14  H5  UNL     1      21.802  31.832  12.343  1.00  0.00     0.184 HD
BRANCH  13  15
HETATM   15  C7  UNL     1      21.272  30.157  13.315  1.00  0.00     0.712 A 
HETATM   16  N4  UNL     1      22.099  29.266  12.754  1.00  0.00    -0.021 N 
HETATM   17  C4  UNL     1      21.884  27.953  12.791  1.00  0.00     0.708 A 
ATOM     18  H4  UNL     1      22.933  29.609  12.276  1.00  0.00     0.203 HD
HETATM   19  N2  UNL     1      20.791  27.514  13.418  1.00  0.00    -0.021 N 
HETATM   20  C3  UNL     1      19.923  28.360  14.000  1.00  0.00     0.707 A 
ATOM     21  H2  UNL     1      20.609  26.512  13.456  1.00  0.00     0.203 HD
HETATM   22  N9  UNL     1      20.177  29.688  13.941  1.00  0.00    -0.021 N 
ATOM     23  H9  UNL     1      19.529  30.344  14.378  1.00  0.00     0.203 HD
BRANCH  17  24
HETATM   24  N3  UNL     1      22.841  27.117  12.157  1.00  0.00    -0.225 N 
HETATM   25  C5  UNL     1      22.365  25.900  11.535  1.00  0.00     0.168 C 
HETATM   26  C6  UNL     1      24.224  27.513  12.162  1.00  0.00     0.168 C 
ENDBRANCH  17  24
BRANCH  20  27
HETATM   27  N1  UNL     1      18.886  27.863  14.588  1.00  0.00    -0.225 N 
ATOM     28  H1  UNL     1      18.804  27.915  15.603  1.00  0.00     0.177 HD
BRANCH  27  29
HETATM   29  C2  UNL     1      17.836  27.232  13.806  1.00  0.00     0.133 C 
HETATM   30  C1  UNL     1      17.416  28.180  12.713  1.00  0.00     0.027 C 
ENDBRANCH  27  29
ENDBRANCH  20  27
ENDBRANCH  13  15
ENDBRANCH   1  13
BRANCH   6  31
HETATM   31  O1  UNL     1      19.195  32.433  13.887  1.00  0.00    -0.349 OA
BRANCH  31  32
HETATM   32  C14 UNL     1      17.820  32.561  14.175  1.00  0.00     0.175 C 
BRANCH  32  33
HETATM   33  C15 UNL     1      17.396  31.487  15.102  1.00  0.00     0.027 C 
BRANCH  33  34
HETATM   34  C16 UNL     1      16.250  31.780  15.966  1.00  0.00     0.004 C 
BRANCH  34  35
HETATM   35  C17 UNL     1      15.539  33.053  16.011  1.00  0.00     0.030 C 
BRANCH  35  36
HETATM   36  C18 UNL     1      15.295  33.633  17.353  1.00  0.00     0.272 C 
BRANCH  36  37
HETATM   37  N6  UNL     1      15.376  35.074  17.400  1.00  0.00     0.091 N 
HETATM   38  C19 UNL     1      16.296  35.511  16.347  1.00  0.00     0.302 C 
HETATM   39  C20 UNL     1      16.977  36.809  16.757  1.00  0.00     0.302 C 
HETATM   40  N7  UNL     1      17.870  36.552  17.878  1.00  0.00     0.091 N 
HETATM   41  C23 UNL     1      17.302  35.545  18.748  1.00  0.00     0.302 C 
HETATM   42  C24 UNL     1      15.789  35.556  18.681  1.00  0.00     0.302 C 
BRANCH  40  43
HETATM   43  C21 UNL     1      18.261  37.745  18.571  1.00  0.00     0.268 C 
HETATM   44  C22 UNL     1      19.734  37.983  18.241  1.00  0.00     0.037 C 
ENDBRANCH  40  43
ENDBRANCH  36  37
ENDBRANCH  35  36
ENDBRANCH  34  35
ENDBRANCH  33  34
ENDBRANCH  32  33
ENDBRANCH  31  32
ENDBRANCH   6  31
TORSDOF 13
ENDMDL
MODEL 5
REMARK VINA RESULT: -8.470233605      1.838      4.296
REMARK  13 active torsions:
REMARK  status: ('A' for Active; 'I' for Inactive)
REMARK    1  A    between atoms: C2_2  and  N1_3 
REMARK    2  A    between atoms: N1_3  and  C3_5 
REMARK    3  A    between atoms: C4_8  and  N3_9 
REMARK    4  A    between atoms: C7_14  and  N5_15 
REMARK    5  A    between atoms: N5_15  and  C8_17 
REMARK    6  A    between atoms: C13_22  and  O1_23 
REMARK    7  A    between atoms: O1_23  and  C14_24 
REMARK    8  A    between atoms: C14_24  and  C15_25 
REMARK    9  A    between atoms: C15_25  and  C16_26 
REMARK   10  A    between atoms: C16_26  and  C17_27 
REMARK   11  A    between atoms: C17_27  and  C18_28 
REMARK   12  A    between atoms: C18_28  and  N6_29 
REMARK   13  A    between atoms: N7_32  and  C21_33 
ROOT
HETATM    1  C8  UNL     1      20.311  30.970  16.608  1.00  0.00     0.083 A 
HETATM    2  C9  UNL     1      21.523  31.465  17.026  1.00  0.00     0.040 A 
HETATM    3  C10 UNL     1      21.686  32.799  17.221  1.00  0.00    -0.046 A 
HETATM    4  C11 UNL     1      20.629  33.649  16.997  1.00  0.00    -0.024 A 
HETATM    5  C12 UNL     1      19.399  33.128  16.572  1.00  0.00     0.048 A 
HETATM    6  C13 UNL     1      19.191  31.789  16.362  1.00  0.00     0.096 A 
HETATM    7  C25 UNL     1      20.711  35.125  17.180  1.00  0.00     0.271 C 
HETATM    8  N8  UNL     1      22.014  35.564  17.566  1.00  0.00    -0.071 N 
ATOM      9  H81 UNL     1      22.093  35.620  18.582  1.00  0.00     0.277 HD
ATOM     10  H82 UNL     1      22.149  36.549  17.334  1.00  0.00     0.277 HD
HETATM   11  C26 UNL     1      23.076  34.751  17.009  1.00  0.00     0.237 C 
HETATM   12  C27 UNL     1      22.985  33.397  17.682  1.00  0.00     0.066 C 
ENDROOT
BRANCH   1  13
HETATM   13  N5  UNL     1      20.115  29.572  16.387  1.00  0.00    -0.188 N 
ATOM     14  H5  UNL     1      19.781  28.963  17.133  1.00  0.00     0.184 HD
BRANCH  13  15
HETATM   15  C7  UNL     1      20.372  29.106  15.219  1.00  0.00     0.712 A 
HETATM   16  N4  UNL     1      19.363  28.719  14.429  1.00  0.00    -0.021 N 
HETATM   17  C4  UNL     1      19.549  28.222  13.208  1.00  0.00     0.708 A 
ATOM     18  H4  UNL     1      18.409  28.809  14.778  1.00  0.00     0.203 HD
HETATM   19  N2  UNL     1      20.801  28.108  12.761  1.00  0.00    -0.021 N 
HETATM   20  C3  UNL     1      21.854  28.481  13.508  1.00  0.00     0.707 A 
ATOM     21  H2  UNL     1      20.963  27.730  11.828  1.00  0.00     0.203 HD
HETATM   22  N9  UNL     1      21.624  28.982  14.745  1.00  0.00    -0.021 N 
ATOM     23  H9  UNL     1      22.412  29.270  15.325  1.00  0.00     0.203 HD
BRANCH  17  24
HETATM   24  N3  UNL     1      18.393  27.849  12.473  1.00  0.00    -0.225 N 
HETATM   25  C5  UNL     1      18.226  26.450  12.143  1.00  0.00     0.168 C 
HETATM   26  C6  UNL     1      17.450  28.868  12.093  1.00  0.00     0.168 C 
ENDBRANCH  17  24
BRANCH  20  27
HETATM   27  N1  UNL     1      23.037  28.342  13.010  1.00  0.00    -0.225 N 
ATOM     28  H1  UNL     1      23.788  28.971  13.297  1.00  0.00     0.177 HD
BRANCH  27  29
HETATM   29  C2  UNL     1      23.303  27.290  12.042  1.00  0.00     0.133 C 
HETATM   30  C1  UNL     1      24.775  26.974  12.069  1.00  0.00     0.027 C 
ENDBRANCH  27  29
ENDBRANCH  20  27
ENDBRANCH  13  15
ENDBRANCH   1  13
BRANCH   6  31
HETATM   31  O1  UNL     1      18.058  31.179  15.963  1.00  0.00    -0.349 OA
BRANCH  31  32
HETATM   32  C14 UNL     1      17.029  31.775  15.205  1.00  0.00     0.175 C 
BRANCH  32  33
HETATM   33  C15 UNL     1      15.840  32.002  16.057  1.00  0.00     0.027 C 
BRANCH  33  34
HETATM   34  C16 UNL     1      15.573  33.385  16.457  1.00  0.00     0.004 C 
BRANCH  34  35
HETATM   35  C17 UNL     1      15.573  33.875  17.831  1.00  0.00     0.030 C 
BRANCH  35  36
HETATM   36  C18 UNL     1      14.696  35.032  18.127  1.00  0.00     0.272 C 
BRANCH  36  37
HETATM   37  N6  UNL     1      15.321  36.064  18.920  1.00  0.00     0.091 N 
HETATM   38  C19 UNL     1      14.426  37.223  18.941  1.00  0.00     0.302 C 
HETATM   39  C20 UNL     1      15.235  38.504  19.090  1.00  0.00     0.302 C 
HETATM   40  N7  UNL     1      16.017  38.723  17.881  1.00  0.00     0.091 N 
HETATM   41  C23 UNL     1      16.464  37.457  17.339  1.00  0.00     0.302 C 
HETATM   42  C24 UNL     1      16.616  36.420  18.431  1.00  0.00     0.302 C 
BRANCH  40  43
HETATM   43  C21 UNL     1      17.078  39.670  18.061  1.00  0.00     0.268 C 
HETATM   44  C22 UNL     1      17.179  40.470  16.763  1.00  0.00     0.037 C 
ENDBRANCH  40  43
ENDBRANCH  36  37
ENDBRANCH  35  36
ENDBRANCH  34  35
ENDBRANCH  33  34
ENDBRANCH  32  33
ENDBRANCH  31  32
ENDBRANCH   6  31
TORSDOF 13
ENDMDL
