MODEL 1
REMARK VINA RESULT: -8.387993199      0.000      0.000
REMARK  14 active torsions:
REMARK  status: ('A' for Active; 'I' for Inactive)
REMARK    1  A    between atoms: C2_2  and  C3_3 
REMARK    2  A    between atoms: C3_3  and  C4_4 
REMARK    3  A    between atoms: C4_4  and  C5_5 
REMARK    4  A    between atoms: C5_5  and  C6_6 
REMARK    5  A    between atoms: C7_7  and  O1_8 
REMARK    6  A    between atoms: C8_10  and  O2_11 
REMARK    7  A    between atoms: C9_13  and  O3_14 
REMARK    8  A    between atoms: C10_16  and  O4_17 
REMARK    9  A    between atoms: N1_19  and  C12_20 
REMARK   10  A    between atoms: C12_20  and  C13_21 
REMARK   11  A    between atoms: C13_21  and  C14_22 
REMARK       I    between atoms: N2_26  and  C18_27 
REMARK   12  A    between atoms: C18_27  and  C19_29 
REMARK   13  A    between atoms: C23_34  and  C24_35 
REMARK   14  A    between atoms: C24_35  and  C25_36 
ROOT
HETATM    1  C12 UNL     1      19.154  32.767  13.961  1.00  0.00     0.121 C 
ENDROOT
BRANCH   1   2
HETATM    2  N1  UNL     1      19.781  31.505  13.810  1.00  0.00    -0.379 N 
HETATM    3  C6  UNL     1      18.897  30.354  13.814  1.00  0.00     0.113 C 
HETATM    4  C7  UNL     1      18.962  29.570  15.063  1.00  0.00     0.172 C 
HETATM    5  C8  UNL     1      19.739  30.282  16.178  1.00  0.00     0.181 C 
HETATM    6  C9  UNL     1      21.110  30.557  15.642  1.00  0.00     0.198 C 
HETATM    7  C10 UNL     1      21.066  31.321  14.342  1.00  0.00     0.250 C 
BRANCH   3   8
HETATM    8  C5  UNL     1      18.924  29.615  12.533  1.00  0.00     0.028 C 
BRANCH   8   9
HETATM    9  C4  UNL     1      17.747  29.041  11.904  1.00  0.00     0.002 C 
BRANCH   9  10
HETATM   10  C3  UNL     1      17.758  27.664  11.362  1.00  0.00    -0.000 C 
BRANCH  10  11
HETATM   11  C2  UNL     1      18.093  26.640  12.467  1.00  0.00    -0.005 C 
HETATM   12  C1  UNL     1      18.112  25.293  11.774  1.00  0.00     0.005 C 
ENDBRANCH  10  11
ENDBRANCH   9  10
ENDBRANCH   8   9
ENDBRANCH   3   8
BRANCH   4  13
HETATM   13  O1  UNL     1      17.633  29.442  15.603  1.00  0.00    -0.391 OA
ATOM     14  H1  UNL     1      17.266  28.612  15.321  1.00  0.00     0.210 HD
ENDBRANCH   4  13
BRANCH   5  15
HETATM   15  O2  UNL     1      19.886  29.312  17.190  1.00  0.00    -0.390 OA
ATOM     16  H2  UNL     1      20.773  28.986  17.088  1.00  0.00     0.210 HD
ENDBRANCH   5  15
BRANCH   6  17
HETATM   17  O3  UNL     1      21.851  31.234  16.613  1.00  0.00    -0.389 OA
ATOM     18  H3  UNL     1      22.655  30.756  16.779  1.00  0.00     0.210 HD
ENDBRANCH   6  17
BRANCH   7  19
HETATM   19  O4  UNL     1      21.628  32.573  14.589  1.00  0.00    -0.369 OA
HETATM   20  C11 UNL     1      22.923  32.666  14.074  1.00  0.00     0.204 C 
ENDBRANCH   7  19
ENDBRANCH   1   2
BRANCH   1  21
HETATM   21  C13 UNL     1      17.706  32.623  14.233  1.00  0.00     0.029 C 
BRANCH  21  22
HETATM   22  C14 UNL     1      17.175  33.455  15.375  1.00  0.00    -0.040 C 
HETATM   23  C15 UNL     1      16.653  34.760  14.760  1.00  0.00     0.015 C 
HETATM   24  C16 UNL     1      18.193  33.816  16.389  1.00  0.00     0.029 C 
HETATM   25  C17 UNL     1      17.531  34.094  17.716  1.00  0.00     0.126 C 
HETATM   26  N2  UNL     1      16.155  34.461  17.643  1.00  0.00    -0.352 N 
HETATM   27  C18 UNL     1      15.669  35.652  18.226  1.00  0.00     0.224 C 
HETATM   28  C27 UNL     1      15.239  33.573  16.957  1.00  0.00     0.126 C 
HETATM   29  O5  UNL     1      14.422  35.900  18.084  1.00  0.00    -0.273 OA
HETATM   30  C28 UNL     1      15.959  32.737  15.922  1.00  0.00     0.029 C 
BRANCH  27  31
HETATM   31  C19 UNL     1      16.457  36.631  18.981  1.00  0.00     0.089 C 
HETATM   32  C20 UNL     1      15.602  37.798  19.404  1.00  0.00     0.022 C 
HETATM   33  C21 UNL     1      15.838  38.871  18.370  1.00  0.00     0.079 C 
HETATM   34  C22 UNL     1      16.852  38.350  17.420  1.00  0.00     0.132 C 
HETATM   35  O6  UNL     1      17.038  38.781  16.305  1.00  0.00    -0.298 OA
HETATM   36  C23 UNL     1      17.544  37.236  18.128  1.00  0.00     0.068 C 
BRANCH  36  37
HETATM   37  C24 UNL     1      18.666  37.785  18.976  1.00  0.00     0.013 C 
BRANCH  37  38
HETATM   38  C25 UNL     1      19.906  37.885  18.118  1.00  0.00    -0.004 C 
HETATM   39  C26 UNL     1      20.419  36.521  17.731  1.00  0.00     0.005 C 
ENDBRANCH  37  38
ENDBRANCH  36  37
ENDBRANCH  27  31
ENDBRANCH  21  22
ENDBRANCH   1  21
TORSDOF 14
ENDMDL
MODEL 2
REMARK VINA RESULT: -8.376768815      1.234      1.315
REMARK  14 active torsions:
REMARK  status: ('A' for Active; 'I' for Inactive)
REMARK    1  A    between atoms: C2_2  and  C3_3 
REMARK    2  A    between atoms: C3_3  and  C4_4 
REMARK    3  A    between atoms: C4_4  and  C5_5 
REMARK    4  A    between atoms: C5_5  and  C6_6 
REMARK    5  A    between atoms: C7_7  and  O1_8 
REMARK    6  A    between atoms: C8_10  and  O2_11 
REMARK    7  A    between atoms: C9_13  and  O3_14 
REMARK    8  A    between atoms: C10_16  and  O4_17 
REMARK    9  A    between atoms: N1_19  and  C12_20 
REMARK   10  A    between atoms: C12_20  and  C13_21 
REMARK   11  A    between atoms: C13_21  and  C14_22 
REMARK       I    between atoms: N2_26  and  C18_27 
REMARK   12  A    between atoms: C18_27  and  C19_29 
REMARK   13  A    between atoms: C23_34  and  C24_35 
REMARK   14  A    between atoms: C24_35  and  C25_36 
ROOT
HETATM    1  C12 UNL     1      17.716  31.309  15.504  1.00  0.00     0.121 C 
ENDROOT
BRANCH   1   2
HETATM    2  N1  UNL     1      18.534  30.871  14.434  1.00  0.00    -0.379 N 
HETATM    3  C6  UNL     1      18.196  29.578  13.866  1.00  0.00     0.113 C 
HETATM    4  C7  UNL     1      19.143  28.510  14.241  1.00  0.00     0.172 C 
HETATM    5  C8  UNL     1      20.114  28.930  15.352  1.00  0.00     0.181 C 
HETATM    6  C9  UNL     1      20.839  30.143  14.856  1.00  0.00     0.198 C 
HETATM    7  C10 UNL     1      19.890  31.233  14.427  1.00  0.00     0.250 C 
BRANCH   3   8
HETATM    8  C5  UNL     1      17.788  29.672  12.449  1.00  0.00     0.028 C 
BRANCH   8   9
HETATM    9  C4  UNL     1      16.913  28.715  11.793  1.00  0.00     0.002 C 
BRANCH   9  10
HETATM   10  C3  UNL     1      17.342  27.985  10.579  1.00  0.00    -0.000 C 
BRANCH  10  11
HETATM   11  C2  UNL     1      18.616  27.159  10.855  1.00  0.00    -0.005 C 
HETATM   12  C1  UNL     1      18.137  25.902  11.552  1.00  0.00     0.005 C 
ENDBRANCH  10  11
ENDBRANCH   9  10
ENDBRANCH   8   9
ENDBRANCH   3   8
BRANCH   4  13
HETATM   13  O1  UNL     1      18.407  27.419  14.828  1.00  0.00    -0.391 OA
ATOM     14  H1  UNL     1      18.837  27.156  15.633  1.00  0.00     0.210 HD
ENDBRANCH   4  13
BRANCH   5  15
HETATM   15  O2  UNL     1      21.062  27.889  15.416  1.00  0.00    -0.390 OA
ATOM     16  H2  UNL     1      21.358  27.884  16.319  1.00  0.00     0.210 HD
ENDBRANCH   5  15
BRANCH   6  17
HETATM   17  O3  UNL     1      21.718  30.585  15.848  1.00  0.00    -0.389 OA
ATOM     18  H3  UNL     1      22.124  31.395  15.563  1.00  0.00     0.210 HD
ENDBRANCH   6  17
BRANCH   7  19
HETATM   19  O4  UNL     1      20.069  32.298  15.310  1.00  0.00    -0.369 OA
HETATM   20  C11 UNL     1      20.641  33.402  14.674  1.00  0.00     0.204 C 
ENDBRANCH   7  19
ENDBRANCH   1   2
BRANCH   1  21
HETATM   21  C13 UNL     1      16.755  32.344  15.063  1.00  0.00     0.029 C 
BRANCH  21  22
HETATM   22  C14 UNL     1      16.554  33.494  16.021  1.00  0.00    -0.040 C 
HETATM   23  C15 UNL     1      16.433  34.761  15.164  1.00  0.00     0.015 C 
HETATM   24  C16 UNL     1      17.676  33.701  16.965  1.00  0.00     0.029 C 
HETATM   25  C17 UNL     1      17.190  34.408  18.205  1.00  0.00     0.126 C 
HETATM   26  N2  UNL     1      15.991  35.164  18.043  1.00  0.00    -0.352 N 
HETATM   27  C18 UNL     1      15.920  36.532  18.385  1.00  0.00     0.224 C 
HETATM   28  C27 UNL     1      14.818  34.494  17.521  1.00  0.00     0.126 C 
HETATM   29  O5  UNL     1      14.805  37.124  18.179  1.00  0.00    -0.273 OA
HETATM   30  C28 UNL     1      15.201  33.301  16.672  1.00  0.00     0.029 C 
BRANCH  27  31
HETATM   31  C19 UNL     1      17.003  37.340  18.956  1.00  0.00     0.089 C 
HETATM   32  C20 UNL     1      16.479  38.655  19.469  1.00  0.00     0.022 C 
HETATM   33  C21 UNL     1      16.735  39.654  18.367  1.00  0.00     0.079 C 
HETATM   34  C22 UNL     1      17.448  38.936  17.282  1.00  0.00     0.132 C 
HETATM   35  O6  UNL     1      17.519  39.314  16.135  1.00  0.00    -0.298 OA
HETATM   36  C23 UNL     1      18.022  37.711  17.907  1.00  0.00     0.068 C 
BRANCH  36  37
HETATM   37  C24 UNL     1      19.360  38.031  18.531  1.00  0.00     0.013 C 
BRANCH  37  38
HETATM   38  C25 UNL     1      20.447  37.582  17.582  1.00  0.00    -0.004 C 
HETATM   39  C26 UNL     1      20.566  36.079  17.555  1.00  0.00     0.005 C 
ENDBRANCH  37  38
ENDBRANCH  36  37
ENDBRANCH  27  31
ENDBRANCH  21  22
ENDBRANCH   1  21
TORSDOF 14
ENDMDL
MODEL 3
REMARK VINA RESULT: -8.324551500      1.355      1.691
REMARK  14 active torsions:
REMARK  status: ('A' for Active; 'I' for Inactive)
REMARK    1  A    between atoms: C2_2  and  C3_3 
REMARK    2  A    between atoms: C3_3  and  C4_4 
REMARK    3  A    between atoms: C4_4  and  C5_5 
REMARK    4  A    between atoms: C5_5  and  C6_6 
REMARK    5  A    between atoms: C7_7  and  O1_8 
REMARK    6  A    between atoms: C8_10  and  O2_11 
REMARK    7  A    between atoms: C9_13  and  O3_14 
REMARK    8  A    between atoms: C10_16  and  O4_17 
REMARK    9  A    between atoms: N1_19  and  C12_20 
REMARK   10  A    between atoms: C12_20  and  C13_21 
REMARK   11  A    between atoms: C13_21  and  C14_22 
REMARK       I    between atoms: N2_26  and  C18_27 
REMARK   12  A    between atoms: C18_27  and  C19_29 
REMARK   13  A    between atoms: C23_34  and  C24_35 
REMARK   14  A    between atoms: C24_35  and  C25_36 
ROOT
HETATM    1  C12 UNL     1      19.132  32.426  13.710  1.00  0.00     0.121 C 
ENDROOT
BRANCH   1   2
HETATM    2  N1  UNL     1      19.968  31.285  13.631  1.00  0.00    -0.379 N 
HETATM    3  C6  UNL     1      19.288  30.010  13.491  1.00  0.00     0.113 C 
HETATM    4  C7  UNL     1      19.305  29.200  14.725  1.00  0.00     0.172 C 
HETATM    5  C8  UNL     1      19.795  29.981  15.950  1.00  0.00     0.181 C 
HETATM    6  C9  UNL     1      21.165  30.488  15.620  1.00  0.00     0.198 C 
HETATM    7  C10 UNL     1      21.180  31.284  14.339  1.00  0.00     0.250 C 
BRANCH   3   8
HETATM    8  C5  UNL     1      19.611  29.333  12.217  1.00  0.00     0.028 C 
BRANCH   8   9
HETATM    9  C4  UNL     1      20.637  28.313  12.079  1.00  0.00     0.002 C 
BRANCH   9  10
HETATM   10  C3  UNL     1      22.030  28.667  11.724  1.00  0.00    -0.000 C 
BRANCH  10  11
HETATM   11  C2  UNL     1      23.004  28.271  12.855  1.00  0.00    -0.005 C 
HETATM   12  C1  UNL     1      24.131  27.525  12.172  1.00  0.00     0.005 C 
ENDBRANCH  10  11
ENDBRANCH   9  10
ENDBRANCH   8   9
ENDBRANCH   3   8
BRANCH   4  13
HETATM   13  O1  UNL     1      17.952  28.844  15.067  1.00  0.00    -0.391 OA
ATOM     14  H1  UNL     1      17.823  27.919  14.890  1.00  0.00     0.210 HD
ENDBRANCH   4  13
BRANCH   5  15
HETATM   15  O2  UNL     1      19.954  29.009  16.958  1.00  0.00    -0.390 OA
ATOM     16  H2  UNL     1      20.260  29.493  17.716  1.00  0.00     0.210 HD
ENDBRANCH   5  15
BRANCH   6  17
HETATM   17  O3  UNL     1      21.646  31.236  16.697  1.00  0.00    -0.389 OA
ATOM     18  H3  UNL     1      22.514  30.927  16.926  1.00  0.00     0.210 HD
ENDBRANCH   6  17
BRANCH   7  19
HETATM   19  O4  UNL     1      21.494  32.599  14.682  1.00  0.00    -0.369 OA
HETATM   20  C11 UNL     1      22.810  32.919  14.342  1.00  0.00     0.204 C 
ENDBRANCH   7  19
ENDBRANCH   1   2
BRANCH   1  21
HETATM   21  C13 UNL     1      17.797  32.083  14.248  1.00  0.00     0.029 C 
BRANCH  21  22
HETATM   22  C14 UNL     1      17.283  32.991  15.339  1.00  0.00    -0.040 C 
HETATM   23  C15 UNL     1      16.927  34.324  14.667  1.00  0.00     0.015 C 
HETATM   24  C16 UNL     1      18.271  33.279  16.405  1.00  0.00     0.029 C 
HETATM   25  C17 UNL     1      17.563  33.653  17.683  1.00  0.00     0.126 C 
HETATM   26  N2  UNL     1      16.235  34.149  17.520  1.00  0.00    -0.352 N 
HETATM   27  C18 UNL     1      15.834  35.395  18.049  1.00  0.00     0.224 C 
HETATM   28  C27 UNL     1      15.279  33.334  16.799  1.00  0.00     0.126 C 
HETATM   29  O5  UNL     1      14.628  35.757  17.827  1.00  0.00    -0.273 OA
HETATM   30  C28 UNL     1      15.973  32.406  15.826  1.00  0.00     0.029 C 
BRANCH  27  31
HETATM   31  C19 UNL     1      16.668  36.314  18.830  1.00  0.00     0.089 C 
HETATM   32  C20 UNL     1      15.851  37.462  19.360  1.00  0.00     0.022 C 
HETATM   33  C21 UNL     1      16.061  38.595  18.387  1.00  0.00     0.079 C 
HETATM   34  C22 UNL     1      17.026  38.123  17.364  1.00  0.00     0.132 C 
HETATM   35  O6  UNL     1      17.173  38.621  16.272  1.00  0.00    -0.298 OA
HETATM   36  C23 UNL     1      17.729  36.957  17.971  1.00  0.00     0.068 C 
BRANCH  36  37
HETATM   37  C24 UNL     1      18.894  37.436  18.804  1.00  0.00     0.013 C 
BRANCH  37  38
HETATM   38  C25 UNL     1      20.125  37.466  17.927  1.00  0.00    -0.004 C 
HETATM   39  C26 UNL     1      20.565  36.074  17.549  1.00  0.00     0.005 C 
ENDBRANCH  37  38
ENDBRANCH  36  37
ENDBRANCH  27  31
ENDBRANCH  21  22
ENDBRANCH   1  21
TORSDOF 14
ENDMDL
MODEL 4
REMARK VINA RESULT: -8.252212420      1.641      4.208
REMARK  14 active torsions:
REMARK  status: ('A' for Active; 'I' for Inactive)
REMARK    1  A    between atoms: C2_2  and  C3_3 
REMARK    2  A    between atoms: C3_3  and  C4_4 
REMARK    3  A    between atoms: C4_4  and  C5_5 
REMARK    4  A    between atoms: C5_5  and  C6_6 
REMARK    5  A    between atoms: C7_7  and  O1_8 
REMARK    6  A    between atoms: C8_10  and  O2_11 
REMARK    7  A    between atoms: C9_13  and  O3_14 
REMARK    8  A    between atoms: C10_16  and  O4_17 
REMARK    9  A    between atoms: N1_19  and  C12_20 
REMARK   10  A    between atoms: C12_20  and  C13_21 
REMARK   11  A    between atoms: C13_21  and  C14_22 
REMARK       I    between atoms: N2_26  and  C18_27 
REMARK   12  A    between atoms: C18_27  and  C19_29 
REMARK   13  A    between atoms: C23_34  and  C24_35 
REMARK   14  A    between atoms: C24_35  and  C25_36 
ROOT
HETATM    1  C12 UNL     1      17.958  30.918  14.189  1.00  0.00     0.121 C 
ENDROOT
BRANCH   1   2
HETATM    2  N1  UNL     1      19.088  30.172  14.606  1.00  0.00    -0.379 N 
HETATM    3  C6  UNL     1      20.302  30.935  14.832  1.00  0.00     0.113 C 
HETATM    4  C7  UNL     1      21.314  30.750  13.773  1.00  0.00     0.172 C 
HETATM    5  C8  UNL     1      20.769  30.013  12.544  1.00  0.00     0.181 C 
HETATM    6  C9  UNL     1      20.247  28.694  13.026  1.00  0.00     0.198 C 
HETATM    7  C10 UNL     1      19.241  28.858  14.138  1.00  0.00     0.250 C 
BRANCH   3   8
HETATM    8  C5  UNL     1      20.754  30.875  16.238  1.00  0.00     0.028 C 
BRANCH   8   9
HETATM    9  C4  UNL     1      21.881  31.631  16.759  1.00  0.00     0.002 C 
BRANCH   9  10
HETATM   10  C3  UNL     1      21.950  33.102  16.620  1.00  0.00    -0.000 C 
BRANCH  10  11
HETATM   11  C2  UNL     1      23.339  33.630  17.037  1.00  0.00    -0.005 C 
HETATM   12  C1  UNL     1      23.077  34.593  18.177  1.00  0.00     0.005 C 
ENDBRANCH  10  11
ENDBRANCH   9  10
ENDBRANCH   8   9
ENDBRANCH   3   8
BRANCH   4  13
HETATM   13  O1  UNL     1      21.691  32.041  13.257  1.00  0.00    -0.391 OA
ATOM     14  H1  UNL     1      22.430  31.934  12.671  1.00  0.00     0.210 HD
ENDBRANCH   4  13
BRANCH   5  15
HETATM   15  O2  UNL     1      21.905  29.735  11.757  1.00  0.00    -0.390 OA
ATOM     16  H2  UNL     1      21.603  29.806  10.859  1.00  0.00     0.210 HD
ENDBRANCH   5  15
BRANCH   6  17
HETATM   17  O3  UNL     1      19.710  27.994  11.943  1.00  0.00    -0.389 OA
ATOM     18  H3  UNL     1      20.410  27.541  11.489  1.00  0.00     0.210 HD
ENDBRANCH   6  17
BRANCH   7  19
HETATM   19  O4  UNL     1      18.014  28.418  13.643  1.00  0.00    -0.369 OA
HETATM   20  C11 UNL     1      17.622  27.215  14.236  1.00  0.00     0.204 C 
ENDBRANCH   7  19
ENDBRANCH   1   2
BRANCH   1  21
HETATM   21  C13 UNL     1      18.229  32.372  14.214  1.00  0.00     0.029 C 
BRANCH  21  22
HETATM   22  C14 UNL     1      17.545  33.142  15.318  1.00  0.00    -0.040 C 
HETATM   23  C15 UNL     1      16.994  34.424  14.682  1.00  0.00     0.015 C 
HETATM   24  C16 UNL     1      18.444  33.544  16.425  1.00  0.00     0.029 C 
HETATM   25  C17 UNL     1      17.652  33.749  17.692  1.00  0.00     0.126 C 
HETATM   26  N2  UNL     1      16.266  34.028  17.503  1.00  0.00    -0.352 N 
HETATM   27  C18 UNL     1      15.653  35.171  18.061  1.00  0.00     0.224 C 
HETATM   28  C27 UNL     1      15.475  33.098  16.724  1.00  0.00     0.126 C 
HETATM   29  O5  UNL     1      14.410  35.341  17.813  1.00  0.00    -0.273 OA
HETATM   30  C28 UNL     1      16.336  32.334  15.742  1.00  0.00     0.029 C 
BRANCH  27  31
HETATM   31  C19 UNL     1      16.305  36.181  18.900  1.00  0.00     0.089 C 
HETATM   32  C20 UNL     1      15.344  37.285  19.257  1.00  0.00     0.022 C 
HETATM   33  C21 UNL     1      15.606  38.390  18.265  1.00  0.00     0.079 C 
HETATM   34  C22 UNL     1      16.734  37.952  17.407  1.00  0.00     0.132 C 
HETATM   35  O6  UNL     1      16.995  38.415  16.320  1.00  0.00    -0.298 OA
HETATM   36  C23 UNL     1      17.426  36.869  18.160  1.00  0.00     0.068 C 
BRANCH  36  37
HETATM   37  C24 UNL     1      18.429  37.468  19.117  1.00  0.00     0.013 C 
BRANCH  37  38
HETATM   38  C25 UNL     1      19.678  37.816  18.341  1.00  0.00    -0.004 C 
HETATM   39  C26 UNL     1      20.176  36.637  17.542  1.00  0.00     0.005 C 
ENDBRANCH  37  38
ENDBRANCH  36  37
ENDBRANCH  27  31
ENDBRANCH  21  22
ENDBRANCH   1  21
TORSDOF 14
ENDMDL
MODEL 5
REMARK VINA RESULT: -8.240389100      2.169      2.515
REMARK  14 active torsions:
REMARK  status: ('A' for Active; 'I' for Inactive)
REMARK    1  A    between atoms: C2_2  and  C3_3 
REMARK    2  A    between atoms: C3_3  and  C4_4 
REMARK    3  A    between atoms: C4_4  and  C5_5 
REMARK    4  A    between atoms: C5_5  and  C6_6 
REMARK    5  A    between atoms: C7_7  and  O1_8 
REMARK    6  A    between atoms: C8_10  and  O2_11 
REMARK    7  A    between atoms: C9_13  and  O3_14 
REMARK    8  A    between atoms: C10_16  and  O4_17 
REMARK    9  A    between atoms: N1_19  and  C12_20 
REMARK   10  A    between atoms: C12_20  and  C13_21 
REMARK   11  A    between atoms: C13_21  and  C14_22 
REMARK       I    between atoms: N2_26  and  C18_27 
REMARK   12  A    between atoms: C18_27  and  C19_29 
REMARK   13  A    between atoms: C23_34  and  C24_35 
REMARK   14  A    between atoms: C24_35  and  C25_36 
ROOT
HETATM    1  C12 UNL     1      20.088  32.049  13.759  1.00  0.00     0.121 C 
ENDROOT
BRANCH   1   2
HETATM    2  N1  UNL     1      20.811  30.831  13.735  1.00  0.00    -0.379 N 
HETATM    3  C6  UNL     1      20.446  29.899  12.685  1.00  0.00     0.113 C 
HETATM    4  C7  UNL     1      19.674  28.740  13.174  1.00  0.00     0.172 C 
HETATM    5  C8  UNL     1      19.198  28.904  14.622  1.00  0.00     0.181 C 
HETATM    6  C9  UNL     1      20.422  29.127  15.457  1.00  0.00     0.198 C 
HETATM    7  C10 UNL     1      21.249  30.281  14.949  1.00  0.00     0.250 C 
BRANCH   3   8
HETATM    8  C5  UNL     1      21.558  29.640  11.746  1.00  0.00     0.028 C 
BRANCH   8   9
HETATM    9  C4  UNL     1      22.205  28.348  11.593  1.00  0.00     0.002 C 
BRANCH   9  10
HETATM   10  C3  UNL     1      23.338  27.947  12.456  1.00  0.00    -0.000 C 
BRANCH  10  11
HETATM   11  C2  UNL     1      24.556  27.526  11.606  1.00  0.00    -0.005 C 
HETATM   12  C1  UNL     1      24.613  26.016  11.707  1.00  0.00     0.005 C 
ENDBRANCH  10  11
ENDBRANCH   9  10
ENDBRANCH   8   9
ENDBRANCH   3   8
BRANCH   4  13
HETATM   13  O1  UNL     1      18.448  28.645  12.422  1.00  0.00    -0.391 OA
ATOM     14  H1  UNL     1      17.782  28.246  12.969  1.00  0.00     0.210 HD
ENDBRANCH   4  13
BRANCH   5  15
HETATM   15  O2  UNL     1      18.688  27.639  14.980  1.00  0.00    -0.390 OA
ATOM     16  H2  UNL     1      19.427  27.177  15.358  1.00  0.00     0.210 HD
ENDBRANCH   5  15
BRANCH   6  17
HETATM   17  O3  UNL     1      20.038  29.313  16.787  1.00  0.00    -0.389 OA
ATOM     18  H3  UNL     1      20.809  29.506  17.308  1.00  0.00     0.210 HD
ENDBRANCH   6  17
BRANCH   7  19
HETATM   19  O4  UNL     1      21.204  31.273  15.928  1.00  0.00    -0.369 OA
HETATM   20  C11 UNL     1      22.459  31.852  16.132  1.00  0.00     0.204 C 
ENDBRANCH   7  19
ENDBRANCH   1   2
BRANCH   1  21
HETATM   21  C13 UNL     1      18.629  31.812  13.847  1.00  0.00     0.029 C 
BRANCH  21  22
HETATM   22  C14 UNL     1      17.914  32.564  14.943  1.00  0.00    -0.040 C 
HETATM   23  C15 UNL     1      17.442  33.888  14.329  1.00  0.00     0.015 C 
HETATM   24  C16 UNL     1      18.765  32.892  16.111  1.00  0.00     0.029 C 
HETATM   25  C17 UNL     1      17.913  33.077  17.341  1.00  0.00     0.126 C 
HETATM   26  N2  UNL     1      16.549  33.413  17.091  1.00  0.00    -0.352 N 
HETATM   27  C18 UNL     1      15.946  34.556  17.660  1.00  0.00     0.224 C 
HETATM   28  C27 UNL     1      15.770  32.543  16.235  1.00  0.00     0.126 C 
HETATM   29  O5  UNL     1      14.725  34.780  17.354  1.00  0.00    -0.273 OA
HETATM   30  C28 UNL     1      16.657  31.785  15.271  1.00  0.00     0.029 C 
BRANCH  27  31
HETATM   31  C19 UNL     1      16.586  35.511  18.571  1.00  0.00     0.089 C 
HETATM   32  C20 UNL     1      15.589  36.517  19.082  1.00  0.00     0.022 C 
HETATM   33  C21 UNL     1      15.746  37.731  18.200  1.00  0.00     0.079 C 
HETATM   34  C22 UNL     1      16.852  37.445  17.253  1.00  0.00     0.132 C 
HETATM   35  O6  UNL     1      17.037  38.030  16.211  1.00  0.00    -0.298 OA
HETATM   36  C23 UNL     1      17.634  36.330  17.859  1.00  0.00     0.068 C 
BRANCH  36  37
HETATM   37  C24 UNL     1      18.650  36.884  18.830  1.00  0.00     0.013 C 
BRANCH  37  38
HETATM   38  C25 UNL     1      19.923  37.177  18.070  1.00  0.00    -0.004 C 
HETATM   39  C26 UNL     1      20.557  35.911  17.550  1.00  0.00     0.005 C 
ENDBRANCH  37  38
ENDBRANCH  36  37
ENDBRANCH  27  31
ENDBRANCH  21  22
ENDBRANCH   1  21
TORSDOF 14
ENDMDL
