MODEL 1
REMARK VINA RESULT: -8.150962545      0.000      0.000
REMARK  13 active torsions:
REMARK  status: ('A' for Active; 'I' for Inactive)
REMARK    1  A    between atoms: N1_7  and  C7_8 
REMARK    2  A    between atoms: C8_11  and  N3_12 
REMARK    3  A    between atoms: N3_12  and  C9_14 
REMARK    4  A    between atoms: C13_18  and  N4_19 
REMARK    5  A    between atoms: N4_19  and  C14_21 
REMARK    6  A    between atoms: C14_21  and  C15_22 
REMARK    7  A    between atoms: C15_22  and  C16_23 
REMARK    8  A    between atoms: C16_23  and  N5_24 
REMARK    9  A    between atoms: N6_27  and  C19_28 
REMARK   10  A    between atoms: C19_28  and  C20_29 
REMARK   11  A    between atoms: C20_29  and  C21_30 
REMARK   12  A    between atoms: C21_30  and  N7_31 
REMARK   13  A    between atoms: N7_31  and  C22_33 
ROOT
HETATM    1  C1  UNL     1      17.062  31.681  15.880  1.00  0.00     0.012 C 
HETATM    2  C2  UNL     1      16.310  32.617  16.067  1.00  0.00    -0.111 C 
HETATM    3  C3  UNL     1      15.409  33.761  16.273  1.00  0.00     0.083 C 
HETATM    4  C4  UNL     1      15.090  33.831  17.743  1.00  0.00     0.020 C 
HETATM    5  C5  UNL     1      14.584  35.192  18.159  1.00  0.00     0.022 C 
HETATM    6  C6  UNL     1      15.505  36.322  17.765  1.00  0.00     0.141 C 
HETATM    7  N1  UNL     1      16.563  35.818  16.916  1.00  0.00    -0.216 N 
HETATM    8  C26 UNL     1      16.171  34.981  15.801  1.00  0.00     0.158 C 
ENDROOT
BRANCH   7   9
HETATM    9  C7  UNL     1      17.899  36.175  17.222  1.00  0.00     0.683 A 
HETATM   10  N2  UNL     1      18.365  37.435  17.162  1.00  0.00    -0.177 N 
HETATM   11  C8  UNL     1      19.631  37.777  17.460  1.00  0.00     0.120 A 
ATOM     12  H2  UNL     1      17.722  38.173  16.873  1.00  0.00     0.185 HD
HETATM   13  C12 UNL     1      20.473  36.734  17.851  1.00  0.00     0.097 A 
HETATM   14  C13 UNL     1      20.026  35.432  17.922  1.00  0.00     0.120 A 
HETATM   15  N8  UNL     1      18.739  35.203  17.600  1.00  0.00    -0.177 N 
ATOM     16  H8  UNL     1      18.388  34.246  17.647  1.00  0.00     0.185 HD
BRANCH  11  17
HETATM   17  N3  UNL     1      20.078  38.991  17.395  1.00  0.00    -0.372 N 
ATOM     18  H3  UNL     1      20.599  39.417  18.162  1.00  0.00     0.161 HD
BRANCH  17  19
HETATM   19  C9  UNL     1      19.793  39.717  16.155  1.00  0.00     0.075 C 
HETATM   20  C10 UNL     1      20.967  39.636  15.203  1.00  0.00     0.031 C 
HETATM   21  C11 UNL     1      19.414  41.125  16.481  1.00  0.00     0.031 C 
ENDBRANCH  17  19
ENDBRANCH  11  17
BRANCH  14  22
HETATM   22  N4  UNL     1      20.873  34.363  18.325  1.00  0.00    -0.376 N 
ATOM     23  H4  UNL     1      20.491  33.451  18.577  1.00  0.00     0.161 HD
BRANCH  22  24
HETATM   24  C14 UNL     1      22.298  34.617  18.362  1.00  0.00     0.123 C 
BRANCH  24  25
HETATM   25  C15 UNL     1      22.937  33.626  17.378  1.00  0.00     0.050 C 
BRANCH  25  26
HETATM   26  C16 UNL     1      22.259  32.286  17.454  1.00  0.00     0.274 C 
BRANCH  26  27
HETATM   27  N5  UNL     1      22.061  31.772  16.140  1.00  0.00     0.091 N 
HETATM   28  C17 UNL     1      20.707  31.565  15.741  1.00  0.00     0.302 C 
HETATM   29  C18 UNL     1      20.392  32.135  14.379  1.00  0.00     0.302 C 
HETATM   30  N6  UNL     1      21.355  31.758  13.363  1.00  0.00     0.091 N 
HETATM   31  C24 UNL     1      22.696  31.712  13.861  1.00  0.00     0.302 C 
HETATM   32  C25 UNL     1      22.842  32.484  15.183  1.00  0.00     0.302 C 
BRANCH  30  33
HETATM   33  C19 UNL     1      20.896  30.587  12.695  1.00  0.00     0.274 C 
BRANCH  33  34
HETATM   34  C20 UNL     1      21.696  29.349  12.909  1.00  0.00     0.050 C 
BRANCH  34  35
HETATM   35  C21 UNL     1      21.008  28.314  13.736  1.00  0.00     0.122 C 
BRANCH  35  36
HETATM   36  N7  UNL     1      20.223  27.398  12.947  1.00  0.00    -0.385 N 
ATOM     37  H7  UNL     1      20.686  26.599  12.514  1.00  0.00     0.160 HD
BRANCH  36  38
HETATM   38  C22 UNL     1      18.840  27.569  12.755  1.00  0.00     0.069 C 
HETATM   39  C23 UNL     1      17.899  27.499  13.938  1.00  0.00     0.081 C 
HETATM   40  S1  UNL     1      18.119  27.856  11.325  1.00  0.00    -0.066 SA
ENDBRANCH  36  38
ENDBRANCH  35  36
ENDBRANCH  34  35
ENDBRANCH  33  34
ENDBRANCH  30  33
ENDBRANCH  26  27
ENDBRANCH  25  26
ENDBRANCH  24  25
ENDBRANCH  22  24
ENDBRANCH  14  22
ENDBRANCH   7   9
TORSDOF 13
ENDMDL
MODEL 2
REMARK VINA RESULT: -8.113022625      1.290      1.836
REMARK  13 active torsions:
REMARK  status: ('A' for Active; 'I' for Inactive)
REMARK    1  A    between atoms: N1_7  and  C7_8 
REMARK    2  A    between atoms: C8_11  and  N3_12 
REMARK    3  A    between atoms: N3_12  and  C9_14 
REMARK    4  A    between atoms: C13_18  and  N4_19 
REMARK    5  A    between atoms: N4_19  and  C14_21 
REMARK    6  A    between atoms: C14_21  and  C15_22 
REMARK    7  A    between atoms: C15_22  and  C16_23 
REMARK    8  A    between atoms: C16_23  and  N5_24 
REMARK    9  A    between atoms: N6_27  and  C19_28 
REMARK   10  A    between atoms: C19_28  and  C20_29 
REMARK   11  A    between atoms: C20_29  and  C21_30 
REMARK   12  A    between atoms: C21_30  and  N7_31 
REMARK   13  A    between atoms: N7_31  and  C22_33 
ROOT
HETATM    1  C1  UNL     1      16.799  31.376  15.930  1.00  0.00     0.012 C 
HETATM    2  C2  UNL     1      16.178  32.412  16.061  1.00  0.00    -0.111 C 
HETATM    3  C3  UNL     1      15.438  33.676  16.199  1.00  0.00     0.083 C 
HETATM    4  C4  UNL     1      15.093  33.845  17.656  1.00  0.00     0.020 C 
HETATM    5  C5  UNL     1      14.769  35.277  18.008  1.00  0.00     0.022 C 
HETATM    6  C6  UNL     1      15.846  36.255  17.604  1.00  0.00     0.141 C 
HETATM    7  N1  UNL     1      16.847  35.580  16.807  1.00  0.00    -0.216 N 
HETATM    8  C26 UNL     1      16.373  34.761  15.710  1.00  0.00     0.158 C 
ENDROOT
BRANCH   7   9
HETATM    9  C7  UNL     1      18.211  35.762  17.141  1.00  0.00     0.683 A 
HETATM   10  N2  UNL     1      18.777  36.968  17.323  1.00  0.00    -0.177 N 
HETATM   11  C8  UNL     1      20.070  37.143  17.649  1.00  0.00     0.120 A 
ATOM     12  H2  UNL     1      18.193  37.797  17.207  1.00  0.00     0.185 HD
HETATM   13  C12 UNL     1      20.828  35.980  17.799  1.00  0.00     0.097 A 
HETATM   14  C13 UNL     1      20.277  34.729  17.619  1.00  0.00     0.120 A 
HETATM   15  N8  UNL     1      18.973  34.672  17.293  1.00  0.00    -0.177 N 
ATOM     16  H8  UNL     1      18.546  33.755  17.155  1.00  0.00     0.185 HD
BRANCH  11  17
HETATM   17  N3  UNL     1      20.615  38.306  17.818  1.00  0.00    -0.372 N 
ATOM     18  H3  UNL     1      20.397  38.894  18.623  1.00  0.00     0.161 HD
BRANCH  17  19
HETATM   19  C9  UNL     1      21.563  38.729  16.784  1.00  0.00     0.075 C 
HETATM   20  C10 UNL     1      22.759  39.420  17.403  1.00  0.00     0.031 C 
HETATM   21  C11 UNL     1      20.857  39.587  15.785  1.00  0.00     0.031 C 
ENDBRANCH  17  19
ENDBRANCH  11  17
BRANCH  14  22
HETATM   22  N4  UNL     1      21.039  33.538  17.775  1.00  0.00    -0.376 N 
ATOM     23  H4  UNL     1      20.642  32.711  18.220  1.00  0.00     0.161 HD
BRANCH  22  24
HETATM   24  C14 UNL     1      22.399  33.544  17.276  1.00  0.00     0.123 C 
BRANCH  24  25
HETATM   25  C15 UNL     1      22.599  32.201  16.559  1.00  0.00     0.050 C 
BRANCH  25  26
HETATM   26  C16 UNL     1      22.515  32.374  15.068  1.00  0.00     0.274 C 
BRANCH  26  27
HETATM   27  N5  UNL     1      21.495  31.530  14.542  1.00  0.00     0.091 N 
HETATM   28  C17 UNL     1      20.173  32.067  14.532  1.00  0.00     0.302 C 
HETATM   29  C18 UNL     1      19.469  31.897  13.208  1.00  0.00     0.302 C 
HETATM   30  N6  UNL     1      19.544  30.547  12.687  1.00  0.00     0.091 N 
HETATM   31  C24 UNL     1      20.806  29.922  12.947  1.00  0.00     0.302 C 
HETATM   32  C25 UNL     1      21.891  30.953  13.299  1.00  0.00     0.302 C 
BRANCH  30  33
HETATM   33  C19 UNL     1      18.391  29.821  13.102  1.00  0.00     0.274 C 
BRANCH  33  34
HETATM   34  C20 UNL     1      18.639  28.583  13.892  1.00  0.00     0.050 C 
BRANCH  34  35
HETATM   35  C21 UNL     1      17.696  27.467  13.588  1.00  0.00     0.122 C 
BRANCH  35  36
HETATM   36  N7  UNL     1      18.312  26.401  12.837  1.00  0.00    -0.385 N 
ATOM     37  H7  UNL     1      18.299  25.456  13.220  1.00  0.00     0.160 HD
BRANCH  36  38
HETATM   38  C22 UNL     1      18.930  26.621  11.593  1.00  0.00     0.069 C 
HETATM   39  C23 UNL     1      18.115  27.128  10.424  1.00  0.00     0.081 C 
HETATM   40  S1  UNL     1      20.508  26.384  11.273  1.00  0.00    -0.066 SA
ENDBRANCH  36  38
ENDBRANCH  35  36
ENDBRANCH  34  35
ENDBRANCH  33  34
ENDBRANCH  30  33
ENDBRANCH  26  27
ENDBRANCH  25  26
ENDBRANCH  24  25
ENDBRANCH  22  24
ENDBRANCH  14  22
ENDBRANCH   7   9
TORSDOF 13
ENDMDL
MODEL 3
REMARK VINA RESULT: -8.021944465      1.061      1.588
REMARK  13 active torsions:
REMARK  status: ('A' for Active; 'I' for Inactive)
REMARK    1  A    between atoms: N1_7  and  C7_8 
REMARK    2  A    between atoms: C8_11  and  N3_12 
REMARK    3  A    between atoms: N3_12  and  C9_14 
REMARK    4  A    between atoms: C13_18  and  N4_19 
REMARK    5  A    between atoms: N4_19  and  C14_21 
REMARK    6  A    between atoms: C14_21  and  C15_22 
REMARK    7  A    between atoms: C15_22  and  C16_23 
REMARK    8  A    between atoms: C16_23  and  N5_24 
REMARK    9  A    between atoms: N6_27  and  C19_28 
REMARK   10  A    between atoms: C19_28  and  C20_29 
REMARK   11  A    between atoms: C20_29  and  C21_30 
REMARK   12  A    between atoms: C21_30  and  N7_31 
REMARK   13  A    between atoms: N7_31  and  C22_33 
ROOT
HETATM    1  C1  UNL     1      17.022  31.555  15.730  1.00  0.00     0.012 C 
HETATM    2  C2  UNL     1      16.323  32.529  15.929  1.00  0.00    -0.111 C 
HETATM    3  C3  UNL     1      15.488  33.719  16.151  1.00  0.00     0.083 C 
HETATM    4  C4  UNL     1      15.143  33.767  17.616  1.00  0.00     0.020 C 
HETATM    5  C5  UNL     1      14.710  35.144  18.062  1.00  0.00     0.022 C 
HETATM    6  C6  UNL     1      15.705  36.227  17.719  1.00  0.00     0.141 C 
HETATM    7  N1  UNL     1      16.748  35.685  16.877  1.00  0.00    -0.216 N 
HETATM    8  C26 UNL     1      16.331  34.904  15.730  1.00  0.00     0.158 C 
ENDROOT
BRANCH   7   9
HETATM    9  C7  UNL     1      18.097  35.952  17.219  1.00  0.00     0.683 A 
HETATM   10  N2  UNL     1      18.632  37.186  17.224  1.00  0.00    -0.177 N 
HETATM   11  C8  UNL     1      19.909  37.442  17.557  1.00  0.00     0.120 A 
ATOM     12  H2  UNL     1      18.036  37.971  16.961  1.00  0.00     0.185 HD
HETATM   13  C12 UNL     1      20.686  36.336  17.911  1.00  0.00     0.097 A 
HETATM   14  C13 UNL     1      20.167  35.060  17.915  1.00  0.00     0.120 A 
HETATM   15  N8  UNL     1      18.875  34.919  17.563  1.00  0.00    -0.177 N 
ATOM     16  H8  UNL     1      18.471  33.981  17.560  1.00  0.00     0.185 HD
BRANCH  11  17
HETATM   17  N3  UNL     1      20.425  38.631  17.555  1.00  0.00    -0.372 N 
ATOM     18  H3  UNL     1      20.077  39.371  18.165  1.00  0.00     0.161 HD
BRANCH  17  19
HETATM   19  C9  UNL     1      21.537  38.849  16.628  1.00  0.00     0.075 C 
HETATM   20  C10 UNL     1      22.695  39.528  17.327  1.00  0.00     0.031 C 
HETATM   21  C11 UNL     1      21.050  39.619  15.443  1.00  0.00     0.031 C 
ENDBRANCH  17  19
ENDBRANCH  11  17
BRANCH  14  22
HETATM   22  N4  UNL     1      20.946  33.927  18.279  1.00  0.00    -0.376 N 
ATOM     23  H4  UNL     1      20.668  33.319  19.048  1.00  0.00     0.161 HD
BRANCH  22  24
HETATM   24  C14 UNL     1      22.151  33.671  17.516  1.00  0.00     0.123 C 
BRANCH  24  25
HETATM   25  C15 UNL     1      21.799  32.556  16.520  1.00  0.00     0.050 C 
BRANCH  25  26
HETATM   26  C16 UNL     1      21.671  33.105  15.127  1.00  0.00     0.274 C 
BRANCH  26  27
HETATM   27  N5  UNL     1      21.631  32.033  14.189  1.00  0.00     0.091 N 
HETATM   28  C17 UNL     1      22.187  30.793  14.623  1.00  0.00     0.302 C 
HETATM   29  C18 UNL     1      21.290  29.610  14.352  1.00  0.00     0.302 C 
HETATM   30  N6  UNL     1      20.787  29.570  12.993  1.00  0.00     0.091 N 
HETATM   31  C24 UNL     1      20.483  30.870  12.477  1.00  0.00     0.302 C 
HETATM   32  C25 UNL     1      20.338  31.910  13.600  1.00  0.00     0.302 C 
BRANCH  30  33
HETATM   33  C19 UNL     1      21.654  28.769  12.197  1.00  0.00     0.274 C 
BRANCH  33  34
HETATM   34  C20 UNL     1      21.502  27.293  12.337  1.00  0.00     0.050 C 
BRANCH  34  35
HETATM   35  C21 UNL     1      20.473  26.699  11.433  1.00  0.00     0.122 C 
BRANCH  35  36
HETATM   36  N7  UNL     1      19.264  26.331  12.127  1.00  0.00    -0.385 N 
ATOM     37  H7  UNL     1      19.119  25.353  12.380  1.00  0.00     0.160 HD
BRANCH  36  38
HETATM   38  C22 UNL     1      18.277  27.274  12.465  1.00  0.00     0.069 C 
HETATM   39  C23 UNL     1      17.832  27.418  13.904  1.00  0.00     0.081 C 
HETATM   40  S1  UNL     1      17.540  28.278  11.418  1.00  0.00    -0.066 SA
ENDBRANCH  36  38
ENDBRANCH  35  36
ENDBRANCH  34  35
ENDBRANCH  33  34
ENDBRANCH  30  33
ENDBRANCH  26  27
ENDBRANCH  25  26
ENDBRANCH  24  25
ENDBRANCH  22  24
ENDBRANCH  14  22
ENDBRANCH   7   9
TORSDOF 13
ENDMDL
MODEL 4
REMARK VINA RESULT: -8.006614124      2.277      2.953
REMARK  13 active torsions:
REMARK  status: ('A' for Active; 'I' for Inactive)
REMARK    1  A    between atoms: N1_7  and  C7_8 
REMARK    2  A    between atoms: C8_11  and  N3_12 
REMARK    3  A    between atoms: N3_12  and  C9_14 
REMARK    4  A    between atoms: C13_18  and  N4_19 
REMARK    5  A    between atoms: N4_19  and  C14_21 
REMARK    6  A    between atoms: C14_21  and  C15_22 
REMARK    7  A    between atoms: C15_22  and  C16_23 
REMARK    8  A    between atoms: C16_23  and  N5_24 
REMARK    9  A    between atoms: N6_27  and  C19_28 
REMARK   10  A    between atoms: C19_28  and  C20_29 
REMARK   11  A    between atoms: C20_29  and  C21_30 
REMARK   12  A    between atoms: C21_30  and  N7_31 
REMARK   13  A    between atoms: N7_31  and  C22_33 
ROOT
HETATM    1  C1  UNL     1      16.968  31.248  15.709  1.00  0.00     0.012 C 
HETATM    2  C2  UNL     1      16.334  32.274  15.857  1.00  0.00    -0.111 C 
HETATM    3  C3  UNL     1      15.577  33.525  16.017  1.00  0.00     0.083 C 
HETATM    4  C4  UNL     1      15.194  33.644  17.468  1.00  0.00     0.020 C 
HETATM    5  C5  UNL     1      14.847  35.061  17.859  1.00  0.00     0.022 C 
HETATM    6  C6  UNL     1      15.924  36.062  17.514  1.00  0.00     0.141 C 
HETATM    7  N1  UNL     1      16.951  35.422  16.721  1.00  0.00    -0.216 N 
HETATM    8  C26 UNL     1      16.513  34.634  15.586  1.00  0.00     0.158 C 
ENDROOT
BRANCH   7   9
HETATM    9  C7  UNL     1      18.304  35.606  17.096  1.00  0.00     0.683 A 
HETATM   10  N2  UNL     1      18.848  36.810  17.349  1.00  0.00    -0.177 N 
HETATM   11  C8  UNL     1      20.131  36.986  17.713  1.00  0.00     0.120 A 
ATOM     12  H2  UNL     1      18.255  37.635  17.258  1.00  0.00     0.185 HD
HETATM   13  C12 UNL     1      20.902  35.827  17.825  1.00  0.00     0.097 A 
HETATM   14  C13 UNL     1      20.374  34.579  17.574  1.00  0.00     0.120 A 
HETATM   15  N8  UNL     1      19.078  34.520  17.214  1.00  0.00    -0.177 N 
ATOM     16  H8  UNL     1      18.667  33.605  17.023  1.00  0.00     0.185 HD
BRANCH  11  17
HETATM   17  N3  UNL     1      20.654  38.147  17.950  1.00  0.00    -0.372 N 
ATOM     18  H3  UNL     1      20.376  38.712  18.752  1.00  0.00     0.161 HD
BRANCH  17  19
HETATM   19  C9  UNL     1      21.671  38.600  16.998  1.00  0.00     0.075 C 
HETATM   20  C10 UNL     1      22.811  39.290  17.717  1.00  0.00     0.031 C 
HETATM   21  C11 UNL     1      21.030  39.472  15.967  1.00  0.00     0.031 C 
ENDBRANCH  17  19
ENDBRANCH  11  17
BRANCH  14  22
HETATM   22  N4  UNL     1      21.149  33.392  17.690  1.00  0.00    -0.376 N 
ATOM     23  H4  UNL     1      20.870  32.639  18.318  1.00  0.00     0.161 HD
BRANCH  22  24
HETATM   24  C14 UNL     1      22.348  33.295  16.884  1.00  0.00     0.123 C 
BRANCH  24  25
HETATM   25  C15 UNL     1      22.312  31.906  16.229  1.00  0.00     0.050 C 
BRANCH  25  26
HETATM   26  C16 UNL     1      20.904  31.387  16.154  1.00  0.00     0.274 C 
BRANCH  26  27
HETATM   27  N5  UNL     1      20.777  30.494  15.051  1.00  0.00     0.091 N 
HETATM   28  C17 UNL     1      21.936  30.331  14.234  1.00  0.00     0.302 C 
HETATM   29  C18 UNL     1      22.270  28.887  13.952  1.00  0.00     0.302 C 
HETATM   30  N6  UNL     1      21.132  28.113  13.496  1.00  0.00     0.091 N 
HETATM   31  C24 UNL     1      19.913  28.483  14.149  1.00  0.00     0.302 C 
HETATM   32  C25 UNL     1      20.175  29.263  15.448  1.00  0.00     0.302 C 
BRANCH  30  33
HETATM   33  C19 UNL     1      21.105  28.117  12.072  1.00  0.00     0.274 C 
BRANCH  33  34
HETATM   34  C20 UNL     1      20.628  26.866  11.419  1.00  0.00     0.050 C 
BRANCH  34  35
HETATM   35  C21 UNL     1      21.500  25.680  11.664  1.00  0.00     0.122 C 
BRANCH  35  36
HETATM   36  N7  UNL     1      22.326  25.347  10.529  1.00  0.00    -0.385 N 
ATOM     37  H7  UNL     1      21.899  24.878   9.730  1.00  0.00     0.160 HD
BRANCH  36  38
HETATM   38  C22 UNL     1      23.699  25.646  10.489  1.00  0.00     0.069 C 
HETATM   39  C23 UNL     1      24.486  25.406   9.219  1.00  0.00     0.081 C 
HETATM   40  S1  UNL     1      24.564  26.259  11.722  1.00  0.00    -0.066 SA
ENDBRANCH  36  38
ENDBRANCH  35  36
ENDBRANCH  34  35
ENDBRANCH  33  34
ENDBRANCH  30  33
ENDBRANCH  26  27
ENDBRANCH  25  26
ENDBRANCH  24  25
ENDBRANCH  22  24
ENDBRANCH  14  22
ENDBRANCH   7   9
TORSDOF 13
ENDMDL
MODEL 5
REMARK VINA RESULT: -7.981467149      2.945      9.445
REMARK  13 active torsions:
REMARK  status: ('A' for Active; 'I' for Inactive)
REMARK    1  A    between atoms: N1_7  and  C7_8 
REMARK    2  A    between atoms: C8_11  and  N3_12 
REMARK    3  A    between atoms: N3_12  and  C9_14 
REMARK    4  A    between atoms: C13_18  and  N4_19 
REMARK    5  A    between atoms: N4_19  and  C14_21 
REMARK    6  A    between atoms: C14_21  and  C15_22 
REMARK    7  A    between atoms: C15_22  and  C16_23 
REMARK    8  A    between atoms: C16_23  and  N5_24 
REMARK    9  A    between atoms: N6_27  and  C19_28 
REMARK   10  A    between atoms: C19_28  and  C20_29 
REMARK   11  A    between atoms: C20_29  and  C21_30 
REMARK   12  A    between atoms: C21_30  and  N7_31 
REMARK   13  A    between atoms: N7_31  and  C22_33 
ROOT
HETATM    1  C1  UNL     1      17.960  30.575  13.588  1.00  0.00     0.012 C 
HETATM    2  C2  UNL     1      17.585  29.550  13.054  1.00  0.00    -0.111 C 
HETATM    3  C3  UNL     1      17.139  28.296  12.427  1.00  0.00     0.083 C 
HETATM    4  C4  UNL     1      17.221  28.479  10.934  1.00  0.00     0.020 C 
HETATM    5  C5  UNL     1      17.255  27.163  10.193  1.00  0.00     0.022 C 
HETATM    6  C6  UNL     1      18.343  26.232  10.671  1.00  0.00     0.141 C 
HETATM    7  N1  UNL     1      18.968  26.776  11.858  1.00  0.00    -0.216 N 
HETATM    8  C26 UNL     1      18.089  27.225  12.918  1.00  0.00     0.158 C 
ENDROOT
BRANCH   7   9
HETATM    9  C7  UNL     1      20.382  26.831  11.909  1.00  0.00     0.683 A 
HETATM   10  N2  UNL     1      21.184  25.937  11.304  1.00  0.00    -0.177 N 
HETATM   11  C8  UNL     1      22.527  25.993  11.345  1.00  0.00     0.120 A 
ATOM     12  H2  UNL     1      20.749  25.174  10.786  1.00  0.00     0.185 HD
HETATM   13  C12 UNL     1      23.076  27.056  12.066  1.00  0.00     0.097 A 
HETATM   14  C13 UNL     1      22.281  27.989  12.697  1.00  0.00     0.120 A 
HETATM   15  N8  UNL     1      20.948  27.835  12.591  1.00  0.00    -0.177 N 
ATOM     16  H8  UNL     1      20.342  28.515  13.051  1.00  0.00     0.185 HD
BRANCH  11  17
HETATM   17  N3  UNL     1      23.297  25.127  10.767  1.00  0.00    -0.372 N 
ATOM     18  H3  UNL     1      23.339  24.154  11.069  1.00  0.00     0.161 HD
BRANCH  17  19
HETATM   19  C9  UNL     1      24.105  25.627   9.652  1.00  0.00     0.075 C 
HETATM   20  C10 UNL     1      24.089  24.650   8.496  1.00  0.00     0.031 C 
HETATM   21  C11 UNL     1      25.488  25.923  10.135  1.00  0.00     0.031 C 
ENDBRANCH  17  19
ENDBRANCH  11  17
BRANCH  14  22
HETATM   22  N4  UNL     1      22.829  29.078  13.428  1.00  0.00    -0.376 N 
ATOM     23  H4  UNL     1      23.822  29.306  13.374  1.00  0.00     0.161 HD
BRANCH  22  24
HETATM   24  C14 UNL     1      21.925  29.853  14.252  1.00  0.00     0.123 C 
BRANCH  24  25
HETATM   25  C15 UNL     1      21.774  31.216  13.560  1.00  0.00     0.050 C 
BRANCH  25  26
HETATM   26  C16 UNL     1      22.707  32.227  14.162  1.00  0.00     0.274 C 
BRANCH  26  27
HETATM   27  N5  UNL     1      22.003  33.030  15.106  1.00  0.00     0.091 N 
HETATM   28  C17 UNL     1      20.580  33.009  15.016  1.00  0.00     0.302 C 
HETATM   29  C18 UNL     1      19.899  32.791  16.345  1.00  0.00     0.302 C 
HETATM   30  N6  UNL     1      20.396  33.661  17.393  1.00  0.00     0.091 N 
HETATM   31  C24 UNL     1      21.807  33.885  17.305  1.00  0.00     0.302 C 
HETATM   32  C25 UNL     1      22.499  32.828  16.429  1.00  0.00     0.302 C 
BRANCH  30  33
HETATM   33  C19 UNL     1      19.580  34.827  17.458  1.00  0.00     0.274 C 
BRANCH  33  34
HETATM   34  C20 UNL     1      18.583  34.873  18.564  1.00  0.00     0.050 C 
BRANCH  34  35
HETATM   35  C21 UNL     1      17.189  35.160  18.115  1.00  0.00     0.122 C 
BRANCH  35  36
HETATM   36  N7  UNL     1      16.453  33.967  17.776  1.00  0.00    -0.385 N 
ATOM     37  H7  UNL     1      16.137  33.353  18.527  1.00  0.00     0.160 HD
BRANCH  36  38
HETATM   38  C22 UNL     1      16.157  33.622  16.445  1.00  0.00     0.069 C 
HETATM   39  C23 UNL     1      15.459  32.314  16.142  1.00  0.00     0.081 C 
HETATM   40  S1  UNL     1      16.496  34.534  15.141  1.00  0.00    -0.066 SA
ENDBRANCH  36  38
ENDBRANCH  35  36
ENDBRANCH  34  35
ENDBRANCH  33  34
ENDBRANCH  30  33
ENDBRANCH  26  27
ENDBRANCH  25  26
ENDBRANCH  24  25
ENDBRANCH  22  24
ENDBRANCH  14  22
ENDBRANCH   7   9
TORSDOF 13
ENDMDL
