MODEL 1
REMARK VINA RESULT: -3.880585882      0.000      0.000
REMARK  9 active torsions:
REMARK  status: ('A' for Active; 'I' for Inactive)
REMARK    1  A    between atoms: C2_2  and  C3_3 
REMARK    2  A    between atoms: C3_3  and  C4_4 
REMARK    3  A    between atoms: C4_4  and  C5_5 
REMARK    4  A    between atoms: C5_5  and  C6_6 
REMARK    5  A    between atoms: C8_11  and  C9_12 
REMARK    6  A    between atoms: C9_12  and  C10_13 
REMARK    7  A    between atoms: C14_20  and  C15_21 
REMARK    8  A    between atoms: C24_35  and  C25_36 
REMARK    9  A    between atoms: C25_36  and  C26_37 
ROOT
HETATM    1  C6  UNL     1      21.668  38.063  15.995  1.00  0.00     0.097 C 
HETATM    2  N1  UNL     1      22.373  39.268  16.398  1.00  0.00    -0.354 N 
ATOM      3  H1  UNL     1      23.206  39.490  15.854  1.00  0.00     0.162 HD
HETATM    4  C7  UNL     1      22.069  40.166  17.425  1.00  0.00     0.240 C 
HETATM    5  O1  UNL     1      21.995  41.389  17.127  1.00  0.00    -0.271 OA
HETATM    6  C8  UNL     1      21.820  39.861  18.867  1.00  0.00     0.177 C 
HETATM    7  N2  UNL     1      20.491  40.043  19.325  1.00  0.00    -0.346 N 
ATOM      8  H2  UNL     1      20.325  39.631  20.243  1.00  0.00     0.163 HD
HETATM    9  C13 UNL     1      19.358  40.667  18.790  1.00  0.00     0.241 C 
HETATM   10  O2  UNL     1      18.917  41.744  19.337  1.00  0.00    -0.271 OA
HETATM   11  C14 UNL     1      18.530  40.260  17.627  1.00  0.00     0.180 C 
HETATM   12  N3  UNL     1      17.426  39.460  18.197  1.00  0.00    -0.346 N 
ATOM     13  H3  UNL     1      16.598  39.964  18.515  1.00  0.00     0.163 HD
HETATM   14  C18 UNL     1      17.424  38.064  18.337  1.00  0.00     0.241 C 
HETATM   15  O3  UNL     1      17.280  37.547  19.510  1.00  0.00    -0.271 OA
HETATM   16  C19 UNL     1      17.577  37.114  17.207  1.00  0.00     0.179 C 
HETATM   17  C20 UNL     1      16.361  37.107  16.293  1.00  0.00     0.037 C 
HETATM   18  C21 UNL     1      15.482  36.011  16.804  1.00  0.00     0.022 C 
HETATM   19  C22 UNL     1      16.237  35.377  17.949  1.00  0.00     0.127 C 
HETATM   20  N4  UNL     1      17.622  35.733  17.691  1.00  0.00    -0.337 N 
HETATM   21  C23 UNL     1      18.859  35.058  17.816  1.00  0.00     0.243 C 
HETATM   22  O4  UNL     1      19.071  34.417  18.898  1.00  0.00    -0.271 OA
HETATM   23  C24 UNL     1      19.946  35.019  16.804  1.00  0.00     0.177 C 
HETATM   24  N5  UNL     1      21.230  35.085  17.471  1.00  0.00    -0.347 N 
ATOM     25  H5  UNL     1      21.408  34.369  18.176  1.00  0.00     0.163 HD
HETATM   26  C29 UNL     1      22.258  36.016  17.263  1.00  0.00     0.224 C 
HETATM   27  O5  UNL     1      23.062  36.177  18.233  1.00  0.00    -0.273 OA
HETATM   28  C30 UNL     1      22.501  36.824  16.036  1.00  0.00     0.096 C 
HETATM   29  C31 UNL     1      22.462  35.937  14.838  1.00  0.00     0.022 C 
ENDROOT
BRANCH   1  30
HETATM   30  C5  UNL     1      20.956  38.330  14.688  1.00  0.00     0.026 C 
BRANCH  30  31
HETATM   31  C4  UNL     1      21.267  39.638  14.056  1.00  0.00     0.002 C 
BRANCH  31  32
HETATM   32  C3  UNL     1      21.826  39.485  12.645  1.00  0.00    -0.000 C 
BRANCH  32  33
HETATM   33  C2  UNL     1      22.793  40.559  12.269  1.00  0.00    -0.005 C 
HETATM   34  C1  UNL     1      22.952  41.453  13.505  1.00  0.00     0.005 C 
ENDBRANCH  32  33
ENDBRANCH  31  32
ENDBRANCH  30  31
ENDBRANCH   1  30
BRANCH   6  35
HETATM   35  C9  UNL     1      22.907  40.519  19.698  1.00  0.00     0.038 C 
BRANCH  35  36
HETATM   36  C10 UNL     1      24.059  39.692  20.101  1.00  0.00    -0.020 C 
HETATM   37  C11 UNL     1      25.302  40.447  19.535  1.00  0.00     0.009 C 
HETATM   38  C12 UNL     1      24.336  39.665  21.600  1.00  0.00     0.009 C 
ENDBRANCH  35  36
ENDBRANCH   6  35
BRANCH  23  39
HETATM   39  C25 UNL     1      19.886  33.608  16.210  1.00  0.00     0.038 C 
BRANCH  39  40
HETATM   40  C26 UNL     1      18.503  33.088  16.035  1.00  0.00    -0.020 C 
HETATM   41  C27 UNL     1      18.614  31.559  16.141  1.00  0.00     0.009 C 
HETATM   42  C28 UNL     1      17.879  33.388  14.710  1.00  0.00     0.009 C 
ENDBRANCH  39  40
ENDBRANCH  23  39
BRANCH  11  43
HETATM   43  C15 UNL     1      17.840  41.440  17.001  1.00  0.00     0.009 C 
HETATM   44  C16 UNL     1      16.581  40.922  16.294  1.00  0.00     0.012 C 
HETATM   45  C17 UNL     1      18.631  42.286  16.089  1.00  0.00     0.012 C 
ENDBRANCH  11  43
TORSDOF 9
ENDMDL
MODEL 2
REMARK VINA RESULT: -3.663792463     12.604     17.774
REMARK  9 active torsions:
REMARK  status: ('A' for Active; 'I' for Inactive)
REMARK    1  A    between atoms: C2_2  and  C3_3 
REMARK    2  A    between atoms: C3_3  and  C4_4 
REMARK    3  A    between atoms: C4_4  and  C5_5 
REMARK    4  A    between atoms: C5_5  and  C6_6 
REMARK    5  A    between atoms: C8_11  and  C9_12 
REMARK    6  A    between atoms: C9_12  and  C10_13 
REMARK    7  A    between atoms: C14_20  and  C15_21 
REMARK    8  A    between atoms: C24_35  and  C25_36 
REMARK    9  A    between atoms: C25_36  and  C26_37 
ROOT
HETATM    1  C6  UNL     1      18.613  25.720   7.075  1.00  0.00     0.097 C 
HETATM    2  N1  UNL     1      18.006  24.885   6.052  1.00  0.00    -0.354 N 
ATOM      3  H1  UNL     1      17.184  25.281   5.596  1.00  0.00     0.162 HD
HETATM    4  C7  UNL     1      18.390  23.618   5.604  1.00  0.00     0.240 C 
HETATM    5  O1  UNL     1      18.551  23.462   4.364  1.00  0.00    -0.271 OA
HETATM    6  C8  UNL     1      18.636  22.392   6.423  1.00  0.00     0.177 C 
HETATM    7  N2  UNL     1      19.980  21.951   6.504  1.00  0.00    -0.346 N 
ATOM      8  H2  UNL     1      20.128  21.249   7.228  1.00  0.00     0.163 HD
HETATM    9  C13 UNL     1      21.149  22.273   5.805  1.00  0.00     0.241 C 
HETATM   10  O2  UNL     1      21.677  21.395   5.027  1.00  0.00    -0.271 OA
HETATM   11  C14 UNL     1      21.929  23.536   5.819  1.00  0.00     0.180 C 
HETATM   12  N3  UNL     1      22.978  23.333   6.840  1.00  0.00    -0.346 N 
ATOM     13  H3  UNL     1      23.845  22.889   6.539  1.00  0.00     0.163 HD
HETATM   14  C18 UNL     1      22.877  23.702   8.191  1.00  0.00     0.241 C 
HETATM   15  O3  UNL     1      22.998  22.797   9.102  1.00  0.00    -0.271 OA
HETATM   16  C19 UNL     1      22.638  25.089   8.659  1.00  0.00     0.179 C 
HETATM   17  C20 UNL     1      23.837  25.994   8.416  1.00  0.00     0.037 C 
HETATM   18  C21 UNL     1      24.639  25.943   9.677  1.00  0.00     0.022 C 
HETATM   19  C22 UNL     1      23.855  25.070  10.630  1.00  0.00     0.127 C 
HETATM   20  N4  UNL     1      22.497  25.129  10.116  1.00  0.00    -0.337 N 
HETATM   21  C23 UNL     1      21.215  25.205  10.708  1.00  0.00     0.243 C 
HETATM   22  O4  UNL     1      20.970  24.415  11.680  1.00  0.00    -0.271 OA
HETATM   23  C24 UNL     1      20.114  26.120  10.311  1.00  0.00     0.177 C 
HETATM   24  N5  UNL     1      18.848  25.423  10.406  1.00  0.00    -0.347 N 
ATOM     25  H5  UNL     1      18.627  25.014  11.314  1.00  0.00     0.163 HD
HETATM   26  C29 UNL     1      17.889  25.244   9.398  1.00  0.00     0.224 C 
HETATM   27  O5  UNL     1      17.113  24.249   9.545  1.00  0.00    -0.273 OA
HETATM   28  C30 UNL     1      17.690  26.091   8.190  1.00  0.00     0.096 C 
HETATM   29  C31 UNL     1      17.647  27.527   8.587  1.00  0.00     0.022 C 
ENDROOT
BRANCH   1  30
HETATM   30  C5  UNL     1      19.325  26.872   6.404  1.00  0.00     0.026 C 
BRANCH  30  31
HETATM   31  C4  UNL     1      18.854  27.191   5.031  1.00  0.00     0.002 C 
BRANCH  31  32
HETATM   32  C3  UNL     1      17.913  28.390   5.002  1.00  0.00    -0.000 C 
BRANCH  32  33
HETATM   33  C2  UNL     1      16.647  28.134   4.251  1.00  0.00    -0.005 C 
HETATM   34  C1  UNL     1      15.708  29.305   4.570  1.00  0.00     0.005 C 
ENDBRANCH  32  33
ENDBRANCH  31  32
ENDBRANCH  30  31
ENDBRANCH   1  30
BRANCH   6  35
HETATM   35  C9  UNL     1      17.612  21.337   6.038  1.00  0.00     0.038 C 
BRANCH  35  36
HETATM   36  C10 UNL     1      16.190  21.642   6.279  1.00  0.00    -0.020 C 
HETATM   37  C11 UNL     1      15.492  21.368   4.910  1.00  0.00     0.009 C 
HETATM   38  C12 UNL     1      15.477  20.675   7.218  1.00  0.00     0.009 C 
ENDBRANCH  35  36
ENDBRANCH   6  35
BRANCH  23  39
HETATM   39  C25 UNL     1      20.060  27.181  11.415  1.00  0.00     0.038 C 
BRANCH  39  40
HETATM   40  C26 UNL     1      21.395  27.549  11.961  1.00  0.00    -0.020 C 
HETATM   41  C27 UNL     1      21.147  27.988  13.413  1.00  0.00     0.009 C 
HETATM   42  C28 UNL     1      22.066  28.692  11.269  1.00  0.00     0.009 C 
ENDBRANCH  39  40
ENDBRANCH  23  39
BRANCH  11  43
HETATM   43  C15 UNL     1      22.697  23.726   4.540  1.00  0.00     0.009 C 
HETATM   44  C16 UNL     1      24.118  23.197   4.769  1.00  0.00     0.012 C 
HETATM   45  C17 UNL     1      22.739  25.084   3.968  1.00  0.00     0.012 C 
ENDBRANCH  11  43
TORSDOF 9
ENDMDL
MODEL 3
REMARK VINA RESULT: -3.584829824      0.973      1.116
REMARK  9 active torsions:
REMARK  status: ('A' for Active; 'I' for Inactive)
REMARK    1  A    between atoms: C2_2  and  C3_3 
REMARK    2  A    between atoms: C3_3  and  C4_4 
REMARK    3  A    between atoms: C4_4  and  C5_5 
REMARK    4  A    between atoms: C5_5  and  C6_6 
REMARK    5  A    between atoms: C8_11  and  C9_12 
REMARK    6  A    between atoms: C9_12  and  C10_13 
REMARK    7  A    between atoms: C14_20  and  C15_21 
REMARK    8  A    between atoms: C24_35  and  C25_36 
REMARK    9  A    between atoms: C25_36  and  C26_37 
ROOT
HETATM    1  C6  UNL     1      22.181  37.554  16.086  1.00  0.00     0.097 C 
HETATM    2  N1  UNL     1      23.162  38.576  16.409  1.00  0.00    -0.354 N 
ATOM      3  H1  UNL     1      24.004  38.571  15.834  1.00  0.00     0.162 HD
HETATM    4  C7  UNL     1      23.114  39.564  17.396  1.00  0.00     0.240 C 
HETATM    5  O1  UNL     1      23.317  40.755  17.038  1.00  0.00    -0.271 OA
HETATM    6  C8  UNL     1      22.852  39.390  18.857  1.00  0.00     0.177 C 
HETATM    7  N2  UNL     1      21.621  39.900  19.338  1.00  0.00    -0.346 N 
ATOM      8  H2  UNL     1      21.396  39.580  20.280  1.00  0.00     0.163 HD
HETATM    9  C13 UNL     1      20.647  40.749  18.799  1.00  0.00     0.241 C 
HETATM   10  O2  UNL     1      20.490  41.923  19.301  1.00  0.00    -0.271 OA
HETATM   11  C14 UNL     1      19.705  40.498  17.679  1.00  0.00     0.180 C 
HETATM   12  N3  UNL     1      18.466  40.007  18.317  1.00  0.00    -0.346 N 
ATOM     13  H3  UNL     1      17.791  40.705  18.629  1.00  0.00     0.163 HD
HETATM   14  C18 UNL     1      18.142  38.658  18.529  1.00  0.00     0.241 C 
HETATM   15  O3  UNL     1      17.924  38.242  19.730  1.00  0.00    -0.271 OA
HETATM   16  C19 UNL     1      18.028  37.650  17.446  1.00  0.00     0.179 C 
HETATM   17  C20 UNL     1      16.812  37.889  16.563  1.00  0.00     0.037 C 
HETATM   18  C21 UNL     1      15.720  37.055  17.151  1.00  0.00     0.022 C 
HETATM   19  C22 UNL     1      16.345  36.312  18.309  1.00  0.00     0.127 C 
HETATM   20  N4  UNL     1      17.765  36.320  17.999  1.00  0.00    -0.337 N 
HETATM   21  C23 UNL     1      18.814  35.379  18.127  1.00  0.00     0.243 C 
HETATM   22  O4  UNL     1      18.909  34.754  19.236  1.00  0.00    -0.271 OA
HETATM   23  C24 UNL     1      19.824  35.040  17.093  1.00  0.00     0.177 C 
HETATM   24  N5  UNL     1      21.111  34.831  17.724  1.00  0.00    -0.347 N 
ATOM     25  H5  UNL     1      21.141  34.125  18.460  1.00  0.00     0.163 HD
HETATM   26  C29 UNL     1      22.320  35.483  17.443  1.00  0.00     0.224 C 
HETATM   27  O5  UNL     1      23.174  35.493  18.384  1.00  0.00    -0.273 OA
HETATM   28  C30 UNL     1      22.701  36.156  16.170  1.00  0.00     0.096 C 
HETATM   29  C31 UNL     1      22.413  35.252  15.021  1.00  0.00     0.022 C 
ENDROOT
BRANCH   1  30
HETATM   30  C5  UNL     1      21.504  37.923  14.785  1.00  0.00     0.026 C 
BRANCH  30  31
HETATM   31  C4  UNL     1      21.624  39.351  14.395  1.00  0.00     0.002 C 
BRANCH  31  32
HETATM   32  C3  UNL     1      21.644  39.542  12.882  1.00  0.00    -0.000 C 
BRANCH  32  33
HETATM   33  C2  UNL     1      22.731  40.453  12.411  1.00  0.00    -0.005 C 
HETATM   34  C1  UNL     1      22.990  41.445  13.552  1.00  0.00     0.005 C 
ENDBRANCH  32  33
ENDBRANCH  31  32
ENDBRANCH  30  31
ENDBRANCH   1  30
BRANCH   6  35
HETATM   35  C9  UNL     1      24.093  39.810  19.627  1.00  0.00     0.038 C 
BRANCH  35  36
HETATM   36  C10 UNL     1      23.977  39.952  21.090  1.00  0.00    -0.020 C 
HETATM   37  C11 UNL     1      24.961  38.886  21.667  1.00  0.00     0.009 C 
HETATM   38  C12 UNL     1      24.529  41.257  21.652  1.00  0.00     0.009 C 
ENDBRANCH  35  36
ENDBRANCH   6  35
BRANCH  23  39
HETATM   39  C25 UNL     1      19.414  33.658  16.574  1.00  0.00     0.038 C 
BRANCH  39  40
HETATM   40  C26 UNL     1      18.383  33.700  15.502  1.00  0.00    -0.020 C 
HETATM   41  C27 UNL     1      17.066  33.271  16.170  1.00  0.00     0.009 C 
HETATM   42  C28 UNL     1      18.618  32.761  14.362  1.00  0.00     0.009 C 
ENDBRANCH  39  40
ENDBRANCH  23  39
BRANCH  11  43
HETATM   43  C15 UNL     1      19.288  41.779  17.012  1.00  0.00     0.009 C 
HETATM   44  C16 UNL     1      17.847  41.600  16.520  1.00  0.00     0.012 C 
HETATM   45  C17 UNL     1      20.143  42.288  15.924  1.00  0.00     0.012 C 
ENDBRANCH  11  43
TORSDOF 9
ENDMDL
MODEL 4
REMARK VINA RESULT: -3.402317833      0.649      1.022
REMARK  9 active torsions:
REMARK  status: ('A' for Active; 'I' for Inactive)
REMARK    1  A    between atoms: C2_2  and  C3_3 
REMARK    2  A    between atoms: C3_3  and  C4_4 
REMARK    3  A    between atoms: C4_4  and  C5_5 
REMARK    4  A    between atoms: C5_5  and  C6_6 
REMARK    5  A    between atoms: C8_11  and  C9_12 
REMARK    6  A    between atoms: C9_12  and  C10_13 
REMARK    7  A    between atoms: C14_20  and  C15_21 
REMARK    8  A    between atoms: C24_35  and  C25_36 
REMARK    9  A    between atoms: C25_36  and  C26_37 
ROOT
HETATM    1  C6  UNL     1      21.618  38.206  15.998  1.00  0.00     0.097 C 
HETATM    2  N1  UNL     1      22.267  39.436  16.420  1.00  0.00    -0.354 N 
ATOM      3  H1  UNL     1      23.088  39.705  15.879  1.00  0.00     0.162 HD
HETATM    4  C7  UNL     1      21.925  40.300  17.464  1.00  0.00     0.240 C 
HETATM    5  O1  UNL     1      21.793  41.523  17.188  1.00  0.00    -0.271 OA
HETATM    6  C8  UNL     1      21.694  39.959  18.900  1.00  0.00     0.177 C 
HETATM    7  N2  UNL     1      20.360  40.071  19.364  1.00  0.00    -0.346 N 
ATOM      8  H2  UNL     1      20.215  39.636  20.275  1.00  0.00     0.163 HD
HETATM    9  C13 UNL     1      19.197  40.651  18.842  1.00  0.00     0.241 C 
HETATM   10  O2  UNL     1      18.708  41.697  19.409  1.00  0.00    -0.271 OA
HETATM   11  C14 UNL     1      18.386  40.227  17.673  1.00  0.00     0.180 C 
HETATM   12  N3  UNL     1      17.322  39.367  18.232  1.00  0.00    -0.346 N 
ATOM     13  H3  UNL     1      16.472  39.826  18.560  1.00  0.00     0.163 HD
HETATM   14  C18 UNL     1      17.384  37.969  18.347  1.00  0.00     0.241 C 
HETATM   15  O3  UNL     1      17.268  37.426  19.512  1.00  0.00    -0.271 OA
HETATM   16  C19 UNL     1      17.578  37.048  17.201  1.00  0.00     0.179 C 
HETATM   17  C20 UNL     1      16.362  37.000  16.288  1.00  0.00     0.037 C 
HETATM   18  C21 UNL     1      15.536  35.856  16.782  1.00  0.00     0.022 C 
HETATM   19  C22 UNL     1      16.322  35.238  17.915  1.00  0.00     0.127 C 
HETATM   20  N4  UNL     1      17.688  35.662  17.660  1.00  0.00    -0.337 N 
HETATM   21  C23 UNL     1      18.956  35.043  17.770  1.00  0.00     0.243 C 
HETATM   22  O4  UNL     1      19.200  34.394  18.841  1.00  0.00    -0.271 OA
HETATM   23  C24 UNL     1      20.040  35.072  16.756  1.00  0.00     0.177 C 
HETATM   24  N5  UNL     1      21.322  35.186  17.422  1.00  0.00    -0.347 N 
ATOM     25  H5  UNL     1      21.534  34.467  18.114  1.00  0.00     0.163 HD
HETATM   26  C29 UNL     1      22.305  36.167  17.228  1.00  0.00     0.224 C 
HETATM   27  O5  UNL     1      23.103  36.348  18.200  1.00  0.00    -0.273 OA
HETATM   28  C30 UNL     1      22.507  37.006  16.015  1.00  0.00     0.096 C 
HETATM   29  C31 UNL     1      22.506  36.140  14.802  1.00  0.00     0.022 C 
ENDROOT
BRANCH   1  30
HETATM   30  C5  UNL     1      20.891  38.462  14.697  1.00  0.00     0.026 C 
BRANCH  30  31
HETATM   31  C4  UNL     1      21.284  39.708  13.989  1.00  0.00     0.002 C 
BRANCH  31  32
HETATM   32  C3  UNL     1      21.870  39.433  12.608  1.00  0.00    -0.000 C 
BRANCH  32  33
HETATM   33  C2  UNL     1      22.819  40.489  12.143  1.00  0.00    -0.005 C 
HETATM   34  C1  UNL     1      23.135  41.358  13.367  1.00  0.00     0.005 C 
ENDBRANCH  32  33
ENDBRANCH  31  32
ENDBRANCH  30  31
ENDBRANCH   1  30
BRANCH   6  35
HETATM   35  C9  UNL     1      22.752  40.652  19.741  1.00  0.00     0.038 C 
BRANCH  35  36
HETATM   36  C10 UNL     1      23.961  39.884  20.093  1.00  0.00    -0.020 C 
HETATM   37  C11 UNL     1      25.121  40.617  19.349  1.00  0.00     0.009 C 
HETATM   38  C12 UNL     1      24.382  39.986  21.554  1.00  0.00     0.009 C 
ENDBRANCH  35  36
ENDBRANCH   6  35
BRANCH  23  39
HETATM   39  C25 UNL     1      20.044  33.671  16.138  1.00  0.00     0.038 C 
BRANCH  39  40
HETATM   40  C26 UNL     1      21.399  33.185  15.758  1.00  0.00    -0.020 C 
HETATM   41  C27 UNL     1      21.246  32.574  14.356  1.00  0.00     0.009 C 
HETATM   42  C28 UNL     1      21.956  32.115  16.641  1.00  0.00     0.009 C 
ENDBRANCH  39  40
ENDBRANCH  23  39
BRANCH  11  43
HETATM   43  C15 UNL     1      17.640  41.384  17.070  1.00  0.00     0.009 C 
HETATM   44  C16 UNL     1      16.410  40.821  16.349  1.00  0.00     0.012 C 
HETATM   45  C17 UNL     1      18.391  42.286  16.178  1.00  0.00     0.012 C 
ENDBRANCH  11  43
TORSDOF 9
ENDMDL
MODEL 5
REMARK VINA RESULT: -3.371279077      1.380      1.724
REMARK  9 active torsions:
REMARK  status: ('A' for Active; 'I' for Inactive)
REMARK    1  A    between atoms: C2_2  and  C3_3 
REMARK    2  A    between atoms: C3_3  and  C4_4 
REMARK    3  A    between atoms: C4_4  and  C5_5 
REMARK    4  A    between atoms: C5_5  and  C6_6 
REMARK    5  A    between atoms: C8_11  and  C9_12 
REMARK    6  A    between atoms: C9_12  and  C10_13 
REMARK    7  A    between atoms: C14_20  and  C15_21 
REMARK    8  A    between atoms: C24_35  and  C25_36 
REMARK    9  A    between atoms: C25_36  and  C26_37 
ROOT
HETATM    1  C6  UNL     1      21.088  39.083  16.305  1.00  0.00     0.097 C 
HETATM    2  N1  UNL     1      21.454  40.389  16.824  1.00  0.00    -0.354 N 
ATOM      3  H1  UNL     1      22.225  40.851  16.342  1.00  0.00     0.162 HD
HETATM    4  C7  UNL     1      20.899  41.102  17.890  1.00  0.00     0.240 C 
HETATM    5  O1  UNL     1      20.532  42.288  17.670  1.00  0.00    -0.271 OA
HETATM    6  C8  UNL     1      20.681  40.634  19.293  1.00  0.00     0.177 C 
HETATM    7  N2  UNL     1      19.334  40.447  19.689  1.00  0.00    -0.346 N 
ATOM      8  H2  UNL     1      19.242  39.937  20.567  1.00  0.00     0.163 HD
HETATM    9  C13 UNL     1      18.101  40.812  19.135  1.00  0.00     0.241 C 
HETATM   10  O2  UNL     1      17.384  41.701  19.727  1.00  0.00    -0.271 OA
HETATM   11  C14 UNL     1      17.443  40.305  17.905  1.00  0.00     0.180 C 
HETATM   12  N3  UNL     1      16.554  39.216  18.360  1.00  0.00    -0.346 N 
ATOM     13  H3  UNL     1      15.615  39.474  18.665  1.00  0.00     0.163 HD
HETATM   14  C18 UNL     1      16.895  37.855  18.407  1.00  0.00     0.241 C 
HETATM   15  O3  UNL     1      16.843  37.230  19.534  1.00  0.00    -0.271 OA
HETATM   16  C19 UNL     1      17.322  37.064  17.227  1.00  0.00     0.179 C 
HETATM   17  C20 UNL     1      16.181  36.828  16.249  1.00  0.00     0.037 C 
HETATM   18  C21 UNL     1      15.585  35.513  16.638  1.00  0.00     0.022 C 
HETATM   19  C22 UNL     1      16.432  34.997  17.779  1.00  0.00     0.127 C 
HETATM   20  N4  UNL     1      17.693  35.703  17.620  1.00  0.00    -0.337 N 
HETATM   21  C23 UNL     1      19.054  35.346  17.767  1.00  0.00     0.243 C 
HETATM   22  O4  UNL     1      19.380  34.695  18.815  1.00  0.00    -0.271 OA
HETATM   23  C24 UNL     1      20.152  35.655  16.816  1.00  0.00     0.177 C 
HETATM   24  N5  UNL     1      21.354  35.983  17.555  1.00  0.00    -0.347 N 
ATOM     25  H5  UNL     1      21.679  35.281  18.219  1.00  0.00     0.163 HD
HETATM   26  C29 UNL     1      22.124  37.152  17.465  1.00  0.00     0.224 C 
HETATM   27  O5  UNL     1      22.826  37.430  18.486  1.00  0.00    -0.273 OA
HETATM   28  C30 UNL     1      22.202  38.087  16.309  1.00  0.00     0.096 C 
HETATM   29  C31 UNL     1      22.429  37.314  15.055  1.00  0.00     0.022 C 
ENDROOT
BRANCH   1  30
HETATM   30  C5  UNL     1      20.379  39.266  14.981  1.00  0.00     0.026 C 
BRANCH  30  31
HETATM   31  C4  UNL     1      20.968  40.297  14.088  1.00  0.00     0.002 C 
BRANCH  31  32
HETATM   32  C3  UNL     1      21.642  39.690  12.862  1.00  0.00    -0.000 C 
BRANCH  32  33
HETATM   33  C2  UNL     1      22.816  40.477  12.377  1.00  0.00    -0.005 C 
HETATM   34  C1  UNL     1      23.290  39.797  11.086  1.00  0.00     0.005 C 
ENDBRANCH  32  33
ENDBRANCH  31  32
ENDBRANCH  30  31
ENDBRANCH   1  30
BRANCH   6  35
HETATM   35  C9  UNL     1      21.539  41.474  20.224  1.00  0.00     0.038 C 
BRANCH  35  36
HETATM   36  C10 UNL     1      22.829  40.911  20.662  1.00  0.00    -0.020 C 
HETATM   37  C11 UNL     1      23.870  42.033  20.358  1.00  0.00     0.009 C 
HETATM   38  C12 UNL     1      22.968  40.724  22.169  1.00  0.00     0.009 C 
ENDBRANCH  35  36
ENDBRANCH   6  35
BRANCH  23  39
HETATM   39  C25 UNL     1      20.468  34.323  16.128  1.00  0.00     0.038 C 
BRANCH  39  40
HETATM   40  C26 UNL     1      21.891  33.906  16.251  1.00  0.00    -0.020 C 
HETATM   41  C27 UNL     1      22.446  33.882  14.817  1.00  0.00     0.009 C 
HETATM   42  C28 UNL     1      22.102  32.540  16.822  1.00  0.00     0.009 C 
ENDBRANCH  39  40
ENDBRANCH  23  39
BRANCH  11  43
HETATM   43  C15 UNL     1      16.503  41.323  17.322  1.00  0.00     0.009 C 
HETATM   44  C16 UNL     1      15.081  40.761  17.433  1.00  0.00     0.012 C 
HETATM   45  C17 UNL     1      16.768  41.785  15.947  1.00  0.00     0.012 C 
ENDBRANCH  11  43
TORSDOF 9
ENDMDL
