MODEL 1
REMARK VINA RESULT: -5.203122548      0.000      0.000
REMARK  12 active torsions:
REMARK  status: ('A' for Active; 'I' for Inactive)
REMARK    1  A    between atoms: C2_2  and  C3_3 
REMARK    2  A    between atoms: C3_3  and  C5_5 
REMARK    3  A    between atoms: C7_10  and  C8_11 
REMARK    4  A    between atoms: C8_11  and  C9_12 
REMARK    5  A    between atoms: C9_12  and  C10_13 
REMARK    6  A    between atoms: C10_13  and  C11_14 
REMARK    7  A    between atoms: C11_14  and  N2_15 
REMARK    8  A    between atoms: N3_19  and  C12_20 
REMARK    9  A    between atoms: C12_20  and  O2_22 
REMARK   10  A    between atoms: C17_30  and  C18_31 
REMARK   11  A    between atoms: C24_40  and  C25_41 
REMARK   12  A    between atoms: C25_41  and  C26_42 
ROOT
HETATM    1  C5  UNL     1      21.862  27.718  11.728  1.00  0.00     0.084 C 
HETATM    2  N1  UNL     1      21.553  27.831  13.106  1.00  0.00    -0.320 N 
ATOM      3  H1  UNL     1      21.338  26.915  13.499  1.00  0.00     0.169 HD
HETATM    4  C6  UNL     1      21.457  28.803  14.072  1.00  0.00     0.272 C 
HETATM    5  O1  UNL     1      20.412  28.731  14.782  1.00  0.00    -0.266 OA
HETATM    6  C7  UNL     1      22.370  29.912  14.418  1.00  0.00     0.102 C 
HETATM    7  N3  UNL     1      21.756  31.059  15.029  1.00  0.00    -0.314 N 
HETATM    8  C14 UNL     1      20.367  31.420  14.756  1.00  0.00     0.180 C 
HETATM    9  C15 UNL     1      20.227  32.786  14.102  1.00  0.00     0.043 C 
HETATM   10  C16 UNL     1      19.461  31.372  15.910  1.00  0.00     0.240 C 
HETATM   11  O3  UNL     1      19.809  31.036  17.072  1.00  0.00    -0.271 OA
HETATM   12  N4  UNL     1      18.066  31.711  15.809  1.00  0.00    -0.354 N 
ATOM     13  H4  UNL     1      17.634  32.193  16.598  1.00  0.00     0.162 HD
HETATM   14  C17 UNL     1      17.247  31.416  14.673  1.00  0.00     0.089 C 
HETATM   15  C21 UNL     1      16.796  29.983  14.689  1.00  0.00     0.045 C 
HETATM   16  C22 UNL     1      17.096  29.267  13.393  1.00  0.00     0.125 C 
HETATM   17  N5  UNL     1      16.991  27.838  13.540  1.00  0.00    -0.356 N 
ATOM     18  H5  UNL     1      16.347  27.480  14.246  1.00  0.00     0.162 HD
HETATM   19  C23 UNL     1      17.718  26.894  12.775  1.00  0.00     0.268 C 
HETATM   20  O4  UNL     1      17.614  25.712  13.134  1.00  0.00    -0.266 OA
HETATM   21  C24 UNL     1      18.558  27.239  11.620  1.00  0.00     0.102 C 
HETATM   22  N6  UNL     1      19.655  26.328  11.349  1.00  0.00    -0.313 N 
HETATM   23  C29 UNL     1      19.480  24.873  11.405  1.00  0.00     0.160 C 
HETATM   24  C30 UNL     1      20.992  26.731  11.010  1.00  0.00     0.271 C 
HETATM   25  O5  UNL     1      21.479  26.176   9.983  1.00  0.00    -0.266 OA
ENDROOT
BRANCH   6  26
HETATM   26  C8  UNL     1      23.652  29.467  15.001  1.00  0.00     0.009 C 
BRANCH  26  27
HETATM   27  C9  UNL     1      24.522  28.487  14.339  1.00  0.00     0.031 C 
BRANCH  27  28
HETATM   28  C10 UNL     1      25.341  28.912  13.169  1.00  0.00     0.031 C 
BRANCH  28  29
HETATM   29  C11 UNL     1      26.188  27.683  12.785  1.00  0.00     0.230 C 
BRANCH  29  30
HETATM   30  N2  UNL     1      25.269  26.614  12.473  1.00  0.00    -0.079 N 
ATOM     31  H23 UNL     1      24.831  26.717  11.557  1.00  0.00     0.274 HD
ATOM     32  H22 UNL     1      25.735  25.724  12.297  1.00  0.00     0.274 HD
ATOM     33  H21 UNL     1      24.594  26.568  13.236  1.00  0.00     0.274 HD
ENDBRANCH  29  30
ENDBRANCH  28  29
ENDBRANCH  27  28
ENDBRANCH  26  27
ENDBRANCH   6  26
BRANCH   7  34
HETATM   34  C12 UNL     1      22.504  31.907  15.853  1.00  0.00     0.114 C 
HETATM   35  C13 UNL     1      23.256  33.131  15.435  1.00  0.00     0.097 C 
BRANCH  34  36
HETATM   36  O2  UNL     1      22.630  31.711  17.134  1.00  0.00    -0.349 OA
ATOM     37  H2  UNL     1      23.467  31.537  17.546  1.00  0.00     0.219 HD
ENDBRANCH  34  36
ENDBRANCH   7  34
BRANCH   1  38
HETATM   38  C3  UNL     1      22.225  28.871  10.914  1.00  0.00     0.037 C 
HETATM   39  C4  UNL     1      21.653  30.190  11.407  1.00  0.00     0.016 C 
BRANCH  38  40
HETATM   40  C2  UNL     1      23.696  29.138  10.678  1.00  0.00     0.006 C 
HETATM   41  C1  UNL     1      24.222  28.147   9.622  1.00  0.00     0.006 C 
ENDBRANCH  38  40
ENDBRANCH   1  38
BRANCH  14  42
HETATM   42  C18 UNL     1      16.064  32.342  14.689  1.00  0.00     0.000 C 
HETATM   43  C19 UNL     1      15.116  32.069  15.823  1.00  0.00     0.011 C 
HETATM   44  C20 UNL     1      16.443  33.805  14.745  1.00  0.00     0.011 C 
ENDBRANCH  14  42
BRANCH  21  45
HETATM   45  C25 UNL     1      17.904  27.869  10.473  1.00  0.00     0.012 C 
BRANCH  45  46
HETATM   46  C26 UNL     1      17.405  27.190   9.298  1.00  0.00     0.002 C 
HETATM   47  C27 UNL     1      18.317  27.168   8.093  1.00  0.00     0.013 C 
HETATM   48  C28 UNL     1      16.874  25.790   9.467  1.00  0.00     0.013 C 
ENDBRANCH  45  46
ENDBRANCH  21  45
TORSDOF 12
ENDMDL
MODEL 2
REMARK VINA RESULT: -5.130690972      2.264      8.893
REMARK  12 active torsions:
REMARK  status: ('A' for Active; 'I' for Inactive)
REMARK    1  A    between atoms: C2_2  and  C3_3 
REMARK    2  A    between atoms: C3_3  and  C5_5 
REMARK    3  A    between atoms: C7_10  and  C8_11 
REMARK    4  A    between atoms: C8_11  and  C9_12 
REMARK    5  A    between atoms: C9_12  and  C10_13 
REMARK    6  A    between atoms: C10_13  and  C11_14 
REMARK    7  A    between atoms: C11_14  and  N2_15 
REMARK    8  A    between atoms: N3_19  and  C12_20 
REMARK    9  A    between atoms: C12_20  and  O2_22 
REMARK   10  A    between atoms: C17_30  and  C18_31 
REMARK   11  A    between atoms: C24_40  and  C25_41 
REMARK   12  A    between atoms: C25_41  and  C26_42 
ROOT
HETATM    1  C5  UNL     1      18.199  33.753  16.119  1.00  0.00     0.084 C 
HETATM    2  N1  UNL     1      18.474  32.387  16.376  1.00  0.00    -0.320 N 
ATOM      3  H1  UNL     1      18.688  32.247  17.363  1.00  0.00     0.169 HD
HETATM    4  C6  UNL     1      18.539  31.195  15.696  1.00  0.00     0.272 C 
HETATM    5  O1  UNL     1      19.567  30.504  15.951  1.00  0.00    -0.266 OA
HETATM    6  C7  UNL     1      17.607  30.590  14.721  1.00  0.00     0.102 C 
HETATM    7  N3  UNL     1      18.196  29.680  13.777  1.00  0.00    -0.314 N 
HETATM    8  C14 UNL     1      19.588  29.812  13.353  1.00  0.00     0.180 C 
HETATM    9  C15 UNL     1      19.731  30.075  11.862  1.00  0.00     0.043 C 
HETATM   10  C16 UNL     1      20.467  28.690  13.704  1.00  0.00     0.240 C 
HETATM   11  O3  UNL     1      20.094  27.668  14.339  1.00  0.00    -0.271 OA
HETATM   12  N4  UNL     1      21.860  28.661  13.347  1.00  0.00    -0.354 N 
ATOM     13  H4  UNL     1      22.269  27.762  13.091  1.00  0.00     0.162 HD
HETATM   14  C17 UNL     1      22.709  29.813  13.326  1.00  0.00     0.089 C 
HETATM   15  C21 UNL     1      23.172  30.168  14.711  1.00  0.00     0.045 C 
HETATM   16  C22 UNL     1      22.910  31.615  15.057  1.00  0.00     0.125 C 
HETATM   17  N5  UNL     1      23.025  31.851  16.473  1.00  0.00    -0.356 N 
ATOM     18  H5  UNL     1      23.655  31.250  17.004  1.00  0.00     0.162 HD
HETATM   19  C23 UNL     1      22.325  32.858  17.180  1.00  0.00     0.268 C 
HETATM   20  O4  UNL     1      22.431  32.824  18.415  1.00  0.00    -0.266 OA
HETATM   21  C24 UNL     1      21.509  33.900  16.543  1.00  0.00     0.102 C 
HETATM   22  N6  UNL     1      20.427  34.432  17.352  1.00  0.00    -0.313 N 
HETATM   23  C29 UNL     1      20.614  34.761  18.768  1.00  0.00     0.160 C 
HETATM   24  C30 UNL     1      19.095  34.685  16.876  1.00  0.00     0.271 C 
HETATM   25  O5  UNL     1      18.638  35.835  17.139  1.00  0.00    -0.266 OA
ENDROOT
BRANCH   6  26
HETATM   26  C8  UNL     1      16.316  30.179  15.309  1.00  0.00     0.009 C 
BRANCH  26  27
HETATM   27  C9  UNL     1      15.063  30.899  15.044  1.00  0.00     0.031 C 
BRANCH  27  28
HETATM   28  C10 UNL     1      14.901  32.288  15.557  1.00  0.00     0.031 C 
BRANCH  28  29
HETATM   29  C11 UNL     1      14.967  32.175  17.093  1.00  0.00     0.230 C 
BRANCH  29  30
HETATM   30  N2  UNL     1      14.887  33.516  17.622  1.00  0.00    -0.079 N 
ATOM     31  H23 UNL     1      15.599  33.713  18.326  1.00  0.00     0.274 HD
ATOM     32  H22 UNL     1      15.168  34.229  16.949  1.00  0.00     0.274 HD
ATOM     33  H21 UNL     1      13.936  33.645  17.968  1.00  0.00     0.274 HD
ENDBRANCH  29  30
ENDBRANCH  28  29
ENDBRANCH  27  28
ENDBRANCH  26  27
ENDBRANCH   6  26
BRANCH   7  34
HETATM   34  C12 UNL     1      17.421  28.679  13.181  1.00  0.00     0.114 C 
HETATM   35  C13 UNL     1      16.403  28.857  12.099  1.00  0.00     0.097 C 
BRANCH  34  36
HETATM   36  O2  UNL     1      17.509  27.426  13.521  1.00  0.00    -0.349 OA
ATOM     37  H2  UNL     1      18.210  26.860  13.219  1.00  0.00     0.219 HD
ENDBRANCH  34  36
ENDBRANCH   7  34
BRANCH   1  38
HETATM   38  C3  UNL     1      17.845  34.239  14.791  1.00  0.00     0.037 C 
HETATM   39  C4  UNL     1      18.211  33.293  13.660  1.00  0.00     0.016 C 
BRANCH  38  40
HETATM   40  C2  UNL     1      16.404  34.624  14.538  1.00  0.00     0.006 C 
HETATM   41  C1  UNL     1      16.018  35.774  15.489  1.00  0.00     0.006 C 
ENDBRANCH  38  40
ENDBRANCH   1  38
BRANCH  14  42
HETATM   42  C18 UNL     1      23.882  29.522  12.435  1.00  0.00     0.000 C 
HETATM   43  C19 UNL     1      24.988  28.785  13.137  1.00  0.00     0.011 C 
HETATM   44  C20 UNL     1      23.518  28.738  11.194  1.00  0.00     0.011 C 
ENDBRANCH  14  42
BRANCH  21  45
HETATM   45  C25 UNL     1      22.185  34.821  15.629  1.00  0.00     0.012 C 
BRANCH  45  46
HETATM   46  C26 UNL     1      23.373  35.591  15.920  1.00  0.00     0.002 C 
HETATM   47  C27 UNL     1      23.307  36.509  17.119  1.00  0.00     0.013 C 
HETATM   48  C28 UNL     1      24.685  34.854  16.008  1.00  0.00     0.013 C 
ENDBRANCH  45  46
ENDBRANCH  21  45
TORSDOF 12
ENDMDL
MODEL 3
REMARK VINA RESULT: -4.779736960      2.640      6.903
REMARK  12 active torsions:
REMARK  status: ('A' for Active; 'I' for Inactive)
REMARK    1  A    between atoms: C2_2  and  C3_3 
REMARK    2  A    between atoms: C3_3  and  C5_5 
REMARK    3  A    between atoms: C7_10  and  C8_11 
REMARK    4  A    between atoms: C8_11  and  C9_12 
REMARK    5  A    between atoms: C9_12  and  C10_13 
REMARK    6  A    between atoms: C10_13  and  C11_14 
REMARK    7  A    between atoms: C11_14  and  N2_15 
REMARK    8  A    between atoms: N3_19  and  C12_20 
REMARK    9  A    between atoms: C12_20  and  O2_22 
REMARK   10  A    between atoms: C17_30  and  C18_31 
REMARK   11  A    between atoms: C24_40  and  C25_41 
REMARK   12  A    between atoms: C25_41  and  C26_42 
ROOT
HETATM    1  C5  UNL     1      17.124  30.690  14.569  1.00  0.00     0.084 C 
HETATM    2  N1  UNL     1      18.131  30.549  15.556  1.00  0.00    -0.320 N 
ATOM      3  H1  UNL     1      17.713  30.355  16.466  1.00  0.00     0.169 HD
HETATM    4  C6  UNL     1      19.500  30.596  15.656  1.00  0.00     0.272 C 
HETATM    5  O1  UNL     1      19.930  31.285  16.626  1.00  0.00    -0.266 OA
HETATM    6  C7  UNL     1      20.549  29.973  14.821  1.00  0.00     0.102 C 
HETATM    7  N3  UNL     1      21.816  30.653  14.802  1.00  0.00    -0.314 N 
HETATM    8  C14 UNL     1      21.914  32.096  15.002  1.00  0.00     0.180 C 
HETATM    9  C15 UNL     1      22.495  32.824  13.800  1.00  0.00     0.043 C 
HETATM   10  C16 UNL     1      22.656  32.521  16.196  1.00  0.00     0.240 C 
HETATM   11  O3  UNL     1      23.180  31.732  17.025  1.00  0.00    -0.271 OA
HETATM   12  N4  UNL     1      22.853  33.908  16.527  1.00  0.00    -0.354 N 
ATOM     13  H4  UNL     1      23.742  34.176  16.950  1.00  0.00     0.162 HD
HETATM   14  C17 UNL     1      21.882  34.935  16.300  1.00  0.00     0.089 C 
HETATM   15  C21 UNL     1      20.830  34.929  17.373  1.00  0.00     0.045 C 
HETATM   16  C22 UNL     1      19.429  34.880  16.810  1.00  0.00     0.125 C 
HETATM   17  N5  UNL     1      18.464  34.522  17.818  1.00  0.00    -0.356 N 
ATOM     18  H5  UNL     1      18.675  34.769  18.784  1.00  0.00     0.162 HD
HETATM   19  C23 UNL     1      17.244  33.849  17.561  1.00  0.00     0.268 C 
HETATM   20  O4  UNL     1      16.606  33.490  18.561  1.00  0.00    -0.266 OA
HETATM   21  C24 UNL     1      16.723  33.567  16.217  1.00  0.00     0.102 C 
HETATM   22  N6  UNL     1      15.855  32.409  16.112  1.00  0.00    -0.313 N 
HETATM   23  C29 UNL     1      14.810  32.136  17.105  1.00  0.00     0.160 C 
HETATM   24  C30 UNL     1      15.917  31.429  15.063  1.00  0.00     0.271 C 
HETATM   25  O5  UNL     1      14.815  31.170  14.501  1.00  0.00    -0.266 OA
ENDROOT
BRANCH   6  26
HETATM   26  C8  UNL     1      20.597  28.501  14.924  1.00  0.00     0.009 C 
BRANCH  26  27
HETATM   27  C9  UNL     1      20.026  27.619  13.899  1.00  0.00     0.031 C 
BRANCH  27  28
HETATM   28  C10 UNL     1      20.648  27.577  12.546  1.00  0.00     0.031 C 
BRANCH  28  29
HETATM   29  C11 UNL     1      19.785  26.602  11.721  1.00  0.00     0.230 C 
BRANCH  29  30
HETATM   30  N2  UNL     1      18.732  26.129  12.589  1.00  0.00    -0.079 N 
ATOM     31  H23 UNL     1      18.633  25.114  12.583  1.00  0.00     0.274 HD
ATOM     32  H22 UNL     1      18.952  26.233  13.579  1.00  0.00     0.274 HD
ATOM     33  H21 UNL     1      17.877  26.615  12.316  1.00  0.00     0.274 HD
ENDBRANCH  29  30
ENDBRANCH  28  29
ENDBRANCH  27  28
ENDBRANCH  26  27
ENDBRANCH   6  26
BRANCH   7  34
HETATM   34  C12 UNL     1      22.992  29.949  14.516  1.00  0.00     0.114 C 
HETATM   35  C13 UNL     1      23.523  29.602  13.162  1.00  0.00     0.097 C 
BRANCH  34  36
HETATM   36  O2  UNL     1      23.786  29.501  15.445  1.00  0.00    -0.349 OA
ATOM     37  H2  UNL     1      24.385  30.062  15.923  1.00  0.00     0.219 HD
ENDBRANCH  34  36
ENDBRANCH   7  34
BRANCH   1  38
HETATM   38  C3  UNL     1      17.436  30.956  13.171  1.00  0.00     0.037 C 
HETATM   39  C4  UNL     1      18.565  31.951  12.960  1.00  0.00     0.016 C 
BRANCH  38  40
HETATM   40  C2  UNL     1      17.772  29.778  12.282  1.00  0.00     0.006 C 
HETATM   41  C1  UNL     1      16.491  28.959  12.031  1.00  0.00     0.006 C 
ENDBRANCH  38  40
ENDBRANCH   1  38
BRANCH  14  42
HETATM   42  C18 UNL     1      22.592  36.258  16.263  1.00  0.00     0.000 C 
HETATM   43  C19 UNL     1      21.990  37.223  15.281  1.00  0.00     0.011 C 
HETATM   44  C20 UNL     1      22.658  36.946  17.608  1.00  0.00     0.011 C 
ENDBRANCH  14  42
BRANCH  21  45
HETATM   45  C25 UNL     1      16.432  34.712  15.353  1.00  0.00     0.012 C 
BRANCH  45  46
HETATM   46  C26 UNL     1      15.737  35.918  15.743  1.00  0.00     0.002 C 
HETATM   47  C27 UNL     1      14.538  35.746  16.648  1.00  0.00     0.013 C 
HETATM   48  C28 UNL     1      16.555  37.047  16.316  1.00  0.00     0.013 C 
ENDBRANCH  45  46
ENDBRANCH  21  45
TORSDOF 12
ENDMDL
MODEL 4
REMARK VINA RESULT: -4.591768779      3.022      7.490
REMARK  12 active torsions:
REMARK  status: ('A' for Active; 'I' for Inactive)
REMARK    1  A    between atoms: C2_2  and  C3_3 
REMARK    2  A    between atoms: C3_3  and  C5_5 
REMARK    3  A    between atoms: C7_10  and  C8_11 
REMARK    4  A    between atoms: C8_11  and  C9_12 
REMARK    5  A    between atoms: C9_12  and  C10_13 
REMARK    6  A    between atoms: C10_13  and  C11_14 
REMARK    7  A    between atoms: C11_14  and  N2_15 
REMARK    8  A    between atoms: N3_19  and  C12_20 
REMARK    9  A    between atoms: C12_20  and  O2_22 
REMARK   10  A    between atoms: C17_30  and  C18_31 
REMARK   11  A    between atoms: C24_40  and  C25_41 
REMARK   12  A    between atoms: C25_41  and  C26_42 
ROOT
HETATM    1  C5  UNL     1      18.183  26.034   9.051  1.00  0.00     0.084 C 
HETATM    2  N1  UNL     1      19.112  25.256   9.785  1.00  0.00    -0.320 N 
ATOM      3  H1  UNL     1      18.640  24.747  10.532  1.00  0.00     0.169 HD
HETATM    4  C6  UNL     1      20.458  24.981   9.795  1.00  0.00     0.272 C 
HETATM    5  O1  UNL     1      20.996  25.041  10.939  1.00  0.00    -0.266 OA
HETATM    6  C7  UNL     1      21.377  24.627   8.692  1.00  0.00     0.102 C 
HETATM    7  N3  UNL     1      22.758  24.974   8.895  1.00  0.00    -0.314 N 
HETATM    8  C14 UNL     1      23.148  26.107   9.729  1.00  0.00     0.180 C 
HETATM    9  C15 UNL     1      23.899  27.181   8.957  1.00  0.00     0.043 C 
HETATM   10  C16 UNL     1      23.930  25.774  10.925  1.00  0.00     0.240 C 
HETATM   11  O3  UNL     1      24.256  24.604  11.258  1.00  0.00    -0.271 OA
HETATM   12  N4  UNL     1      24.402  26.779  11.842  1.00  0.00    -0.354 N 
ATOM     13  H4  UNL     1      25.315  26.639  12.274  1.00  0.00     0.162 HD
HETATM   14  C17 UNL     1      23.672  27.961  12.185  1.00  0.00     0.089 C 
HETATM   15  C21 UNL     1      22.613  27.664  13.209  1.00  0.00     0.045 C 
HETATM   16  C22 UNL     1      21.248  28.158  12.791  1.00  0.00     0.125 C 
HETATM   17  N5  UNL     1      20.203  27.569  13.589  1.00  0.00    -0.356 N 
ATOM     18  H5  UNL     1      20.435  27.292  14.543  1.00  0.00     0.162 HD
HETATM   19  C23 UNL     1      18.878  27.346  13.143  1.00  0.00     0.268 C 
HETATM   20  O4  UNL     1      18.152  26.696  13.910  1.00  0.00    -0.266 OA
HETATM   21  C24 UNL     1      18.345  27.830  11.862  1.00  0.00     0.102 C 
HETATM   22  N6  UNL     1      17.259  27.049  11.301  1.00  0.00    -0.313 N 
HETATM   23  C29 UNL     1      16.154  26.557  12.131  1.00  0.00     0.160 C 
HETATM   24  C30 UNL     1      17.144  26.679   9.917  1.00  0.00     0.271 C 
HETATM   25  O5  UNL     1      16.026  26.932   9.382  1.00  0.00    -0.266 OA
ENDROOT
BRANCH   6  26
HETATM   26  C8  UNL     1      21.115  23.298   8.103  1.00  0.00     0.009 C 
BRANCH  26  27
HETATM   27  C9  UNL     1      20.986  23.088   6.656  1.00  0.00     0.031 C 
BRANCH  27  28
HETATM   28  C10 UNL     1      21.827  22.052   5.993  1.00  0.00     0.031 C 
BRANCH  28  29
HETATM   29  C11 UNL     1      21.818  20.838   6.944  1.00  0.00     0.230 C 
BRANCH  29  30
HETATM   30  N2  UNL     1      23.168  20.669   7.429  1.00  0.00    -0.079 N 
ATOM     31  H23 UNL     1      23.792  21.427   7.149  1.00  0.00     0.274 HD
ATOM     32  H22 UNL     1      23.250  20.797   8.437  1.00  0.00     0.274 HD
ATOM     33  H21 UNL     1      23.486  19.753   7.114  1.00  0.00     0.274 HD
ENDBRANCH  29  30
ENDBRANCH  28  29
ENDBRANCH  27  28
ENDBRANCH  26  27
ENDBRANCH   6  26
BRANCH   7  34
HETATM   34  C12 UNL     1      23.768  24.269   8.232  1.00  0.00     0.114 C 
HETATM   35  C13 UNL     1      24.397  24.621   6.921  1.00  0.00     0.097 C 
BRANCH  34  36
HETATM   36  O2  UNL     1      24.294  23.178   8.710  1.00  0.00    -0.349 OA
ATOM     37  H2  UNL     1      25.214  23.109   8.937  1.00  0.00     0.219 HD
ENDBRANCH  34  36
ENDBRANCH   7  34
BRANCH   1  38
HETATM   38  C3  UNL     1      18.581  26.852   7.913  1.00  0.00     0.037 C 
HETATM   39  C4  UNL     1      18.982  26.059   6.681  1.00  0.00     0.016 C 
BRANCH  38  40
HETATM   40  C2  UNL     1      17.606  27.897   7.415  1.00  0.00     0.006 C 
HETATM   41  C1  UNL     1      17.618  27.900   5.875  1.00  0.00     0.006 C 
ENDBRANCH  38  40
ENDBRANCH   1  38
BRANCH  14  42
HETATM   42  C18 UNL     1      24.641  28.982  12.708  1.00  0.00     0.000 C 
HETATM   43  C19 UNL     1      24.037  29.898  13.735  1.00  0.00     0.011 C 
HETATM   44  C20 UNL     1      25.891  28.376  13.306  1.00  0.00     0.011 C 
ENDBRANCH  14  42
BRANCH  21  45
HETATM   45  C25 UNL     1      18.321  29.277  11.646  1.00  0.00     0.012 C 
BRANCH  45  46
HETATM   46  C26 UNL     1      17.877  30.273  12.595  1.00  0.00     0.002 C 
HETATM   47  C27 UNL     1      16.745  29.875  13.514  1.00  0.00     0.013 C 
HETATM   48  C28 UNL     1      18.920  30.940  13.454  1.00  0.00     0.013 C 
ENDBRANCH  45  46
ENDBRANCH  21  45
TORSDOF 12
ENDMDL
MODEL 5
REMARK VINA RESULT: -4.570345201      2.527      5.720
REMARK  12 active torsions:
REMARK  status: ('A' for Active; 'I' for Inactive)
REMARK    1  A    between atoms: C2_2  and  C3_3 
REMARK    2  A    between atoms: C3_3  and  C5_5 
REMARK    3  A    between atoms: C7_10  and  C8_11 
REMARK    4  A    between atoms: C8_11  and  C9_12 
REMARK    5  A    between atoms: C9_12  and  C10_13 
REMARK    6  A    between atoms: C10_13  and  C11_14 
REMARK    7  A    between atoms: C11_14  and  N2_15 
REMARK    8  A    between atoms: N3_19  and  C12_20 
REMARK    9  A    between atoms: C12_20  and  O2_22 
REMARK   10  A    between atoms: C17_30  and  C18_31 
REMARK   11  A    between atoms: C24_40  and  C25_41 
REMARK   12  A    between atoms: C25_41  and  C26_42 
ROOT
HETATM    1  C5  UNL     1      19.226  25.277   9.792  1.00  0.00     0.084 C 
HETATM    2  N1  UNL     1      20.234  25.121  10.776  1.00  0.00    -0.320 N 
ATOM      3  H1  UNL     1      19.921  24.483  11.509  1.00  0.00     0.169 HD
HETATM    4  C6  UNL     1      21.505  25.569  11.041  1.00  0.00     0.272 C 
HETATM    5  O1  UNL     1      21.685  25.955  12.232  1.00  0.00    -0.266 OA
HETATM    6  C7  UNL     1      22.693  25.671  10.167  1.00  0.00     0.102 C 
HETATM    7  N3  UNL     1      23.649  26.681  10.529  1.00  0.00    -0.314 N 
HETATM    8  C14 UNL     1      23.248  27.899  11.228  1.00  0.00     0.180 C 
HETATM    9  C15 UNL     1      23.528  29.162  10.427  1.00  0.00     0.043 C 
HETATM   10  C16 UNL     1      23.815  28.076  12.570  1.00  0.00     0.240 C 
HETATM   11  O3  UNL     1      24.589  27.254  13.128  1.00  0.00    -0.271 OA
HETATM   12  N4  UNL     1      23.529  29.229  13.382  1.00  0.00    -0.354 N 
ATOM     13  H4  UNL     1      24.277  29.597  13.970  1.00  0.00     0.162 HD
HETATM   14  C17 UNL     1      22.261  29.893  13.418  1.00  0.00     0.089 C 
HETATM   15  C21 UNL     1      21.289  29.155  14.294  1.00  0.00     0.045 C 
HETATM   16  C22 UNL     1      19.983  28.864  13.594  1.00  0.00     0.125 C 
HETATM   17  N5  UNL     1      19.213  27.870  14.299  1.00  0.00    -0.356 N 
ATOM     18  H5  UNL     1      19.339  27.802  15.309  1.00  0.00     0.162 HD
HETATM   19  C23 UNL     1      18.296  26.981  13.688  1.00  0.00     0.268 C 
HETATM   20  O4  UNL     1      17.833  26.096  14.422  1.00  0.00    -0.266 OA
HETATM   21  C24 UNL     1      17.885  27.057  12.280  1.00  0.00     0.102 C 
HETATM   22  N6  UNL     1      17.466  25.803  11.681  1.00  0.00    -0.313 N 
HETATM   23  C29 UNL     1      16.592  24.864  12.392  1.00  0.00     0.160 C 
HETATM   24  C30 UNL     1      17.846  25.351  10.372  1.00  0.00     0.271 C 
HETATM   25  O5  UNL     1      16.892  24.972   9.633  1.00  0.00    -0.266 OA
ENDROOT
BRANCH   6  26
HETATM   26  C8  UNL     1      23.244  24.363   9.758  1.00  0.00     0.009 C 
BRANCH  26  27
HETATM   27  C9  UNL     1      22.988  23.777   8.436  1.00  0.00     0.031 C 
BRANCH  27  28
HETATM   28  C10 UNL     1      23.003  24.658   7.234  1.00  0.00     0.031 C 
BRANCH  28  29
HETATM   29  C11 UNL     1      23.982  23.995   6.245  1.00  0.00     0.230 C 
BRANCH  29  30
HETATM   30  N2  UNL     1      25.197  23.714   6.975  1.00  0.00    -0.079 N 
ATOM     31  H23 UNL     1      26.030  24.095   6.527  1.00  0.00     0.274 HD
ATOM     32  H22 UNL     1      25.268  24.234   7.849  1.00  0.00     0.274 HD
ATOM     33  H21 UNL     1      25.240  22.703   7.106  1.00  0.00     0.274 HD
ENDBRANCH  29  30
ENDBRANCH  28  29
ENDBRANCH  27  28
ENDBRANCH  26  27
ENDBRANCH   6  26
BRANCH   7  34
HETATM   34  C12 UNL     1      24.991  26.553  10.152  1.00  0.00     0.114 C 
HETATM   35  C13 UNL     1      26.191  26.778  11.015  1.00  0.00     0.097 C 
BRANCH  34  36
HETATM   36  O2  UNL     1      25.353  26.207   8.951  1.00  0.00    -0.349 OA
ATOM     37  H2  UNL     1      26.263  26.118   8.695  1.00  0.00     0.219 HD
ENDBRANCH  34  36
ENDBRANCH   7  34
BRANCH   1  38
HETATM   38  C3  UNL     1      19.410  26.121   8.618  1.00  0.00     0.037 C 
HETATM   39  C4  UNL     1      19.488  25.359   7.306  1.00  0.00     0.016 C 
BRANCH  38  40
HETATM   40  C2  UNL     1      18.408  27.229   8.378  1.00  0.00     0.006 C 
HETATM   41  C1  UNL     1      18.123  27.327   6.867  1.00  0.00     0.006 C 
ENDBRANCH  38  40
ENDBRANCH   1  38
BRANCH  14  42
HETATM   42  C18 UNL     1      22.473  31.291  13.923  1.00  0.00     0.000 C 
HETATM   43  C19 UNL     1      21.313  32.204  13.637  1.00  0.00     0.011 C 
HETATM   44  C20 UNL     1      22.762  31.361  15.405  1.00  0.00     0.011 C 
ENDBRANCH  14  42
BRANCH  21  45
HETATM   45  C25 UNL     1      17.206  28.276  11.840  1.00  0.00     0.012 C 
BRANCH  45  46
HETATM   46  C26 UNL     1      16.154  28.969  12.549  1.00  0.00     0.002 C 
HETATM   47  C27 UNL     1      16.561  30.195  13.334  1.00  0.00     0.013 C 
HETATM   48  C28 UNL     1      14.912  29.338  11.779  1.00  0.00     0.013 C 
ENDBRANCH  45  46
ENDBRANCH  21  45
TORSDOF 12
ENDMDL
