MODEL 1
REMARK VINA RESULT: -5.317973409      0.000      0.000
REMARK  13 active torsions:
REMARK  status: ('A' for Active; 'I' for Inactive)
REMARK    1  A    between atoms: C2_2  and  C3_3 
REMARK    2  A    between atoms: C5_8  and  C6_9 
REMARK    3  A    between atoms: C6_9  and  C7_10 
REMARK    4  A    between atoms: C11_17  and  C12_18 
REMARK    5  A    between atoms: C17_26  and  C18_27 
REMARK    6  A    between atoms: C18_27  and  C19_28 
REMARK    7  A    between atoms: C19_28  and  C20_29 
REMARK    8  A    between atoms: C20_29  and  C21_30 
REMARK    9  A    between atoms: C21_30  and  N4_31 
REMARK   10  A    between atoms: C23_39  and  C24_40 
REMARK   11  A    between atoms: C24_40  and  C25_41 
REMARK   12  A    between atoms: C29_48  and  C30_49 
REMARK   13  A    between atoms: C30_49  and  C31_50 
ROOT
HETATM    1  C3  UNL     1       5.494 -14.407  19.298  1.00  0.00     0.178 C 
HETATM    2  C4  UNL     1       6.844 -14.877  19.773  1.00  0.00     0.241 C 
HETATM    3  O1  UNL     1       6.824 -15.824  20.635  1.00  0.00    -0.271 OA
HETATM    4  N1  UNL     1       8.083 -14.359  19.345  1.00  0.00    -0.346 N 
ATOM      5  H1  UNL     1       8.783 -14.275  20.083  1.00  0.00     0.163 HD
HETATM    6  C5  UNL     1       8.518 -13.941  18.084  1.00  0.00     0.177 C 
HETATM    7  C10 UNL     1       8.372 -12.490  17.781  1.00  0.00     0.240 C 
HETATM    8  O2  UNL     1       8.815 -12.302  16.575  1.00  0.00    -0.271 OA
HETATM    9  N2  UNL     1       7.896 -11.396  18.464  1.00  0.00    -0.354 N 
ATOM     10  H2  UNL     1       6.955 -11.167  18.145  1.00  0.00     0.162 HD
HETATM   11  C11 UNL     1       8.302 -10.488  19.470  1.00  0.00     0.096 C 
HETATM   12  C15 UNL     1       8.811  -9.168  18.922  1.00  0.00     0.128 C 
HETATM   13  C16 UNL     1       8.182  -8.660  17.716  1.00  0.00     0.220 C 
HETATM   14  O3  UNL     1       8.806  -8.922  16.638  1.00  0.00    -0.274 OA
HETATM   15  N3  UNL     1       6.991  -7.923  17.560  1.00  0.00    -0.348 N 
ATOM     16  H3  UNL     1       7.076  -7.041  17.055  1.00  0.00     0.163 HD
HETATM   17  C17 UNL     1       5.664  -8.259  18.027  1.00  0.00     0.176 C 
HETATM   18  C22 UNL     1       4.937  -8.646  16.750  1.00  0.00     0.241 C 
HETATM   19  O4  UNL     1       4.717  -7.605  16.027  1.00  0.00    -0.271 OA
HETATM   20  N5  UNL     1       4.537  -9.900  16.342  1.00  0.00    -0.346 N 
ATOM     21  H5  UNL     1       5.002 -10.221  15.493  1.00  0.00     0.163 HD
HETATM   22  C23 UNL     1       3.590 -10.849  16.877  1.00  0.00     0.177 C 
HETATM   23  C28 UNL     1       3.117 -11.743  15.820  1.00  0.00     0.241 C 
HETATM   24  O5  UNL     1       2.960 -11.289  14.669  1.00  0.00    -0.271 OA
HETATM   25  N6  UNL     1       2.822 -13.108  16.021  1.00  0.00    -0.346 N 
ATOM     26  H6  UNL     1       2.444 -13.613  15.219  1.00  0.00     0.163 HD
HETATM   27  C29 UNL     1       2.997 -13.866  17.225  1.00  0.00     0.177 C 
HETATM   28  C34 UNL     1       4.309 -14.602  17.092  1.00  0.00     0.243 C 
HETATM   29  O6  UNL     1       4.731 -14.757  15.902  1.00  0.00    -0.271 OA
HETATM   30  N7  UNL     1       5.088 -15.120  18.119  1.00  0.00    -0.341 N 
HETATM   31  C35 UNL     1       5.584 -16.526  18.060  1.00  0.00     0.153 C 
ENDROOT
BRANCH  17  32
HETATM   32  C18 UNL     1       4.871  -7.140  18.614  1.00  0.00     0.035 C 
BRANCH  32  33
HETATM   33  C19 UNL     1       3.691  -7.425  19.435  1.00  0.00     0.004 C 
BRANCH  33  34
HETATM   34  C20 UNL     1       2.631  -6.409  19.601  1.00  0.00     0.027 C 
BRANCH  34  35
HETATM   35  C21 UNL     1       2.808  -5.192  18.720  1.00  0.00     0.229 C 
BRANCH  35  36
HETATM   36  N4  UNL     1       1.615  -5.044  17.910  1.00  0.00    -0.079 N 
ATOM     37  H43 UNL     1       1.809  -5.088  16.910  1.00  0.00     0.274 HD
ATOM     38  H42 UNL     1       0.998  -5.855  17.966  1.00  0.00     0.274 HD
ATOM     39  H41 UNL     1       1.152  -4.178  18.184  1.00  0.00     0.274 HD
ENDBRANCH  35  36
ENDBRANCH  34  35
ENDBRANCH  33  34
ENDBRANCH  32  33
ENDBRANCH  17  32
BRANCH  22  40
HETATM   40  C24 UNL     1       2.579 -10.282  17.795  1.00  0.00     0.038 C 
BRANCH  40  41
HETATM   41  C25 UNL     1       2.001 -11.130  18.858  1.00  0.00    -0.020 C 
HETATM   42  C26 UNL     1       1.903 -10.558  20.228  1.00  0.00     0.009 C 
HETATM   43  C27 UNL     1       0.537 -11.388  18.418  1.00  0.00     0.009 C 
ENDBRANCH  40  41
ENDBRANCH  22  40
BRANCH  11  44
HETATM   44  C12 UNL     1       9.209 -10.895  20.570  1.00  0.00     0.001 C 
HETATM   45  C13 UNL     1      10.599 -11.291  20.187  1.00  0.00     0.011 C 
HETATM   46  C14 UNL     1       8.592 -11.687  21.683  1.00  0.00     0.011 C 
ENDBRANCH  11  44
BRANCH  27  47
HETATM   47  C30 UNL     1       1.968 -14.939  17.346  1.00  0.00     0.038 C 
BRANCH  47  48
HETATM   48  C31 UNL     1       1.333 -15.224  18.637  1.00  0.00    -0.020 C 
HETATM   49  C32 UNL     1      -0.156 -15.055  18.724  1.00  0.00     0.009 C 
HETATM   50  C33 UNL     1       1.592 -16.689  19.062  1.00  0.00     0.009 C 
ENDBRANCH  47  48
ENDBRANCH  27  47
BRANCH   6  51
HETATM   51  C6  UNL     1       9.894 -14.363  17.639  1.00  0.00     0.038 C 
BRANCH  51  52
HETATM   52  C7  UNL     1      10.045 -15.710  17.066  1.00  0.00    -0.020 C 
HETATM   53  C8  UNL     1      11.460 -16.077  16.805  1.00  0.00     0.009 C 
HETATM   54  C9  UNL     1       9.325 -15.712  15.706  1.00  0.00     0.009 C 
ENDBRANCH  51  52
ENDBRANCH   6  51
BRANCH   1  55
HETATM   55  C2  UNL     1       4.456 -14.735  20.385  1.00  0.00     0.030 C 
HETATM   56  C1  UNL     1       3.976 -13.469  21.054  1.00  0.00     0.007 C 
ENDBRANCH   1  55
TORSDOF 13
ENDMDL
MODEL 2
REMARK VINA RESULT: -5.137113877      1.076      1.170
REMARK  13 active torsions:
REMARK  status: ('A' for Active; 'I' for Inactive)
REMARK    1  A    between atoms: C2_2  and  C3_3 
REMARK    2  A    between atoms: C5_8  and  C6_9 
REMARK    3  A    between atoms: C6_9  and  C7_10 
REMARK    4  A    between atoms: C11_17  and  C12_18 
REMARK    5  A    between atoms: C17_26  and  C18_27 
REMARK    6  A    between atoms: C18_27  and  C19_28 
REMARK    7  A    between atoms: C19_28  and  C20_29 
REMARK    8  A    between atoms: C20_29  and  C21_30 
REMARK    9  A    between atoms: C21_30  and  N4_31 
REMARK   10  A    between atoms: C23_39  and  C24_40 
REMARK   11  A    between atoms: C24_40  and  C25_41 
REMARK   12  A    between atoms: C29_48  and  C30_49 
REMARK   13  A    between atoms: C30_49  and  C31_50 
ROOT
HETATM    1  C3  UNL     1       5.699 -14.846  19.121  1.00  0.00     0.178 C 
HETATM    2  C4  UNL     1       7.046 -15.150  19.724  1.00  0.00     0.241 C 
HETATM    3  O1  UNL     1       7.055 -16.077  20.608  1.00  0.00    -0.271 OA
HETATM    4  N1  UNL     1       8.252 -14.502  19.391  1.00  0.00    -0.346 N 
ATOM      5  H1  UNL     1       8.870 -14.325  20.183  1.00  0.00     0.163 HD
HETATM    6  C5  UNL     1       8.748 -14.060  18.161  1.00  0.00     0.177 C 
HETATM    7  C10 UNL     1       8.468 -12.641  17.805  1.00  0.00     0.240 C 
HETATM    8  O2  UNL     1       8.993 -12.425  16.637  1.00  0.00    -0.271 OA
HETATM    9  N2  UNL     1       7.813 -11.596  18.414  1.00  0.00    -0.354 N 
ATOM     10  H2  UNL     1       6.885 -11.482  18.009  1.00  0.00     0.162 HD
HETATM   11  C11 UNL     1       8.025 -10.630  19.426  1.00  0.00     0.096 C 
HETATM   12  C15 UNL     1       8.429  -9.270  18.886  1.00  0.00     0.128 C 
HETATM   13  C16 UNL     1       7.857  -8.859  17.618  1.00  0.00     0.220 C 
HETATM   14  O3  UNL     1       8.600  -9.068  16.605  1.00  0.00    -0.274 OA
HETATM   15  N3  UNL     1       6.609  -8.266  17.338  1.00  0.00    -0.348 N 
ATOM     16  H3  UNL     1       6.639  -7.389  16.818  1.00  0.00     0.163 HD
HETATM   17  C17 UNL     1       5.292  -8.742  17.698  1.00  0.00     0.176 C 
HETATM   18  C22 UNL     1       4.729  -9.233  16.374  1.00  0.00     0.241 C 
HETATM   19  O4  UNL     1       4.459  -8.237  15.607  1.00  0.00    -0.271 OA
HETATM   20  N5  UNL     1       4.510 -10.531  15.969  1.00  0.00    -0.346 N 
ATOM     21  H5  UNL     1       5.082 -10.812  15.172  1.00  0.00     0.163 HD
HETATM   22  C23 UNL     1       3.631 -11.572  16.447  1.00  0.00     0.177 C 
HETATM   23  C28 UNL     1       3.358 -12.533  15.378  1.00  0.00     0.241 C 
HETATM   24  O5  UNL     1       3.254 -12.121  14.206  1.00  0.00    -0.271 OA
HETATM   25  N6  UNL     1       3.201 -13.920  15.590  1.00  0.00    -0.346 N 
ATOM     26  H6  UNL     1       2.954 -14.478  14.774  1.00  0.00     0.163 HD
HETATM   27  C29 UNL     1       3.351 -14.630  16.826  1.00  0.00     0.177 C 
HETATM   28  C34 UNL     1       4.744 -15.214  16.828  1.00  0.00     0.243 C 
HETATM   29  O6  UNL     1       5.285 -15.341  15.683  1.00  0.00    -0.271 OA
HETATM   30  N7  UNL     1       5.482 -15.621  17.933  1.00  0.00    -0.341 N 
HETATM   31  C35 UNL     1       6.136 -16.963  17.956  1.00  0.00     0.153 C 
ENDROOT
BRANCH  17  32
HETATM   32  C18 UNL     1       4.330  -7.710  18.183  1.00  0.00     0.035 C 
BRANCH  32  33
HETATM   33  C19 UNL     1       4.744  -6.308  18.284  1.00  0.00     0.004 C 
BRANCH  33  34
HETATM   34  C20 UNL     1       4.067  -5.268  17.481  1.00  0.00     0.027 C 
BRANCH  34  35
HETATM   35  C21 UNL     1       5.010  -4.430  16.647  1.00  0.00     0.229 C 
BRANCH  35  36
HETATM   36  N4  UNL     1       5.900  -5.326  15.935  1.00  0.00    -0.079 N 
ATOM     37  H43 UNL     1       6.874  -5.225  16.223  1.00  0.00     0.274 HD
ATOM     38  H42 UNL     1       5.777  -6.302  16.208  1.00  0.00     0.274 HD
ATOM     39  H41 UNL     1       5.767  -5.177  14.936  1.00  0.00     0.274 HD
ENDBRANCH  35  36
ENDBRANCH  34  35
ENDBRANCH  33  34
ENDBRANCH  32  33
ENDBRANCH  17  32
BRANCH  22  40
HETATM   40  C24 UNL     1       2.486 -11.107  17.258  1.00  0.00     0.038 C 
BRANCH  40  41
HETATM   41  C25 UNL     1       2.395 -11.494  18.681  1.00  0.00    -0.020 C 
HETATM   42  C26 UNL     1       2.210 -10.411  19.684  1.00  0.00     0.009 C 
HETATM   43  C27 UNL     1       1.119 -12.367  18.782  1.00  0.00     0.009 C 
ENDBRANCH  40  41
ENDBRANCH  22  40
BRANCH  11  44
HETATM   44  C12 UNL     1       8.869 -10.911  20.611  1.00  0.00     0.001 C 
HETATM   45  C13 UNL     1      10.329 -11.120  20.364  1.00  0.00     0.011 C 
HETATM   46  C14 UNL     1       8.260 -11.775  21.673  1.00  0.00     0.011 C 
ENDBRANCH  11  44
BRANCH  27  47
HETATM   47  C30 UNL     1       2.442 -15.812  16.888  1.00  0.00     0.038 C 
BRANCH  47  48
HETATM   48  C31 UNL     1       1.708 -16.126  18.118  1.00  0.00    -0.020 C 
HETATM   49  C32 UNL     1       0.209 -16.088  18.053  1.00  0.00     0.009 C 
HETATM   50  C33 UNL     1       2.048 -17.554  18.607  1.00  0.00     0.009 C 
ENDBRANCH  47  48
ENDBRANCH  27  47
BRANCH   6  51
HETATM   51  C6  UNL     1      10.196 -14.330  17.848  1.00  0.00     0.038 C 
BRANCH  51  52
HETATM   52  C7  UNL     1      10.543 -15.650  17.296  1.00  0.00    -0.020 C 
HETATM   53  C8  UNL     1      12.000 -15.820  17.065  1.00  0.00     0.009 C 
HETATM   54  C9  UNL     1       9.857 -15.766  15.924  1.00  0.00     0.009 C 
ENDBRANCH  51  52
ENDBRANCH   6  51
BRANCH   1  55
HETATM   55  C2  UNL     1       4.612 -15.270  20.124  1.00  0.00     0.030 C 
HETATM   56  C1  UNL     1       3.930 -14.055  20.707  1.00  0.00     0.007 C 
ENDBRANCH   1  55
TORSDOF 13
ENDMDL
MODEL 3
REMARK VINA RESULT: -5.091922720      1.118      1.340
REMARK  13 active torsions:
REMARK  status: ('A' for Active; 'I' for Inactive)
REMARK    1  A    between atoms: C2_2  and  C3_3 
REMARK    2  A    between atoms: C5_8  and  C6_9 
REMARK    3  A    between atoms: C6_9  and  C7_10 
REMARK    4  A    between atoms: C11_17  and  C12_18 
REMARK    5  A    between atoms: C17_26  and  C18_27 
REMARK    6  A    between atoms: C18_27  and  C19_28 
REMARK    7  A    between atoms: C19_28  and  C20_29 
REMARK    8  A    between atoms: C20_29  and  C21_30 
REMARK    9  A    between atoms: C21_30  and  N4_31 
REMARK   10  A    between atoms: C23_39  and  C24_40 
REMARK   11  A    between atoms: C24_40  and  C25_41 
REMARK   12  A    between atoms: C29_48  and  C30_49 
REMARK   13  A    between atoms: C30_49  and  C31_50 
ROOT
HETATM    1  C3  UNL     1       5.042 -14.689  19.120  1.00  0.00     0.178 C 
HETATM    2  C4  UNL     1       6.343 -15.221  19.663  1.00  0.00     0.241 C 
HETATM    3  O1  UNL     1       6.234 -16.170  20.517  1.00  0.00    -0.271 OA
HETATM    4  N1  UNL     1       7.625 -14.759  19.305  1.00  0.00    -0.346 N 
ATOM      5  H1  UNL     1       8.287 -14.709  20.079  1.00  0.00     0.163 HD
HETATM    6  C5  UNL     1       8.145 -14.356  18.072  1.00  0.00     0.177 C 
HETATM    7  C10 UNL     1       8.080 -12.898  17.770  1.00  0.00     0.240 C 
HETATM    8  O2  UNL     1       8.595 -12.725  16.591  1.00  0.00    -0.271 OA
HETATM    9  N2  UNL     1       7.618 -11.787  18.434  1.00  0.00    -0.354 N 
ATOM     10  H2  UNL     1       6.707 -11.514  18.068  1.00  0.00     0.162 HD
HETATM   11  C11 UNL     1       8.011 -10.902  19.466  1.00  0.00     0.096 C 
HETATM   12  C15 UNL     1       8.608  -9.605  18.954  1.00  0.00     0.128 C 
HETATM   13  C16 UNL     1       8.067  -9.063  17.721  1.00  0.00     0.220 C 
HETATM   14  O3  UNL     1       8.735  -9.349  16.675  1.00  0.00    -0.274 OA
HETATM   15  N3  UNL     1       6.920  -8.273  17.506  1.00  0.00    -0.348 N 
ATOM     16  H3  UNL     1       7.072  -7.394  17.012  1.00  0.00     0.163 HD
HETATM   17  C17 UNL     1       5.556  -8.550  17.900  1.00  0.00     0.176 C 
HETATM   18  C22 UNL     1       4.882  -8.898  16.584  1.00  0.00     0.241 C 
HETATM   19  O4  UNL     1       4.748  -7.846  15.857  1.00  0.00    -0.271 OA
HETATM   20  N5  UNL     1       4.448 -10.131  16.147  1.00  0.00    -0.346 N 
ATOM     21  H5  UNL     1       4.942 -10.469  15.322  1.00  0.00     0.163 HD
HETATM   22  C23 UNL     1       3.432 -11.038  16.626  1.00  0.00     0.177 C 
HETATM   23  C28 UNL     1       2.976 -11.905  15.539  1.00  0.00     0.241 C 
HETATM   24  O5  UNL     1       2.901 -11.441  14.385  1.00  0.00    -0.271 OA
HETATM   25  N6  UNL     1       2.610 -13.257  15.715  1.00  0.00    -0.346 N 
ATOM     26  H6  UNL     1       2.252 -13.741  14.891  1.00  0.00     0.163 HD
HETATM   27  C29 UNL     1       2.685 -14.027  16.922  1.00  0.00     0.177 C 
HETATM   28  C34 UNL     1       3.968 -14.821  16.854  1.00  0.00     0.243 C 
HETATM   29  O6  UNL     1       4.446 -14.990  15.687  1.00  0.00    -0.271 OA
HETATM   30  N7  UNL     1       4.667 -15.378  17.917  1.00  0.00    -0.341 N 
HETATM   31  C35 UNL     1       5.102 -16.805  17.875  1.00  0.00     0.153 C 
ENDROOT
BRANCH  17  32
HETATM   32  C18 UNL     1       4.785  -7.398  18.452  1.00  0.00     0.035 C 
BRANCH  32  33
HETATM   33  C19 UNL     1       5.489  -6.259  19.046  1.00  0.00     0.004 C 
BRANCH  33  34
HETATM   34  C20 UNL     1       6.420  -5.447  18.234  1.00  0.00     0.027 C 
BRANCH  34  35
HETATM   35  C21 UNL     1       5.768  -4.779  17.044  1.00  0.00     0.229 C 
BRANCH  35  36
HETATM   36  N4  UNL     1       6.499  -5.165  15.853  1.00  0.00    -0.079 N 
ATOM     37  H43 UNL     1       7.185  -4.467  15.569  1.00  0.00     0.274 HD
ATOM     38  H42 UNL     1       7.148  -5.934  16.022  1.00  0.00     0.274 HD
ATOM     39  H41 UNL     1       5.822  -5.375  15.120  1.00  0.00     0.274 HD
ENDBRANCH  35  36
ENDBRANCH  34  35
ENDBRANCH  33  34
ENDBRANCH  32  33
ENDBRANCH  17  32
BRANCH  22  40
HETATM   40  C24 UNL     1       2.400 -10.429  17.492  1.00  0.00     0.038 C 
BRANCH  40  41
HETATM   41  C25 UNL     1       2.028 -11.093  18.759  1.00  0.00    -0.020 C 
HETATM   42  C26 UNL     1       2.050 -10.278  20.003  1.00  0.00     0.009 C 
HETATM   43  C27 UNL     1       0.547 -11.514  18.575  1.00  0.00     0.009 C 
ENDBRANCH  40  41
ENDBRANCH  22  40
BRANCH  11  44
HETATM   44  C12 UNL     1       8.839 -11.355  20.610  1.00  0.00     0.001 C 
HETATM   45  C13 UNL     1       8.149 -12.156  21.667  1.00  0.00     0.011 C 
HETATM   46  C14 UNL     1       9.880 -10.393  21.100  1.00  0.00     0.011 C 
ENDBRANCH  11  44
BRANCH  27  47
HETATM   47  C30 UNL     1       1.604 -15.053  16.981  1.00  0.00     0.038 C 
BRANCH  47  48
HETATM   48  C31 UNL     1       0.874 -15.298  18.229  1.00  0.00    -0.020 C 
HETATM   49  C32 UNL     1      -0.610 -15.077  18.213  1.00  0.00     0.009 C 
HETATM   50  C33 UNL     1       1.054 -16.765  18.688  1.00  0.00     0.009 C 
ENDBRANCH  47  48
ENDBRANCH  27  47
BRANCH   6  51
HETATM   51  C6  UNL     1       9.521 -14.838  17.697  1.00  0.00     0.038 C 
BRANCH  51  52
HETATM   52  C7  UNL     1       9.624 -16.098  16.943  1.00  0.00    -0.020 C 
HETATM   53  C8  UNL     1      10.803 -16.143  16.040  1.00  0.00     0.009 C 
HETATM   54  C9  UNL     1       8.375 -16.202  16.052  1.00  0.00     0.009 C 
ENDBRANCH  51  52
ENDBRANCH   6  51
BRANCH   1  55
HETATM   55  C2  UNL     1       3.934 -14.974  20.149  1.00  0.00     0.030 C 
HETATM   56  C1  UNL     1       3.477 -13.690  20.800  1.00  0.00     0.007 C 
ENDBRANCH   1  55
TORSDOF 13
ENDMDL
MODEL 4
REMARK VINA RESULT: -4.988323322      2.432      6.982
REMARK  13 active torsions:
REMARK  status: ('A' for Active; 'I' for Inactive)
REMARK    1  A    between atoms: C2_2  and  C3_3 
REMARK    2  A    between atoms: C5_8  and  C6_9 
REMARK    3  A    between atoms: C6_9  and  C7_10 
REMARK    4  A    between atoms: C11_17  and  C12_18 
REMARK    5  A    between atoms: C17_26  and  C18_27 
REMARK    6  A    between atoms: C18_27  and  C19_28 
REMARK    7  A    between atoms: C19_28  and  C20_29 
REMARK    8  A    between atoms: C20_29  and  C21_30 
REMARK    9  A    between atoms: C21_30  and  N4_31 
REMARK   10  A    between atoms: C23_39  and  C24_40 
REMARK   11  A    between atoms: C24_40  and  C25_41 
REMARK   12  A    between atoms: C29_48  and  C30_49 
REMARK   13  A    between atoms: C30_49  and  C31_50 
ROOT
HETATM    1  C3  UNL     1       5.952 -10.074  17.489  1.00  0.00     0.178 C 
HETATM    2  C4  UNL     1       7.392 -10.513  17.523  1.00  0.00     0.241 C 
HETATM    3  O1  UNL     1       8.087 -10.192  16.496  1.00  0.00    -0.271 OA
HETATM    4  N1  UNL     1       8.001 -11.227  18.574  1.00  0.00    -0.346 N 
ATOM      5  H1  UNL     1       8.662 -11.943  18.270  1.00  0.00     0.163 HD
HETATM    6  C5  UNL     1       7.856 -11.125  19.960  1.00  0.00     0.177 C 
HETATM    7  C10 UNL     1       6.856 -12.030  20.590  1.00  0.00     0.240 C 
HETATM    8  O2  UNL     1       6.858 -11.781  21.864  1.00  0.00    -0.271 OA
HETATM    9  N2  UNL     1       5.994 -12.998  20.131  1.00  0.00    -0.354 N 
ATOM     10  H2  UNL     1       5.048 -12.623  20.067  1.00  0.00     0.162 HD
HETATM   11  C11 UNL     1       6.008 -14.352  19.719  1.00  0.00     0.096 C 
HETATM   12  C15 UNL     1       5.555 -15.316  20.799  1.00  0.00     0.128 C 
HETATM   13  C16 UNL     1       4.520 -14.859  21.709  1.00  0.00     0.220 C 
HETATM   14  O3  UNL     1       4.948 -14.402  22.817  1.00  0.00    -0.274 OA
HETATM   15  N3  UNL     1       3.120 -14.847  21.552  1.00  0.00    -0.348 N 
ATOM     16  H3  UNL     1       2.585 -15.316  22.283  1.00  0.00     0.163 HD
HETATM   17  C17 UNL     1       2.345 -14.253  20.484  1.00  0.00     0.176 C 
HETATM   18  C22 UNL     1       1.725 -13.033  21.145  1.00  0.00     0.241 C 
HETATM   19  O4  UNL     1       0.813 -13.391  21.978  1.00  0.00    -0.271 OA
HETATM   20  N5  UNL     1       2.033 -11.706  20.947  1.00  0.00    -0.346 N 
ATOM     21  H5  UNL     1       2.414 -11.246  21.774  1.00  0.00     0.163 HD
HETATM   22  C23 UNL     1       1.924 -10.835  19.800  1.00  0.00     0.177 C 
HETATM   23  C28 UNL     1       1.838  -9.439  20.232  1.00  0.00     0.241 C 
HETATM   24  O5  UNL     1       1.223  -9.167  21.281  1.00  0.00    -0.271 OA
HETATM   25  N6  UNL     1       2.418  -8.363  19.526  1.00  0.00    -0.346 N 
ATOM     26  H6  UNL     1       2.238  -7.429  19.896  1.00  0.00     0.163 HD
HETATM   27  C29 UNL     1       3.230  -8.435  18.347  1.00  0.00     0.177 C 
HETATM   28  C34 UNL     1       4.668  -8.361  18.803  1.00  0.00     0.243 C 
HETATM   29  O6  UNL     1       4.852  -7.847  19.953  1.00  0.00    -0.271 OA
HETATM   30  N7  UNL     1       5.792  -8.787  18.107  1.00  0.00    -0.341 N 
HETATM   31  C35 UNL     1       6.974  -7.888  17.950  1.00  0.00     0.153 C 
ENDROOT
BRANCH  17  32
HETATM   32  C18 UNL     1       1.197 -15.060  19.979  1.00  0.00     0.035 C 
BRANCH  32  33
HETATM   33  C19 UNL     1       1.342 -15.863  18.761  1.00  0.00     0.004 C 
BRANCH  33  34
HETATM   34  C20 UNL     1       2.658 -15.993  18.102  1.00  0.00     0.027 C 
BRANCH  34  35
HETATM   35  C21 UNL     1       3.393 -17.267  18.452  1.00  0.00     0.229 C 
BRANCH  35  36
HETATM   36  N4  UNL     1       4.617 -17.310  17.677  1.00  0.00    -0.079 N 
ATOM     37  H43 UNL     1       5.253 -18.045  17.985  1.00  0.00     0.274 HD
ATOM     38  H42 UNL     1       4.469 -17.646  16.725  1.00  0.00     0.274 HD
ATOM     39  H41 UNL     1       5.042 -16.383  17.705  1.00  0.00     0.274 HD
ENDBRANCH  35  36
ENDBRANCH  34  35
ENDBRANCH  33  34
ENDBRANCH  32  33
ENDBRANCH  17  32
BRANCH  22  40
HETATM   40  C24 UNL     1       0.981 -11.285  18.754  1.00  0.00     0.038 C 
BRANCH  40  41
HETATM   41  C25 UNL     1       1.499 -11.690  17.431  1.00  0.00    -0.020 C 
HETATM   42  C26 UNL     1       2.792 -12.425  17.386  1.00  0.00     0.009 C 
HETATM   43  C27 UNL     1       0.447 -12.681  16.871  1.00  0.00     0.009 C 
ENDBRANCH  40  41
ENDBRANCH  22  40
BRANCH  11  44
HETATM   44  C12 UNL     1       7.186 -14.952  19.048  1.00  0.00     0.001 C 
HETATM   45  C13 UNL     1       7.336 -14.689  17.584  1.00  0.00     0.011 C 
HETATM   46  C14 UNL     1       7.585 -16.323  19.505  1.00  0.00     0.011 C 
ENDBRANCH  11  44
BRANCH  27  47
HETATM   47  C30 UNL     1       3.041  -7.235  17.482  1.00  0.00     0.038 C 
BRANCH  47  48
HETATM   48  C31 UNL     1       3.366  -5.895  17.983  1.00  0.00    -0.020 C 
HETATM   49  C32 UNL     1       4.408  -5.116  17.236  1.00  0.00     0.009 C 
HETATM   50  C33 UNL     1       2.111  -4.990  17.976  1.00  0.00     0.009 C 
ENDBRANCH  47  48
ENDBRANCH  27  47
BRANCH   6  51
HETATM   51  C6  UNL     1       9.103 -11.167  20.803  1.00  0.00     0.038 C 
BRANCH  51  52
HETATM   52  C7  UNL     1      10.288 -11.836  20.242  1.00  0.00    -0.020 C 
HETATM   53  C8  UNL     1      10.280 -13.306  20.449  1.00  0.00     0.009 C 
HETATM   54  C9  UNL     1      11.518 -11.287  20.984  1.00  0.00     0.009 C 
ENDBRANCH  51  52
ENDBRANCH   6  51
BRANCH   1  55
HETATM   55  C2  UNL     1       5.529  -9.907  16.019  1.00  0.00     0.030 C 
HETATM   56  C1  UNL     1       5.241 -11.254  15.398  1.00  0.00     0.007 C 
ENDBRANCH   1  55
TORSDOF 13
ENDMDL
MODEL 5
REMARK VINA RESULT: -4.737428758      2.572      6.772
REMARK  13 active torsions:
REMARK  status: ('A' for Active; 'I' for Inactive)
REMARK    1  A    between atoms: C2_2  and  C3_3 
REMARK    2  A    between atoms: C5_8  and  C6_9 
REMARK    3  A    between atoms: C6_9  and  C7_10 
REMARK    4  A    between atoms: C11_17  and  C12_18 
REMARK    5  A    between atoms: C17_26  and  C18_27 
REMARK    6  A    between atoms: C18_27  and  C19_28 
REMARK    7  A    between atoms: C19_28  and  C20_29 
REMARK    8  A    between atoms: C20_29  and  C21_30 
REMARK    9  A    between atoms: C21_30  and  N4_31 
REMARK   10  A    between atoms: C23_39  and  C24_40 
REMARK   11  A    between atoms: C24_40  and  C25_41 
REMARK   12  A    between atoms: C29_48  and  C30_49 
REMARK   13  A    between atoms: C30_49  and  C31_50 
ROOT
HETATM    1  C3  UNL     1       6.012 -10.334  17.431  1.00  0.00     0.178 C 
HETATM    2  C4  UNL     1       7.435 -10.824  17.484  1.00  0.00     0.241 C 
HETATM    3  O1  UNL     1       8.125 -10.620  16.424  1.00  0.00    -0.271 OA
HETATM    4  N1  UNL     1       8.034 -11.468  18.585  1.00  0.00    -0.346 N 
ATOM      5  H1  UNL     1       8.663 -12.232  18.336  1.00  0.00     0.163 HD
HETATM    6  C5  UNL     1       7.915 -11.241  19.959  1.00  0.00     0.177 C 
HETATM    7  C10 UNL     1       6.892 -12.050  20.678  1.00  0.00     0.240 C 
HETATM    8  O2  UNL     1       6.924 -11.692  21.926  1.00  0.00    -0.271 OA
HETATM    9  N2  UNL     1       5.988 -13.019  20.315  1.00  0.00    -0.354 N 
ATOM     10  H2  UNL     1       5.055 -12.615  20.232  1.00  0.00     0.162 HD
HETATM   11  C11 UNL     1       5.944 -14.403  20.022  1.00  0.00     0.096 C 
HETATM   12  C15 UNL     1       5.473 -15.252  21.188  1.00  0.00     0.128 C 
HETATM   13  C16 UNL     1       4.471 -14.679  22.068  1.00  0.00     0.220 C 
HETATM   14  O3  UNL     1       4.934 -14.145  23.127  1.00  0.00    -0.274 OA
HETATM   15  N3  UNL     1       3.069 -14.626  21.928  1.00  0.00    -0.348 N 
ATOM     16  H3  UNL     1       2.529 -15.010  22.704  1.00  0.00     0.163 HD
HETATM   17  C17 UNL     1       2.300 -14.097  20.823  1.00  0.00     0.176 C 
HETATM   18  C22 UNL     1       1.737 -12.802  21.384  1.00  0.00     0.241 C 
HETATM   19  O4  UNL     1       0.825 -13.051  22.257  1.00  0.00    -0.271 OA
HETATM   20  N5  UNL     1       2.091 -11.509  21.067  1.00  0.00    -0.346 N 
ATOM     21  H5  UNL     1       2.502 -10.996  21.847  1.00  0.00     0.163 HD
HETATM   22  C23 UNL     1       1.996 -10.737  19.851  1.00  0.00     0.177 C 
HETATM   23  C28 UNL     1       1.970  -9.307  20.160  1.00  0.00     0.241 C 
HETATM   24  O5  UNL     1       1.382  -8.922  21.190  1.00  0.00    -0.271 OA
HETATM   25  N6  UNL     1       2.577  -8.319  19.357  1.00  0.00    -0.346 N 
ATOM     26  H6  UNL     1       2.439  -7.351  19.647  1.00  0.00     0.163 HD
HETATM   27  C29 UNL     1       3.368  -8.524  18.178  1.00  0.00     0.177 C 
HETATM   28  C34 UNL     1       4.814  -8.466  18.608  1.00  0.00     0.243 C 
HETATM   29  O6  UNL     1       5.036  -7.862  19.706  1.00  0.00    -0.271 OA
HETATM   30  N7  UNL     1       5.910  -8.994  17.936  1.00  0.00    -0.341 N 
HETATM   31  C35 UNL     1       7.122  -8.158  17.687  1.00  0.00     0.153 C 
ENDROOT
BRANCH  17  32
HETATM   32  C18 UNL     1       1.115 -14.900  20.404  1.00  0.00     0.035 C 
BRANCH  32  33
HETATM   33  C19 UNL     1       1.172 -15.718  19.190  1.00  0.00     0.004 C 
BRANCH  33  34
HETATM   34  C20 UNL     1       0.066 -15.683  18.210  1.00  0.00     0.027 C 
BRANCH  34  35
HETATM   35  C21 UNL     1      -1.209 -15.074  18.750  1.00  0.00     0.229 C 
BRANCH  35  36
HETATM   36  N4  UNL     1      -2.133 -14.909  17.646  1.00  0.00    -0.079 N 
ATOM     37  H43 UNL     1      -2.002 -14.026  17.152  1.00  0.00     0.274 HD
ATOM     38  H42 UNL     1      -1.929 -15.534  16.865  1.00  0.00     0.274 HD
ATOM     39  H41 UNL     1      -3.080 -15.024  18.005  1.00  0.00     0.274 HD
ENDBRANCH  35  36
ENDBRANCH  34  35
ENDBRANCH  33  34
ENDBRANCH  32  33
ENDBRANCH  17  32
BRANCH  22  40
HETATM   40  C24 UNL     1       1.020 -11.239  18.860  1.00  0.00     0.038 C 
BRANCH  40  41
HETATM   41  C25 UNL     1       1.493 -11.684  17.533  1.00  0.00    -0.020 C 
HETATM   42  C26 UNL     1       2.461 -12.813  17.482  1.00  0.00     0.009 C 
HETATM   43  C27 UNL     1       0.226 -12.202  16.805  1.00  0.00     0.009 C 
ENDBRANCH  40  41
ENDBRANCH  22  40
BRANCH  11  44
HETATM   44  C12 UNL     1       7.088 -15.104  19.391  1.00  0.00     0.001 C 
HETATM   45  C13 UNL     1       7.271 -14.908  17.920  1.00  0.00     0.011 C 
HETATM   46  C14 UNL     1       7.392 -16.479  19.905  1.00  0.00     0.011 C 
ENDBRANCH  11  44
BRANCH  27  47
HETATM   47  C30 UNL     1       3.210  -7.396  17.215  1.00  0.00     0.038 C 
BRANCH  47  48
HETATM   48  C31 UNL     1       2.397  -6.225  17.562  1.00  0.00    -0.020 C 
HETATM   49  C32 UNL     1       3.118  -5.017  18.082  1.00  0.00     0.009 C 
HETATM   50  C33 UNL     1       1.612  -5.720  16.329  1.00  0.00     0.009 C 
ENDBRANCH  47  48
ENDBRANCH  27  47
BRANCH   6  51
HETATM   51  C6  UNL     1       9.174 -11.259  20.787  1.00  0.00     0.038 C 
BRANCH  51  52
HETATM   52  C7  UNL     1      10.350 -11.947  20.231  1.00  0.00    -0.020 C 
HETATM   53  C8  UNL     1      10.362 -13.404  20.516  1.00  0.00     0.009 C 
HETATM   54  C9  UNL     1      11.593 -11.348  20.910  1.00  0.00     0.009 C 
ENDBRANCH  51  52
ENDBRANCH   6  51
BRANCH   1  55
HETATM   55  C2  UNL     1       5.572 -10.279  15.958  1.00  0.00     0.030 C 
HETATM   56  C1  UNL     1       4.917 -11.579  15.554  1.00  0.00     0.007 C 
ENDBRANCH   1  55
TORSDOF 13
ENDMDL
