MODEL 1
REMARK VINA RESULT: -9.063188820      0.000      0.000
REMARK  10 active torsions:
REMARK  status: ('A' for Active; 'I' for Inactive)
REMARK       I    between atoms: N1_2  and  C2_4 
REMARK    1  A    between atoms: C2_4  and  C3_6 
REMARK    2  A    between atoms: C3_6  and  C4_7 
REMARK    3  A    between atoms: C4_7  and  C5_8 
REMARK    4  A    between atoms: C5_8  and  C6_9 
REMARK    5  A    between atoms: C9_12  and  C10_13 
REMARK    6  A    between atoms: C13_16  and  C14_17 
REMARK       I    between atoms: C14_17  and  N2_19 
REMARK    7  A    between atoms: N2_19  and  C15_21 
REMARK    8  A    between atoms: C18_24  and  C19_25 
REMARK       I    between atoms: C19_25  and  N3_27 
REMARK    9  A    between atoms: N3_27  and  C20_29 
REMARK       I    between atoms: N4_32  and  C23_34 
REMARK   10  A    between atoms: C23_34  and  C24_36 
ROOT
HETATM    1  C15 UNL     1       3.276  -3.300  14.005  1.00  0.00     0.035 A 
HETATM    2  C16 UNL     1       2.346  -4.314  14.017  1.00  0.00     0.030 A 
HETATM    3  C17 UNL     1       2.498  -5.441  14.840  1.00  0.00     0.019 A 
HETATM    4  C18 UNL     1       3.586  -5.562  15.657  1.00  0.00     0.032 A 
HETATM    5  C27 UNL     1       4.519  -4.539  15.641  1.00  0.00     0.019 A 
HETATM    6  C28 UNL     1       4.361  -3.419  14.820  1.00  0.00     0.030 A 
ENDROOT
BRANCH   1   7
HETATM    7  N2  UNL     1       3.105  -2.237  13.124  1.00  0.00    -0.323 N 
HETATM    8  C14 UNL     1       2.349  -1.093  13.390  1.00  0.00     0.256 C 
HETATM    9  O2  UNL     1       1.741  -1.007  14.506  1.00  0.00    -0.267 OA
ATOM     10  H2  UNL     1       3.567  -2.297  12.216  1.00  0.00     0.169 HD
BRANCH   8  11
HETATM   11  C13 UNL     1       2.217   0.037  12.436  1.00  0.00     0.032 A 
HETATM   12  C12 UNL     1       3.210   1.013  12.409  1.00  0.00     0.018 A 
HETATM   13  C11 UNL     1       3.145   2.080  11.525  1.00  0.00     0.015 A 
HETATM   14  C10 UNL     1       2.098   2.220  10.639  1.00  0.00    -0.002 A 
HETATM   15  C30 UNL     1       1.120   1.250  10.674  1.00  0.00     0.015 A 
HETATM   16  C29 UNL     1       1.179   0.175  11.559  1.00  0.00     0.018 A 
BRANCH  14  17
HETATM   17  C9  UNL     1       2.003   3.328   9.688  1.00  0.00     0.086 A 
HETATM   18  C8  UNL     1       2.128   4.663   9.962  1.00  0.00     0.040 A 
HETATM   19  C7  UNL     1       1.969   5.345   8.774  1.00  0.00     0.035 A 
HETATM   20  C6  UNL     1       1.752   4.403   7.814  1.00  0.00     0.053 A 
HETATM   21  O6  UNL     1       1.782   3.220   8.406  1.00  0.00    -0.314 OA
BRANCH  20  22
HETATM   22  C5  UNL     1       1.510   4.511   6.349  1.00  0.00     0.065 C 
BRANCH  22  23
HETATM   23  C4  UNL     1       2.648   5.148   5.650  1.00  0.00     0.016 C 
BRANCH  23  24
HETATM   24  C3  UNL     1       3.822   4.248   5.494  1.00  0.00     0.103 C 
BRANCH  24  25
HETATM   25  C2  UNL     1       4.917   4.543   6.450  1.00  0.00     0.217 C 
HETATM   26  N1  UNL     1       5.863   3.510   6.765  1.00  0.00    -0.365 N 
HETATM   27  C1  UNL     1       6.929   3.793   7.694  1.00  0.00     0.149 C 
ATOM     28  H1  UNL     1       5.782   2.587   6.338  1.00  0.00     0.161 HD
HETATM   29  O1  UNL     1       5.026   5.670   6.980  1.00  0.00    -0.274 OA
ENDBRANCH  24  25
ENDBRANCH  23  24
ENDBRANCH  22  23
ENDBRANCH  20  22
ENDBRANCH  14  17
ENDBRANCH   8  11
ENDBRANCH   1   7
BRANCH   4  30
HETATM   30  C19 UNL     1       3.839  -6.728  16.520  1.00  0.00     0.257 C 
HETATM   31  O3  UNL     1       2.914  -7.090  17.281  1.00  0.00    -0.267 OA
HETATM   32  N3  UNL     1       5.089  -7.363  16.449  1.00  0.00    -0.309 N 
ATOM     33  H3  UNL     1       5.740  -6.988  15.760  1.00  0.00     0.170 HD
BRANCH  32  34
HETATM   34  C20 UNL     1       5.559  -8.455  17.210  1.00  0.00     0.109 A 
HETATM   35  C21 UNL     1       6.823  -8.493  17.714  1.00  0.00     0.078 A 
HETATM   36  C22 UNL     1       7.231  -9.609  18.435  1.00  0.00     0.040 A 
HETATM   37  N4  UNL     1       8.436  -9.603  18.891  1.00  0.00    -0.319 N 
HETATM   38  C25 UNL     1       6.370 -10.665  18.640  1.00  0.00     0.046 A 
HETATM   39  C23 UNL     1       9.006 -10.653  19.642  1.00  0.00     0.311 C 
ATOM     40  H4  UNL     1       9.015  -8.786  18.696  1.00  0.00     0.169 HD
HETATM   41  O4  UNL     1       8.503 -11.064  20.721  1.00  0.00    -0.262 OA
HETATM   42  C26 UNL     1       5.113 -10.606  18.131  1.00  0.00     0.092 A 
HETATM   43  N6  UNL     1       4.733  -9.525  17.437  1.00  0.00    -0.352 N 
ATOM     44  H6  UNL     1       3.785  -9.497  17.060  1.00  0.00     0.166 HD
BRANCH  39  45
HETATM   45  C24 UNL     1      10.220 -11.266  19.134  1.00  0.00     0.322 C 
HETATM   46  N5  UNL     1      10.420 -11.351  17.738  1.00  0.00    -0.053 NA
HETATM   47  O5  UNL     1      11.108 -11.729  19.919  1.00  0.00    -0.266 OA
ENDBRANCH  39  45
ENDBRANCH  32  34
ENDBRANCH   4  30
TORSDOF 10
ENDMDL
MODEL 2
REMARK VINA RESULT: -9.058258197      5.193     14.918
REMARK  10 active torsions:
REMARK  status: ('A' for Active; 'I' for Inactive)
REMARK       I    between atoms: N1_2  and  C2_4 
REMARK    1  A    between atoms: C2_4  and  C3_6 
REMARK    2  A    between atoms: C3_6  and  C4_7 
REMARK    3  A    between atoms: C4_7  and  C5_8 
REMARK    4  A    between atoms: C5_8  and  C6_9 
REMARK    5  A    between atoms: C9_12  and  C10_13 
REMARK    6  A    between atoms: C13_16  and  C14_17 
REMARK       I    between atoms: C14_17  and  N2_19 
REMARK    7  A    between atoms: N2_19  and  C15_21 
REMARK    8  A    between atoms: C18_24  and  C19_25 
REMARK       I    between atoms: C19_25  and  N3_27 
REMARK    9  A    between atoms: N3_27  and  C20_29 
REMARK       I    between atoms: N4_32  and  C23_34 
REMARK   10  A    between atoms: C23_34  and  C24_36 
ROOT
HETATM    1  C15 UNL     1       5.420  -4.090  16.555  1.00  0.00     0.035 A 
HETATM    2  C16 UNL     1       6.754  -4.377  16.381  1.00  0.00     0.030 A 
HETATM    3  C17 UNL     1       7.607  -3.508  15.681  1.00  0.00     0.019 A 
HETATM    4  C18 UNL     1       7.128  -2.345  15.150  1.00  0.00     0.032 A 
HETATM    5  C27 UNL     1       5.784  -2.061  15.328  1.00  0.00     0.019 A 
HETATM    6  C28 UNL     1       4.942  -2.930  16.026  1.00  0.00     0.030 A 
ENDROOT
BRANCH   1   7
HETATM    7  N2  UNL     1       4.609  -5.017  17.203  1.00  0.00    -0.323 N 
HETATM    8  C14 UNL     1       3.874  -6.018  16.564  1.00  0.00     0.256 C 
HETATM    9  O2  UNL     1       3.914  -6.091  15.292  1.00  0.00    -0.267 OA
ATOM     10  H2  UNL     1       4.548  -4.962  18.219  1.00  0.00     0.169 HD
BRANCH   8  11
HETATM   11  C13 UNL     1       3.045  -7.011  17.293  1.00  0.00     0.032 A 
HETATM   12  C12 UNL     1       2.837  -6.841  18.658  1.00  0.00     0.018 A 
HETATM   13  C11 UNL     1       2.056  -7.729  19.383  1.00  0.00     0.015 A 
HETATM   14  C10 UNL     1       1.456  -8.816  18.785  1.00  0.00    -0.002 A 
HETATM   15  C30 UNL     1       1.667  -8.978  17.433  1.00  0.00     0.015 A 
HETATM   16  C29 UNL     1       2.451  -8.088  16.698  1.00  0.00     0.018 A 
BRANCH  14  17
HETATM   17  C9  UNL     1       0.619  -9.767  19.518  1.00  0.00     0.086 A 
HETATM   18  C8  UNL     1       0.577 -11.125  19.353  1.00  0.00     0.040 A 
HETATM   19  C7  UNL     1      -0.347 -11.621  20.249  1.00  0.00     0.035 A 
HETATM   20  C6  UNL     1      -0.838 -10.549  20.931  1.00  0.00     0.053 A 
HETATM   21  O6  UNL     1      -0.233  -9.470  20.461  1.00  0.00    -0.314 OA
BRANCH  20  22
HETATM   22  C5  UNL     1      -1.854 -10.437  22.013  1.00  0.00     0.065 C 
BRANCH  22  23
HETATM   23  C4  UNL     1      -3.179 -10.927  21.575  1.00  0.00     0.016 C 
BRANCH  23  24
HETATM   24  C3  UNL     1      -4.304 -10.062  22.019  1.00  0.00     0.103 C 
BRANCH  24  25
HETATM   25  C2  UNL     1      -4.314  -8.731  21.363  1.00  0.00     0.217 C 
HETATM   26  N1  UNL     1      -3.962  -7.573  22.134  1.00  0.00    -0.365 N 
HETATM   27  C1  UNL     1      -3.969  -6.278  21.500  1.00  0.00     0.149 C 
ATOM     28  H1  UNL     1      -3.709  -7.664  23.118  1.00  0.00     0.161 HD
HETATM   29  O1  UNL     1      -4.621  -8.607  20.157  1.00  0.00    -0.274 OA
ENDBRANCH  24  25
ENDBRANCH  23  24
ENDBRANCH  22  23
ENDBRANCH  20  22
ENDBRANCH  14  17
ENDBRANCH   8  11
ENDBRANCH   1   7
BRANCH   4  30
HETATM   30  C19 UNL     1       7.946  -1.400  14.370  1.00  0.00     0.257 C 
HETATM   31  O3  UNL     1       9.130  -1.230  14.736  1.00  0.00    -0.267 OA
HETATM   32  N3  UNL     1       7.363  -0.745  13.275  1.00  0.00    -0.309 N 
ATOM     33  H3  UNL     1       6.399  -1.002  13.064  1.00  0.00     0.170 HD
BRANCH  32  34
HETATM   34  C20 UNL     1       7.940   0.226  12.427  1.00  0.00     0.109 A 
HETATM   35  C21 UNL     1       7.183   1.088  11.696  1.00  0.00     0.078 A 
HETATM   36  C22 UNL     1       7.815   2.004  10.863  1.00  0.00     0.040 A 
HETATM   37  N4  UNL     1       7.059   2.799  10.187  1.00  0.00    -0.319 N 
HETATM   38  C25 UNL     1       9.189   2.041  10.776  1.00  0.00     0.046 A 
HETATM   39  C23 UNL     1       7.537   3.785   9.298  1.00  0.00     0.311 C 
ATOM     40  H4  UNL     1       6.049   2.709  10.302  1.00  0.00     0.169 HD
HETATM   41  O4  UNL     1       8.327   4.698   9.661  1.00  0.00    -0.262 OA
HETATM   42  C26 UNL     1       9.926   1.174  11.516  1.00  0.00     0.092 A 
HETATM   43  N6  UNL     1       9.305   0.296  12.314  1.00  0.00    -0.352 N 
ATOM     44  H6  UNL     1       9.873  -0.350  12.862  1.00  0.00     0.166 HD
BRANCH  39  45
HETATM   45  C24 UNL     1       7.087   3.729   7.919  1.00  0.00     0.322 C 
HETATM   46  N5  UNL     1       6.569   4.895   7.314  1.00  0.00    -0.053 NA
HETATM   47  O5  UNL     1       7.149   2.652   7.244  1.00  0.00    -0.266 OA
ENDBRANCH  39  45
ENDBRANCH  32  34
ENDBRANCH   4  30
TORSDOF 10
ENDMDL
MODEL 3
REMARK VINA RESULT: -9.051457005      2.420     15.198
REMARK  10 active torsions:
REMARK  status: ('A' for Active; 'I' for Inactive)
REMARK       I    between atoms: N1_2  and  C2_4 
REMARK    1  A    between atoms: C2_4  and  C3_6 
REMARK    2  A    between atoms: C3_6  and  C4_7 
REMARK    3  A    between atoms: C4_7  and  C5_8 
REMARK    4  A    between atoms: C5_8  and  C6_9 
REMARK    5  A    between atoms: C9_12  and  C10_13 
REMARK    6  A    between atoms: C13_16  and  C14_17 
REMARK       I    between atoms: C14_17  and  N2_19 
REMARK    7  A    between atoms: N2_19  and  C15_21 
REMARK    8  A    between atoms: C18_24  and  C19_25 
REMARK       I    between atoms: C19_25  and  N3_27 
REMARK    9  A    between atoms: N3_27  and  C20_29 
REMARK       I    between atoms: N4_32  and  C23_34 
REMARK   10  A    between atoms: C23_34  and  C24_36 
ROOT
HETATM    1  C15 UNL     1       2.300  -0.261  13.148  1.00  0.00     0.035 A 
HETATM    2  C16 UNL     1       3.347   0.631  13.152  1.00  0.00     0.030 A 
HETATM    3  C17 UNL     1       3.286   1.839  12.439  1.00  0.00     0.019 A 
HETATM    4  C18 UNL     1       2.174   2.160  11.714  1.00  0.00     0.032 A 
HETATM    5  C27 UNL     1       1.123   1.259  11.713  1.00  0.00     0.019 A 
HETATM    6  C28 UNL     1       1.191   0.059  12.426  1.00  0.00     0.030 A 
ENDROOT
BRANCH   1   7
HETATM    7  N2  UNL     1       2.441  -1.470  13.822  1.00  0.00    -0.323 N 
HETATM    8  C14 UNL     1       3.422  -2.427  13.550  1.00  0.00     0.256 C 
HETATM    9  O2  UNL     1       4.245  -2.207  12.602  1.00  0.00    -0.267 OA
ATOM     10  H2  UNL     1       1.778  -1.674  14.570  1.00  0.00     0.169 HD
BRANCH   8  11
HETATM   11  C13 UNL     1       3.561  -3.692  14.314  1.00  0.00     0.032 A 
HETATM   12  C12 UNL     1       2.573  -4.665  14.189  1.00  0.00     0.018 A 
HETATM   13  C11 UNL     1       2.662  -5.872  14.866  1.00  0.00     0.015 A 
HETATM   14  C10 UNL     1       3.729  -6.159  15.691  1.00  0.00    -0.002 A 
HETATM   15  C30 UNL     1       4.702  -5.191  15.809  1.00  0.00     0.015 A 
HETATM   16  C29 UNL     1       4.618  -3.975  15.130  1.00  0.00     0.018 A 
BRANCH  14  17
HETATM   17  C9  UNL     1       3.859  -7.425  16.413  1.00  0.00     0.086 A 
HETATM   18  C8  UNL     1       2.853  -8.292  16.744  1.00  0.00     0.040 A 
HETATM   19  C7  UNL     1       3.427  -9.352  17.416  1.00  0.00     0.035 A 
HETATM   20  C6  UNL     1       4.763  -9.096  17.472  1.00  0.00     0.053 A 
HETATM   21  O6  UNL     1       4.972  -7.940  16.863  1.00  0.00    -0.314 OA
BRANCH  20  22
HETATM   22  C5  UNL     1       5.899  -9.855  18.064  1.00  0.00     0.065 C 
BRANCH  22  23
HETATM   23  C4  UNL     1       7.145  -9.672  17.289  1.00  0.00     0.016 C 
BRANCH  23  24
HETATM   24  C3  UNL     1       8.202  -8.939  18.037  1.00  0.00     0.103 C 
BRANCH  24  25
HETATM   25  C2  UNL     1       8.251  -7.492  17.713  1.00  0.00     0.217 C 
HETATM   26  N1  UNL     1       8.596  -7.090  16.379  1.00  0.00    -0.365 N 
HETATM   27  C1  UNL     1       8.645  -5.685  16.060  1.00  0.00     0.149 C 
ATOM     28  H1  UNL     1       8.804  -7.789  15.665  1.00  0.00     0.161 HD
HETATM   29  O1  UNL     1       7.999  -6.627  18.579  1.00  0.00    -0.274 OA
ENDBRANCH  24  25
ENDBRANCH  23  24
ENDBRANCH  22  23
ENDBRANCH  20  22
ENDBRANCH  14  17
ENDBRANCH   8  11
ENDBRANCH   1   7
BRANCH   4  30
HETATM   30  C19 UNL     1       2.045   3.387  10.909  1.00  0.00     0.257 C 
HETATM   31  O3  UNL     1       1.199   4.230  11.280  1.00  0.00    -0.267 OA
HETATM   32  N3  UNL     1       2.865   3.544   9.780  1.00  0.00    -0.309 N 
ATOM     33  H3  UNL     1       3.537   2.796   9.611  1.00  0.00     0.170 HD
BRANCH  32  34
HETATM   34  C20 UNL     1       2.876   4.604   8.848  1.00  0.00     0.109 A 
HETATM   35  C21 UNL     1       3.949   4.850   8.046  1.00  0.00     0.078 A 
HETATM   36  C22 UNL     1       3.904   5.925   7.168  1.00  0.00     0.040 A 
HETATM   37  N4  UNL     1       4.942   6.122   6.430  1.00  0.00    -0.319 N 
HETATM   38  C25 UNL     1       2.790   6.734   7.104  1.00  0.00     0.046 A 
HETATM   39  C23 UNL     1       5.060   7.165   5.487  1.00  0.00     0.311 C 
ATOM     40  H4  UNL     1       5.730   5.482   6.536  1.00  0.00     0.169 HD
HETATM   41  O4  UNL     1       4.245   7.315   4.537  1.00  0.00    -0.262 OA
HETATM   42  C26 UNL     1       1.730   6.470   7.910  1.00  0.00     0.092 A 
HETATM   43  N6  UNL     1       1.787   5.432   8.754  1.00  0.00    -0.352 N 
ATOM     44  H6  UNL     1       0.982   5.248   9.354  1.00  0.00     0.166 HD
BRANCH  39  45
HETATM   45  C24 UNL     1       6.172   8.087   5.633  1.00  0.00     0.322 C 
HETATM   46  N5  UNL     1       6.694   8.726   4.487  1.00  0.00    -0.053 NA
HETATM   47  O5  UNL     1       6.685   8.332   6.772  1.00  0.00    -0.266 OA
ENDBRANCH  39  45
ENDBRANCH  32  34
ENDBRANCH   4  30
TORSDOF 10
ENDMDL
MODEL 4
REMARK VINA RESULT: -8.910799894      2.850      4.060
REMARK  10 active torsions:
REMARK  status: ('A' for Active; 'I' for Inactive)
REMARK       I    between atoms: N1_2  and  C2_4 
REMARK    1  A    between atoms: C2_4  and  C3_6 
REMARK    2  A    between atoms: C3_6  and  C4_7 
REMARK    3  A    between atoms: C4_7  and  C5_8 
REMARK    4  A    between atoms: C5_8  and  C6_9 
REMARK    5  A    between atoms: C9_12  and  C10_13 
REMARK    6  A    between atoms: C13_16  and  C14_17 
REMARK       I    between atoms: C14_17  and  N2_19 
REMARK    7  A    between atoms: N2_19  and  C15_21 
REMARK    8  A    between atoms: C18_24  and  C19_25 
REMARK       I    between atoms: C19_25  and  N3_27 
REMARK    9  A    between atoms: N3_27  and  C20_29 
REMARK       I    between atoms: N4_32  and  C23_34 
REMARK   10  A    between atoms: C23_34  and  C24_36 
ROOT
HETATM    1  C15 UNL     1       7.242  -3.018  14.414  1.00  0.00     0.035 A 
HETATM    2  C16 UNL     1       6.219  -3.097  15.329  1.00  0.00     0.030 A 
HETATM    3  C17 UNL     1       6.193  -4.093  16.319  1.00  0.00     0.019 A 
HETATM    4  C18 UNL     1       7.194  -5.018  16.397  1.00  0.00     0.032 A 
HETATM    5  C27 UNL     1       8.222  -4.935  15.473  1.00  0.00     0.019 A 
HETATM    6  C28 UNL     1       8.241  -3.941  14.491  1.00  0.00     0.030 A 
ENDROOT
BRANCH   1   7
HETATM    7  N2  UNL     1       7.183  -2.050  13.417  1.00  0.00    -0.323 N 
HETATM    8  C14 UNL     1       7.802  -0.798  13.482  1.00  0.00     0.256 C 
HETATM    9  O2  UNL     1       8.452  -0.491  14.533  1.00  0.00    -0.267 OA
ATOM     10  H2  UNL     1       6.649  -2.269  12.576  1.00  0.00     0.169 HD
BRANCH   8  11
HETATM   11  C13 UNL     1       7.744   0.198  12.382  1.00  0.00     0.032 A 
HETATM   12  C12 UNL     1       8.838   0.323  11.531  1.00  0.00     0.018 A 
HETATM   13  C11 UNL     1       8.829   1.225  10.477  1.00  0.00     0.015 A 
HETATM   14  C10 UNL     1       7.741   2.034  10.229  1.00  0.00    -0.002 A 
HETATM   15  C30 UNL     1       6.662   1.903  11.076  1.00  0.00     0.015 A 
HETATM   16  C29 UNL     1       6.665   0.998  12.137  1.00  0.00     0.018 A 
BRANCH  14  17
HETATM   17  C9  UNL     1       7.694   2.989   9.121  1.00  0.00     0.086 A 
HETATM   18  C8  UNL     1       8.452   4.119   8.975  1.00  0.00     0.040 A 
HETATM   19  C7  UNL     1       8.079   4.716   7.789  1.00  0.00     0.035 A 
HETATM   20  C6  UNL     1       7.106   3.930   7.250  1.00  0.00     0.053 A 
HETATM   21  O6  UNL     1       6.912   2.916   8.078  1.00  0.00    -0.314 OA
BRANCH  20  22
HETATM   22  C5  UNL     1       6.314   4.044   5.995  1.00  0.00     0.065 C 
BRANCH  22  23
HETATM   23  C4  UNL     1       4.859   4.009   6.259  1.00  0.00     0.016 C 
BRANCH  23  24
HETATM   24  C3  UNL     1       4.351   5.239   6.922  1.00  0.00     0.103 C 
BRANCH  24  25
HETATM   25  C2  UNL     1       3.578   4.961   8.158  1.00  0.00     0.217 C 
HETATM   26  N1  UNL     1       4.203   4.219   9.217  1.00  0.00    -0.365 N 
HETATM   27  C1  UNL     1       3.454   3.947  10.419  1.00  0.00     0.149 C 
ATOM     28  H1  UNL     1       5.163   3.889   9.120  1.00  0.00     0.161 HD
HETATM   29  O1  UNL     1       2.401   5.361   8.287  1.00  0.00    -0.274 OA
ENDBRANCH  24  25
ENDBRANCH  23  24
ENDBRANCH  22  23
ENDBRANCH  20  22
ENDBRANCH  14  17
ENDBRANCH   8  11
ENDBRANCH   1   7
BRANCH   4  30
HETATM   30  C19 UNL     1       7.223  -6.117  17.379  1.00  0.00     0.257 C 
HETATM   31  O3  UNL     1       7.225  -5.803  18.590  1.00  0.00    -0.267 OA
HETATM   32  N3  UNL     1       7.249  -7.440  16.913  1.00  0.00    -0.309 N 
ATOM     33  H3  UNL     1       7.207  -7.556  15.900  1.00  0.00     0.170 HD
BRANCH  32  34
HETATM   34  C20 UNL     1       7.326  -8.631  17.666  1.00  0.00     0.109 A 
HETATM   35  C21 UNL     1       8.452  -8.987  18.342  1.00  0.00     0.078 A 
HETATM   36  C22 UNL     1       8.469 -10.186  19.045  1.00  0.00     0.040 A 
HETATM   37  N4  UNL     1       9.557 -10.484  19.667  1.00  0.00    -0.319 N 
HETATM   38  C25 UNL     1       7.362 -11.006  19.061  1.00  0.00     0.046 A 
HETATM   39  C23 UNL     1       9.741 -11.659  20.428  1.00  0.00     0.311 C 
ATOM     40  H4  UNL     1      10.336  -9.827  19.606  1.00  0.00     0.169 HD
HETATM   41  O4  UNL     1       8.996 -11.961  21.398  1.00  0.00    -0.262 OA
HETATM   42  C26 UNL     1       6.248 -10.631  18.383  1.00  0.00     0.092 A 
HETATM   43  N6  UNL     1       6.245  -9.474  17.708  1.00  0.00    -0.352 N 
ATOM     44  H6  UNL     1       5.400  -9.208  17.202  1.00  0.00     0.166 HD
BRANCH  39  45
HETATM   45  C24 UNL     1      10.838 -12.536  20.062  1.00  0.00     0.322 C 
HETATM   46  N5  UNL     1      10.922 -13.024  18.739  1.00  0.00    -0.053 NA
HETATM   47  O5  UNL     1      11.728 -12.875  20.908  1.00  0.00    -0.266 OA
ENDBRANCH  39  45
ENDBRANCH  32  34
ENDBRANCH   4  30
TORSDOF 10
ENDMDL
MODEL 5
REMARK VINA RESULT: -8.735074967      2.896     14.855
REMARK  10 active torsions:
REMARK  status: ('A' for Active; 'I' for Inactive)
REMARK       I    between atoms: N1_2  and  C2_4 
REMARK    1  A    between atoms: C2_4  and  C3_6 
REMARK    2  A    between atoms: C3_6  and  C4_7 
REMARK    3  A    between atoms: C4_7  and  C5_8 
REMARK    4  A    between atoms: C5_8  and  C6_9 
REMARK    5  A    between atoms: C9_12  and  C10_13 
REMARK    6  A    between atoms: C13_16  and  C14_17 
REMARK       I    between atoms: C14_17  and  N2_19 
REMARK    7  A    between atoms: N2_19  and  C15_21 
REMARK    8  A    between atoms: C18_24  and  C19_25 
REMARK       I    between atoms: C19_25  and  N3_27 
REMARK    9  A    between atoms: N3_27  and  C20_29 
REMARK       I    between atoms: N4_32  and  C23_34 
REMARK   10  A    between atoms: C23_34  and  C24_36 
ROOT
HETATM    1  C15 UNL     1       3.931   0.018  13.398  1.00  0.00     0.035 A 
HETATM    2  C16 UNL     1       5.099   0.701  13.644  1.00  0.00     0.030 A 
HETATM    3  C17 UNL     1       5.547   1.722  12.790  1.00  0.00     0.019 A 
HETATM    4  C18 UNL     1       4.826   2.064  11.682  1.00  0.00     0.032 A 
HETATM    5  C27 UNL     1       3.651   1.374  11.439  1.00  0.00     0.019 A 
HETATM    6  C28 UNL     1       3.211   0.360  12.294  1.00  0.00     0.030 A 
ENDROOT
BRANCH   1   7
HETATM    7  N2  UNL     1       3.568  -1.026  14.244  1.00  0.00    -0.323 N 
HETATM    8  C14 UNL     1       3.951  -2.359  14.076  1.00  0.00     0.256 C 
HETATM    9  O2  UNL     1       4.665  -2.669  13.067  1.00  0.00    -0.267 OA
ATOM     10  H2  UNL     1       2.979  -0.801  15.045  1.00  0.00     0.169 HD
BRANCH   8  11
HETATM   11  C13 UNL     1       3.571  -3.441  15.019  1.00  0.00     0.032 A 
HETATM   12  C12 UNL     1       3.648  -4.763  14.591  1.00  0.00     0.018 A 
HETATM   13  C11 UNL     1       3.321  -5.813  15.437  1.00  0.00     0.015 A 
HETATM   14  C10 UNL     1       2.908  -5.593  16.734  1.00  0.00    -0.002 A 
HETATM   15  C30 UNL     1       2.835  -4.281  17.149  1.00  0.00     0.015 A 
HETATM   16  C29 UNL     1       3.162  -3.221  16.303  1.00  0.00     0.018 A 
BRANCH  14  17
HETATM   17  C9  UNL     1       2.565  -6.676  17.655  1.00  0.00     0.086 A 
HETATM   18  C8  UNL     1       2.478  -6.601  19.019  1.00  0.00     0.040 A 
HETATM   19  C7  UNL     1       2.128  -7.854  19.479  1.00  0.00     0.035 A 
HETATM   20  C6  UNL     1       2.014  -8.651  18.381  1.00  0.00     0.053 A 
HETATM   21  O6  UNL     1       2.283  -7.906  17.321  1.00  0.00    -0.314 OA
BRANCH  20  22
HETATM   22  C5  UNL     1       1.668 -10.091  18.227  1.00  0.00     0.065 C 
BRANCH  22  23
HETATM   23  C4  UNL     1       2.796 -10.969  18.607  1.00  0.00     0.016 C 
BRANCH  23  24
HETATM   24  C3  UNL     1       3.885 -11.000  17.594  1.00  0.00     0.103 C 
BRANCH  24  25
HETATM   25  C2  UNL     1       5.044 -10.146  17.955  1.00  0.00     0.217 C 
HETATM   26  N1  UNL     1       5.291  -8.953  17.197  1.00  0.00    -0.365 N 
HETATM   27  C1  UNL     1       6.416  -8.120  17.545  1.00  0.00     0.149 C 
ATOM     28  H1  UNL     1       4.679  -8.696  16.423  1.00  0.00     0.161 HD
HETATM   29  O1  UNL     1       5.801 -10.451  18.903  1.00  0.00    -0.274 OA
ENDBRANCH  24  25
ENDBRANCH  23  24
ENDBRANCH  22  23
ENDBRANCH  20  22
ENDBRANCH  14  17
ENDBRANCH   8  11
ENDBRANCH   1   7
BRANCH   4  30
HETATM   30  C19 UNL     1       5.245   3.095  10.716  1.00  0.00     0.257 C 
HETATM   31  O3  UNL     1       4.654   4.197  10.761  1.00  0.00    -0.267 OA
HETATM   32  N3  UNL     1       6.269   2.792   9.805  1.00  0.00    -0.309 N 
ATOM     33  H3  UNL     1       6.691   1.869   9.901  1.00  0.00     0.170 HD
BRANCH  32  34
HETATM   34  C20 UNL     1       6.790   3.603   8.774  1.00  0.00     0.109 A 
HETATM   35  C21 UNL     1       8.095   3.988   8.747  1.00  0.00     0.078 A 
HETATM   36  C22 UNL     1       8.538   4.806   7.714  1.00  0.00     0.040 A 
HETATM   37  N4  UNL     1       9.780   5.148   7.731  1.00  0.00    -0.319 N 
HETATM   38  C25 UNL     1       7.671   5.224   6.729  1.00  0.00     0.046 A 
HETATM   39  C23 UNL     1      10.390   5.971   6.760  1.00  0.00     0.311 C 
ATOM     40  H4  UNL     1      10.360   4.802   8.495  1.00  0.00     0.169 HD
HETATM   41  O4  UNL     1      10.391   5.684   5.533  1.00  0.00    -0.262 OA
HETATM   42  C26 UNL     1       6.374   4.826   6.772  1.00  0.00     0.092 A 
HETATM   43  N6  UNL     1       5.960   4.039   7.773  1.00  0.00    -0.352 N 
ATOM     44  H6  UNL     1       4.981   3.750   7.793  1.00  0.00     0.166 HD
BRANCH  39  45
HETATM   45  C24 UNL     1      11.037   7.189   7.214  1.00  0.00     0.322 C 
HETATM   46  N5  UNL     1      10.871   7.600   8.555  1.00  0.00    -0.053 NA
HETATM   47  O5  UNL     1      11.751   7.893   6.431  1.00  0.00    -0.266 OA
ENDBRANCH  39  45
ENDBRANCH  32  34
ENDBRANCH   4  30
TORSDOF 10
ENDMDL
