MODEL 1
REMARK VINA RESULT: -9.324480371      0.000      0.000
REMARK  12 active torsions:
REMARK  status: ('A' for Active; 'I' for Inactive)
REMARK    1  A    between atoms: C2_2  and  C3_3 
REMARK    2  A    between atoms: C3_3  and  C4_4 
REMARK    3  A    between atoms: C4_4  and  C5_5 
REMARK    4  A    between atoms: C5_5  and  C7_7 
REMARK    5  A    between atoms: C16_20  and  C17_21 
REMARK    6  A    between atoms: C17_21  and  C18_22 
REMARK    7  A    between atoms: C18_22  and  C19_23 
REMARK    8  A    between atoms: C20_28  and  O5_29 
REMARK    9  A    between atoms: C24_36  and  O6_37 
REMARK   10  A    between atoms: C25_39  and  C26_40 
REMARK   11  A    between atoms: C26_40  and  C27_41 
REMARK   12  A    between atoms: C30_46  and  O7_47 
ROOT
HETATM    1  C7  UNL     1       6.004  -0.462  14.667  1.00  0.00     0.072 C 
HETATM    2  C8  UNL     1       6.451  -1.878  14.828  1.00  0.00     0.115 C 
HETATM    3  C9  UNL     1       6.560  -2.234  16.254  1.00  0.00     0.218 C 
HETATM    4  O1  UNL     1       6.428  -1.260  17.079  1.00  0.00    -0.274 OA
HETATM    5  N1  UNL     1       6.787  -3.484  16.838  1.00  0.00    -0.356 N 
ATOM      6  H1  UNL     1       6.157  -3.709  17.608  1.00  0.00     0.162 HD
HETATM    7  C10 UNL     1       7.734  -4.486  16.551  1.00  0.00     0.096 C 
HETATM    8  C11 UNL     1       8.533  -4.343  15.293  1.00  0.00     0.026 C 
HETATM    9  C12 UNL     1       9.399  -5.608  15.398  1.00  0.00     0.003 C 
HETATM   10  C13 UNL     1       8.551  -6.593  16.198  1.00  0.00     0.015 C 
HETATM   11  C14 UNL     1       7.209  -5.904  16.383  1.00  0.00     0.084 C 
HETATM   12  C15 UNL     1       6.440  -6.295  17.558  1.00  0.00     0.177 C 
HETATM   13  O2  UNL     1       6.971  -5.905  18.639  1.00  0.00    -0.291 OA
HETATM   14  C16 UNL     1       5.201  -7.030  17.724  1.00  0.00     0.058 C 
HETATM   15  N2  UNL     1       3.978  -6.253  17.844  1.00  0.00    -0.339 N 
ATOM     16  H2  UNL     1       3.403  -6.559  18.629  1.00  0.00     0.167 HD
HETATM   17  C20 UNL     1       3.410  -5.213  17.163  1.00  0.00     0.144 C 
HETATM   18  C21 UNL     1       2.862  -5.048  15.800  1.00  0.00     0.089 C 
HETATM   19  C22 UNL     1       1.672  -6.011  15.571  1.00  0.00     0.047 C 
HETATM   20  C23 UNL     1       3.770  -5.273  14.666  1.00  0.00     0.047 C 
HETATM   21  N3  UNL     1       2.260  -3.725  15.632  1.00  0.00    -0.357 N 
ATOM     22  H3  UNL     1       1.335  -3.636  16.053  1.00  0.00     0.162 HD
HETATM   23  C24 UNL     1       2.703  -2.579  15.015  1.00  0.00     0.135 C 
HETATM   24  C25 UNL     1       2.950  -2.220  13.616  1.00  0.00     0.158 C 
HETATM   25  N4  UNL     1       3.796  -1.063  13.390  1.00  0.00    -0.362 N 
ATOM     26  H4  UNL     1       3.762  -0.747  12.420  1.00  0.00     0.162 HD
HETATM   27  C30 UNL     1       4.629  -0.289  14.156  1.00  0.00     0.117 C 
ENDROOT
BRANCH   1  28
HETATM   28  C5  UNL     1       6.987   0.335  13.798  1.00  0.00    -0.006 C 
HETATM   29  C6  UNL     1       7.450   1.599  14.476  1.00  0.00     0.011 C 
BRANCH  28  30
HETATM   30  C4  UNL     1       8.159  -0.465  13.391  1.00  0.00     0.005 C 
BRANCH  30  31
HETATM   31  C3  UNL     1       9.128   0.316  12.564  1.00  0.00     0.000 C 
BRANCH  31  32
HETATM   32  C2  UNL     1       8.530   0.655  11.229  1.00  0.00    -0.005 C 
HETATM   33  C1  UNL     1       8.916   2.101  10.842  1.00  0.00     0.005 C 
ENDBRANCH  31  32
ENDBRANCH  30  31
ENDBRANCH  28  30
ENDBRANCH   1  28
BRANCH  27  34
HETATM   34  O7  UNL     1       4.139   0.860  14.532  1.00  0.00    -0.349 OA
ATOM     35  H7  UNL     1       3.428   0.735  15.149  1.00  0.00     0.219 HD
ENDBRANCH  27  34
BRANCH  24  36
HETATM   36  C26 UNL     1       1.593  -1.828  12.974  1.00  0.00     0.037 C 
BRANCH  36  37
HETATM   37  C27 UNL     1       1.244  -0.401  13.086  1.00  0.00    -0.020 C 
HETATM   38  C28 UNL     1       1.123   0.117  11.633  1.00  0.00     0.009 C 
HETATM   39  C29 UNL     1      -0.153  -0.183  13.680  1.00  0.00     0.009 C 
ENDBRANCH  36  37
ENDBRANCH  24  36
BRANCH  23  40
HETATM   40  O6  UNL     1       2.964  -1.581  15.807  1.00  0.00    -0.348 OA
ATOM     41  H6  UNL     1       2.828  -0.718  15.435  1.00  0.00     0.219 HD
ENDBRANCH  23  40
BRANCH  14  42
HETATM   42  C17 UNL     1       4.977  -8.284  16.943  1.00  0.00     0.071 C 
BRANCH  42  43
HETATM   43  C18 UNL     1       5.678  -9.510  17.429  1.00  0.00     0.119 C 
BRANCH  43  44
HETATM   44  C19 UNL     1       6.473 -10.212  16.401  1.00  0.00     0.172 C 
HETATM   45  O3  UNL     1       5.919 -10.974  15.564  1.00  0.00    -0.648 OA
HETATM   46  O4  UNL     1       7.857 -10.020  16.368  1.00  0.00    -0.648 OA
ENDBRANCH  43  44
ENDBRANCH  42  43
ENDBRANCH  14  42
BRANCH  17  47
HETATM   47  O5  UNL     1       3.323  -4.109  17.860  1.00  0.00    -0.347 OA
ATOM     48  H5  UNL     1       3.883  -3.410  17.544  1.00  0.00     0.219 HD
ENDBRANCH  17  47
TORSDOF 12
ENDMDL
MODEL 2
REMARK VINA RESULT: -9.164155821      1.395      1.764
REMARK  12 active torsions:
REMARK  status: ('A' for Active; 'I' for Inactive)
REMARK    1  A    between atoms: C2_2  and  C3_3 
REMARK    2  A    between atoms: C3_3  and  C4_4 
REMARK    3  A    between atoms: C4_4  and  C5_5 
REMARK    4  A    between atoms: C5_5  and  C7_7 
REMARK    5  A    between atoms: C16_20  and  C17_21 
REMARK    6  A    between atoms: C17_21  and  C18_22 
REMARK    7  A    between atoms: C18_22  and  C19_23 
REMARK    8  A    between atoms: C20_28  and  O5_29 
REMARK    9  A    between atoms: C24_36  and  O6_37 
REMARK   10  A    between atoms: C25_39  and  C26_40 
REMARK   11  A    between atoms: C26_40  and  C27_41 
REMARK   12  A    between atoms: C30_46  and  O7_47 
ROOT
HETATM    1  C7  UNL     1       6.365  -0.659  14.614  1.00  0.00     0.072 C 
HETATM    2  C8  UNL     1       6.629  -2.103  14.893  1.00  0.00     0.115 C 
HETATM    3  C9  UNL     1       6.569  -2.376  16.339  1.00  0.00     0.218 C 
HETATM    4  O1  UNL     1       6.477  -1.343  17.094  1.00  0.00    -0.274 OA
HETATM    5  N1  UNL     1       6.597  -3.603  17.009  1.00  0.00    -0.356 N 
ATOM      6  H1  UNL     1       5.878  -3.708  17.725  1.00  0.00     0.162 HD
HETATM    7  C10 UNL     1       7.443  -4.720  16.867  1.00  0.00     0.096 C 
HETATM    8  C11 UNL     1       8.363  -4.747  15.686  1.00  0.00     0.026 C 
HETATM    9  C12 UNL     1       9.064  -6.091  15.941  1.00  0.00     0.003 C 
HETATM   10  C13 UNL     1       8.039  -6.922  16.707  1.00  0.00     0.015 C 
HETATM   11  C14 UNL     1       6.775  -6.079  16.726  1.00  0.00     0.084 C 
HETATM   12  C15 UNL     1       5.863  -6.307  17.841  1.00  0.00     0.177 C 
HETATM   13  O2  UNL     1       6.338  -5.909  18.945  1.00  0.00    -0.291 OA
HETATM   14  C16 UNL     1       4.538  -6.889  17.926  1.00  0.00     0.058 C 
HETATM   15  N2  UNL     1       3.407  -5.976  17.887  1.00  0.00    -0.339 N 
ATOM     16  H2  UNL     1       2.733  -6.166  18.628  1.00  0.00     0.167 HD
HETATM   17  C20 UNL     1       3.027  -4.925  17.100  1.00  0.00     0.144 C 
HETATM   18  C21 UNL     1       2.625  -4.788  15.683  1.00  0.00     0.089 C 
HETATM   19  C22 UNL     1       1.357  -5.628  15.393  1.00  0.00     0.047 C 
HETATM   20  C23 UNL     1       3.599  -5.184  14.655  1.00  0.00     0.047 C 
HETATM   21  N3  UNL     1       2.198  -3.421  15.388  1.00  0.00    -0.357 N 
ATOM     22  H3  UNL     1       1.255  -3.204  15.713  1.00  0.00     0.162 HD
HETATM   23  C24 UNL     1       2.824  -2.373  14.755  1.00  0.00     0.135 C 
HETATM   24  C25 UNL     1       3.235  -2.134  13.370  1.00  0.00     0.158 C 
HETATM   25  N4  UNL     1       4.225  -1.094  13.164  1.00  0.00    -0.362 N 
ATOM     26  H4  UNL     1       4.315  -0.838  12.180  1.00  0.00     0.162 HD
HETATM   27  C30 UNL     1       5.071  -0.368  13.964  1.00  0.00     0.117 C 
ENDROOT
BRANCH   1  28
HETATM   28  C5  UNL     1       7.508  -0.032  13.801  1.00  0.00    -0.006 C 
HETATM   29  C6  UNL     1       8.842  -0.654  14.124  1.00  0.00     0.011 C 
BRANCH  28  30
HETATM   30  C4  UNL     1       7.270  -0.100  12.346  1.00  0.00     0.005 C 
BRANCH  30  31
HETATM   31  C3  UNL     1       7.486   1.213  11.666  1.00  0.00     0.000 C 
BRANCH  31  32
HETATM   32  C2  UNL     1       8.548   1.092  10.612  1.00  0.00    -0.005 C 
HETATM   33  C1  UNL     1       9.936   1.350  11.244  1.00  0.00     0.005 C 
ENDBRANCH  31  32
ENDBRANCH  30  31
ENDBRANCH  28  30
ENDBRANCH   1  28
BRANCH  27  34
HETATM   34  O7  UNL     1       4.686   0.849  14.230  1.00  0.00    -0.349 OA
ATOM     35  H7  UNL     1       5.095   1.468  13.636  1.00  0.00     0.219 HD
ENDBRANCH  27  34
BRANCH  24  36
HETATM   36  C26 UNL     1       1.995  -1.636  12.580  1.00  0.00     0.037 C 
BRANCH  36  37
HETATM   37  C27 UNL     1       1.577  -0.257  12.888  1.00  0.00    -0.020 C 
HETATM   38  C28 UNL     1       1.342   0.426  11.520  1.00  0.00     0.009 C 
HETATM   39  C29 UNL     1       0.207  -0.199  13.577  1.00  0.00     0.009 C 
ENDBRANCH  36  37
ENDBRANCH  24  36
BRANCH  23  40
HETATM   40  O6  UNL     1       3.127  -1.361  15.515  1.00  0.00    -0.348 OA
ATOM     41  H6  UNL     1       3.899  -0.872  15.256  1.00  0.00     0.219 HD
ENDBRANCH  23  40
BRANCH  14  42
HETATM   42  C17 UNL     1       4.241  -8.158  17.196  1.00  0.00     0.071 C 
BRANCH  42  43
HETATM   43  C18 UNL     1       2.857  -8.702  17.331  1.00  0.00     0.119 C 
BRANCH  43  44
HETATM   44  C19 UNL     1       2.500  -9.148  18.693  1.00  0.00     0.172 C 
HETATM   45  O3  UNL     1       2.845 -10.285  19.111  1.00  0.00    -0.648 OA
HETATM   46  O4  UNL     1       1.771  -8.287  19.517  1.00  0.00    -0.648 OA
ENDBRANCH  43  44
ENDBRANCH  42  43
ENDBRANCH  14  42
BRANCH  17  47
HETATM   47  O5  UNL     1       3.006  -3.776  17.725  1.00  0.00    -0.347 OA
ATOM     48  H5  UNL     1       3.449  -3.077  17.258  1.00  0.00     0.219 HD
ENDBRANCH  17  47
TORSDOF 12
ENDMDL
MODEL 3
REMARK VINA RESULT: -8.983312271      2.874      9.502
REMARK  12 active torsions:
REMARK  status: ('A' for Active; 'I' for Inactive)
REMARK    1  A    between atoms: C2_2  and  C3_3 
REMARK    2  A    between atoms: C3_3  and  C4_4 
REMARK    3  A    between atoms: C4_4  and  C5_5 
REMARK    4  A    between atoms: C5_5  and  C7_7 
REMARK    5  A    between atoms: C16_20  and  C17_21 
REMARK    6  A    between atoms: C17_21  and  C18_22 
REMARK    7  A    between atoms: C18_22  and  C19_23 
REMARK    8  A    between atoms: C20_28  and  O5_29 
REMARK    9  A    between atoms: C24_36  and  O6_37 
REMARK   10  A    between atoms: C25_39  and  C26_40 
REMARK   11  A    between atoms: C26_40  and  C27_41 
REMARK   12  A    between atoms: C30_46  and  O7_47 
ROOT
HETATM    1  C7  UNL     1       4.444  -2.764  15.618  1.00  0.00     0.072 C 
HETATM    2  C8  UNL     1       4.205  -1.946  14.391  1.00  0.00     0.115 C 
HETATM    3  C9  UNL     1       3.995  -0.530  14.737  1.00  0.00     0.218 C 
HETATM    4  O1  UNL     1       3.883  -0.277  15.990  1.00  0.00    -0.274 OA
HETATM    5  N1  UNL     1       3.900   0.582  13.895  1.00  0.00    -0.356 N 
ATOM      6  H1  UNL     1       4.469   1.378  14.183  1.00  0.00     0.162 HD
HETATM    7  C10 UNL     1       3.156   0.795  12.718  1.00  0.00     0.096 C 
HETATM    8  C11 UNL     1       2.489  -0.393  12.096  1.00  0.00     0.026 C 
HETATM    9  C12 UNL     1       1.822   0.293  10.893  1.00  0.00     0.003 C 
HETATM   10  C13 UNL     1       2.718   1.488  10.583  1.00  0.00     0.015 C 
HETATM   11  C14 UNL     1       3.909   1.347  11.517  1.00  0.00     0.084 C 
HETATM   12  C15 UNL     1       4.595   2.581  11.880  1.00  0.00     0.177 C 
HETATM   13  O2  UNL     1       3.893   3.325  12.626  1.00  0.00    -0.291 OA
HETATM   14  C16 UNL     1       5.906   3.111  11.559  1.00  0.00     0.058 C 
HETATM   15  N2  UNL     1       6.973   2.867  12.515  1.00  0.00    -0.339 N 
ATOM     16  H2  UNL     1       7.499   3.714  12.730  1.00  0.00     0.167 HD
HETATM   17  C20 UNL     1       7.446   1.780  13.196  1.00  0.00     0.144 C 
HETATM   18  C21 UNL     1       8.110   0.520  12.797  1.00  0.00     0.089 C 
HETATM   19  C22 UNL     1       9.452   0.813  12.083  1.00  0.00     0.047 C 
HETATM   20  C23 UNL     1       7.378  -0.384  11.897  1.00  0.00     0.047 C 
HETATM   21  N3  UNL     1       8.516  -0.254  13.970  1.00  0.00    -0.357 N 
ATOM     22  H3  UNL     1       9.364   0.092  14.420  1.00  0.00     0.162 HD
HETATM   23  C24 UNL     1       7.972  -1.360  14.581  1.00  0.00     0.135 C 
HETATM   24  C25 UNL     1       7.829  -2.762  14.184  1.00  0.00     0.158 C 
HETATM   25  N4  UNL     1       6.845  -3.540  14.913  1.00  0.00    -0.362 N 
ATOM     26  H4  UNL     1       6.937  -4.540  14.734  1.00  0.00     0.162 HD
HETATM   27  C30 UNL     1       5.823  -3.264  15.785  1.00  0.00     0.117 C 
ENDROOT
BRANCH   1  28
HETATM   28  C5  UNL     1       3.452  -3.933  15.709  1.00  0.00    -0.006 C 
HETATM   29  C6  UNL     1       2.433  -3.730  16.802  1.00  0.00     0.011 C 
BRANCH  28  30
HETATM   30  C4  UNL     1       2.760  -4.187  14.430  1.00  0.00     0.005 C 
BRANCH  30  31
HETATM   31  C3  UNL     1       2.432  -5.632  14.232  1.00  0.00     0.000 C 
BRANCH  31  32
HETATM   32  C2  UNL     1       3.544  -6.500  14.745  1.00  0.00    -0.005 C 
HETATM   33  C1  UNL     1       3.002  -7.435  15.851  1.00  0.00     0.005 C 
ENDBRANCH  31  32
ENDBRANCH  30  31
ENDBRANCH  28  30
ENDBRANCH   1  28
BRANCH  27  34
HETATM   34  O7  UNL     1       6.085  -3.481  17.044  1.00  0.00    -0.349 OA
ATOM     35  H7  UNL     1       6.992  -3.276  17.238  1.00  0.00     0.219 HD
ENDBRANCH  27  34
BRANCH  24  36
HETATM   36  C26 UNL     1       9.172  -3.483  14.473  1.00  0.00     0.037 C 
BRANCH  36  37
HETATM   37  C27 UNL     1       9.042  -4.787  15.147  1.00  0.00    -0.020 C 
HETATM   38  C28 UNL     1       9.493  -5.843  14.110  1.00  0.00     0.009 C 
HETATM   39  C29 UNL     1      10.034  -4.950  16.306  1.00  0.00     0.009 C 
ENDBRANCH  36  37
ENDBRANCH  24  36
BRANCH  23  40
HETATM   40  O6  UNL     1       7.474  -1.157  15.766  1.00  0.00    -0.348 OA
ATOM     41  H6  UNL     1       6.559  -1.390  15.870  1.00  0.00     0.219 HD
ENDBRANCH  23  40
BRANCH  14  42
HETATM   42  C17 UNL     1       6.405   3.041  10.152  1.00  0.00     0.071 C 
BRANCH  42  43
HETATM   43  C18 UNL     1       7.818   3.465   9.920  1.00  0.00     0.119 C 
BRANCH  43  44
HETATM   44  C19 UNL     1       8.057   4.126   8.621  1.00  0.00     0.172 C 
HETATM   45  O3  UNL     1       8.644   5.239   8.561  1.00  0.00    -0.648 OA
HETATM   46  O4  UNL     1       7.621   3.497   7.452  1.00  0.00    -0.648 OA
ENDBRANCH  43  44
ENDBRANCH  42  43
ENDBRANCH  14  42
BRANCH  17  47
HETATM   47  O5  UNL     1       7.285   1.856  14.492  1.00  0.00    -0.347 OA
ATOM     48  H5  UNL     1       7.719   1.162  14.974  1.00  0.00     0.219 HD
ENDBRANCH  17  47
TORSDOF 12
ENDMDL
MODEL 4
REMARK VINA RESULT: -8.918124091      2.769      7.696
REMARK  12 active torsions:
REMARK  status: ('A' for Active; 'I' for Inactive)
REMARK    1  A    between atoms: C2_2  and  C3_3 
REMARK    2  A    between atoms: C3_3  and  C4_4 
REMARK    3  A    between atoms: C4_4  and  C5_5 
REMARK    4  A    between atoms: C5_5  and  C7_7 
REMARK    5  A    between atoms: C16_20  and  C17_21 
REMARK    6  A    between atoms: C17_21  and  C18_22 
REMARK    7  A    between atoms: C18_22  and  C19_23 
REMARK    8  A    between atoms: C20_28  and  O5_29 
REMARK    9  A    between atoms: C24_36  and  O6_37 
REMARK   10  A    between atoms: C25_39  and  C26_40 
REMARK   11  A    between atoms: C26_40  and  C27_41 
REMARK   12  A    between atoms: C30_46  and  O7_47 
ROOT
HETATM    1  C7  UNL     1       8.048  -3.118  15.458  1.00  0.00     0.072 C 
HETATM    2  C8  UNL     1       6.674  -3.322  14.910  1.00  0.00     0.115 C 
HETATM    3  C9  UNL     1       5.655  -2.844  15.860  1.00  0.00     0.218 C 
HETATM    4  O1  UNL     1       6.092  -2.510  17.019  1.00  0.00    -0.274 OA
HETATM    5  N1  UNL     1       4.276  -2.701  15.680  1.00  0.00    -0.356 N 
ATOM      6  H1  UNL     1       3.901  -1.806  15.994  1.00  0.00     0.162 HD
HETATM    7  C10 UNL     1       3.313  -3.577  15.141  1.00  0.00     0.096 C 
HETATM    8  C11 UNL     1       3.809  -4.804  14.441  1.00  0.00     0.026 C 
HETATM    9  C12 UNL     1       2.462  -5.429  14.042  1.00  0.00     0.003 C 
HETATM   10  C13 UNL     1       1.513  -4.244  13.898  1.00  0.00     0.015 C 
HETATM   11  C14 UNL     1       2.383  -3.011  14.079  1.00  0.00     0.084 C 
HETATM   12  C15 UNL     1       1.715  -1.817  14.582  1.00  0.00     0.177 C 
HETATM   13  O2  UNL     1       1.353  -1.936  15.790  1.00  0.00    -0.291 OA
HETATM   14  C16 UNL     1       1.394  -0.539  13.978  1.00  0.00     0.058 C 
HETATM   15  N2  UNL     1       2.333   0.550  14.187  1.00  0.00    -0.339 N 
ATOM     16  H2  UNL     1       1.868   1.409  14.482  1.00  0.00     0.167 HD
HETATM   17  C20 UNL     1       3.688   0.706  14.085  1.00  0.00     0.144 C 
HETATM   18  C21 UNL     1       4.649   0.676  12.961  1.00  0.00     0.089 C 
HETATM   19  C22 UNL     1       4.318   1.782  11.931  1.00  0.00     0.047 C 
HETATM   20  C23 UNL     1       4.750  -0.567  12.181  1.00  0.00     0.047 C 
HETATM   21  N3  UNL     1       5.995   1.028  13.412  1.00  0.00    -0.357 N 
ATOM     22  H3  UNL     1       6.135   2.029  13.551  1.00  0.00     0.162 HD
HETATM   23  C24 UNL     1       7.108   0.268  13.683  1.00  0.00     0.135 C 
HETATM   24  C25 UNL     1       8.012  -0.528  12.849  1.00  0.00     0.158 C 
HETATM   25  N4  UNL     1       8.825  -1.511  13.539  1.00  0.00    -0.362 N 
ATOM     26  H4  UNL     1       9.568  -1.881  12.945  1.00  0.00     0.162 HD
HETATM   27  C30 UNL     1       8.844  -2.067  14.793  1.00  0.00     0.117 C 
ENDROOT
BRANCH   1  28
HETATM   28  C5  UNL     1       8.839  -4.435  15.478  1.00  0.00    -0.006 C 
HETATM   29  C6  UNL     1       9.050  -4.992  14.093  1.00  0.00     0.011 C 
BRANCH  28  30
HETATM   30  C4  UNL     1      10.141  -4.302  16.161  1.00  0.00     0.005 C 
BRANCH  30  31
HETATM   31  C3  UNL     1      10.388  -5.399  17.145  1.00  0.00     0.000 C 
BRANCH  31  32
HETATM   32  C2  UNL     1       9.091  -6.010  17.590  1.00  0.00    -0.005 C 
HETATM   33  C1  UNL     1       8.977  -7.448  17.031  1.00  0.00     0.005 C 
ENDBRANCH  31  32
ENDBRANCH  30  31
ENDBRANCH  28  30
ENDBRANCH   1  28
BRANCH  27  34
HETATM   34  O7  UNL     1       9.749  -1.593  15.604  1.00  0.00    -0.349 OA
ATOM     35  H7  UNL     1      10.606  -1.604  15.193  1.00  0.00     0.219 HD
ENDBRANCH  27  34
BRANCH  24  36
HETATM   36  C26 UNL     1       9.046   0.436  12.208  1.00  0.00     0.037 C 
BRANCH  36  37
HETATM   37  C27 UNL     1       8.475   1.672  11.644  1.00  0.00    -0.020 C 
HETATM   38  C28 UNL     1       9.165   2.834  12.397  1.00  0.00     0.009 C 
HETATM   39  C29 UNL     1       8.871   1.886  10.178  1.00  0.00     0.009 C 
ENDBRANCH  36  37
ENDBRANCH  24  36
BRANCH  23  40
HETATM   40  O6  UNL     1       7.466   0.225  14.933  1.00  0.00    -0.348 OA
ATOM     41  H6  UNL     1       6.878  -0.246  15.511  1.00  0.00     0.219 HD
ENDBRANCH  23  40
BRANCH  14  42
HETATM   42  C17 UNL     1       0.809  -0.500  12.603  1.00  0.00     0.071 C 
BRANCH  42  43
HETATM   43  C18 UNL     1       0.499   0.850  12.044  1.00  0.00     0.119 C 
BRANCH  43  44
HETATM   44  C19 UNL     1       0.986   1.073  10.669  1.00  0.00     0.172 C 
HETATM   45  O3  UNL     1       1.704   0.214  10.090  1.00  0.00    -0.648 OA
HETATM   46  O4  UNL     1       0.638   2.256  10.011  1.00  0.00    -0.648 OA
ENDBRANCH  43  44
ENDBRANCH  42  43
ENDBRANCH  14  42
BRANCH  17  47
HETATM   47  O5  UNL     1       4.282   0.936  15.227  1.00  0.00    -0.347 OA
ATOM     48  H5  UNL     1       5.100   1.413  15.146  1.00  0.00     0.219 HD
ENDBRANCH  17  47
TORSDOF 12
ENDMDL
MODEL 5
REMARK VINA RESULT: -8.891562746      2.567      6.036
REMARK  12 active torsions:
REMARK  status: ('A' for Active; 'I' for Inactive)
REMARK    1  A    between atoms: C2_2  and  C3_3 
REMARK    2  A    between atoms: C3_3  and  C4_4 
REMARK    3  A    between atoms: C4_4  and  C5_5 
REMARK    4  A    between atoms: C5_5  and  C7_7 
REMARK    5  A    between atoms: C16_20  and  C17_21 
REMARK    6  A    between atoms: C17_21  and  C18_22 
REMARK    7  A    between atoms: C18_22  and  C19_23 
REMARK    8  A    between atoms: C20_28  and  O5_29 
REMARK    9  A    between atoms: C24_36  and  O6_37 
REMARK   10  A    between atoms: C25_39  and  C26_40 
REMARK   11  A    between atoms: C26_40  and  C27_41 
REMARK   12  A    between atoms: C30_46  and  O7_47 
ROOT
HETATM    1  C7  UNL     1       3.788   0.467  12.454  1.00  0.00     0.072 C 
HETATM    2  C8  UNL     1       3.755  -0.443  13.638  1.00  0.00     0.115 C 
HETATM    3  C9  UNL     1       3.792  -1.853  13.216  1.00  0.00     0.218 C 
HETATM    4  O1  UNL     1       3.675  -2.057  11.954  1.00  0.00    -0.274 OA
HETATM    5  N1  UNL     1       3.937  -3.006  13.994  1.00  0.00    -0.356 N 
ATOM      6  H1  UNL     1       4.629  -3.668  13.641  1.00  0.00     0.162 HD
HETATM    7  C10 UNL     1       3.296  -3.413  15.180  1.00  0.00     0.096 C 
HETATM    8  C11 UNL     1       2.452  -2.403  15.893  1.00  0.00     0.026 C 
HETATM    9  C12 UNL     1       1.973  -3.262  17.074  1.00  0.00     0.003 C 
HETATM   10  C13 UNL     1       3.084  -4.286  17.284  1.00  0.00     0.015 C 
HETATM   11  C14 UNL     1       4.188  -3.879  16.321  1.00  0.00     0.084 C 
HETATM   12  C15 UNL     1       5.071  -4.945  15.864  1.00  0.00     0.177 C 
HETATM   13  O2  UNL     1       4.485  -5.766  15.098  1.00  0.00    -0.291 OA
HETATM   14  C16 UNL     1       6.470  -5.240  16.110  1.00  0.00     0.058 C 
HETATM   15  N2  UNL     1       7.433  -4.754  15.136  1.00  0.00    -0.339 N 
ATOM     16  H2  UNL     1       8.094  -5.478  14.853  1.00  0.00     0.167 HD
HETATM   17  C20 UNL     1       7.670  -3.564  14.505  1.00  0.00     0.144 C 
HETATM   18  C21 UNL     1       8.109  -2.226  14.955  1.00  0.00     0.089 C 
HETATM   19  C22 UNL     1       9.512  -2.304  15.606  1.00  0.00     0.047 C 
HETATM   20  C23 UNL     1       7.264  -1.521  15.931  1.00  0.00     0.047 C 
HETATM   21  N3  UNL     1       8.316  -1.331  13.817  1.00  0.00    -0.357 N 
ATOM     22  H3  UNL     1       9.193  -1.491  13.320  1.00  0.00     0.162 HD
HETATM   23  C24 UNL     1       7.555  -0.314  13.290  1.00  0.00     0.135 C 
HETATM   24  C25 UNL     1       7.175   1.015  13.774  1.00  0.00     0.158 C 
HETATM   25  N4  UNL     1       6.036   1.635  13.124  1.00  0.00    -0.362 N 
ATOM     26  H4  UNL     1       5.952   2.624  13.359  1.00  0.00     0.162 HD
HETATM   27  C30 UNL     1       5.045   1.221  12.272  1.00  0.00     0.117 C 
ENDROOT
BRANCH   1  28
HETATM   28  C5  UNL     1       2.597   1.436  12.465  1.00  0.00    -0.006 C 
HETATM   29  C6  UNL     1       2.946   2.774  11.865  1.00  0.00     0.011 C 
BRANCH  28  30
HETATM   30  C4  UNL     1       1.411   0.883  11.781  1.00  0.00     0.005 C 
BRANCH  30  31
HETATM   31  C3  UNL     1       0.143   1.148  12.524  1.00  0.00     0.000 C 
BRANCH  31  32
HETATM   32  C2  UNL     1       0.078   0.317  13.772  1.00  0.00    -0.005 C 
HETATM   33  C1  UNL     1       0.055  -1.183  13.393  1.00  0.00     0.005 C 
ENDBRANCH  31  32
ENDBRANCH  30  31
ENDBRANCH  28  30
ENDBRANCH   1  28
BRANCH  27  34
HETATM   34  O7  UNL     1       5.209   1.547  11.020  1.00  0.00    -0.349 OA
ATOM     35  H7  UNL     1       4.376   1.550  10.562  1.00  0.00     0.219 HD
ENDBRANCH  27  34
BRANCH  24  36
HETATM   36  C26 UNL     1       8.351   1.986  13.484  1.00  0.00     0.037 C 
BRANCH  36  37
HETATM   37  C27 UNL     1       8.547   2.313  12.060  1.00  0.00    -0.020 C 
HETATM   38  C28 UNL     1       8.647   3.855  11.995  1.00  0.00     0.009 C 
HETATM   39  C29 UNL     1       9.899   1.824  11.526  1.00  0.00     0.009 C 
ENDBRANCH  36  37
ENDBRANCH  24  36
BRANCH  23  40
HETATM   40  O6  UNL     1       7.051  -0.544  12.112  1.00  0.00    -0.348 OA
ATOM     41  H6  UNL     1       6.412  -1.245  12.071  1.00  0.00     0.219 HD
ENDBRANCH  23  40
BRANCH  14  42
HETATM   42  C17 UNL     1       7.008  -5.152  17.501  1.00  0.00     0.071 C 
BRANCH  42  43
HETATM   43  C18 UNL     1       8.040  -6.160  17.886  1.00  0.00     0.119 C 
BRANCH  43  44
HETATM   44  C19 UNL     1       9.424  -5.793  17.523  1.00  0.00     0.172 C 
HETATM   45  O3  UNL     1      10.083  -4.984  18.229  1.00  0.00    -0.648 OA
HETATM   46  O4  UNL     1       9.996  -6.358  16.381  1.00  0.00    -0.648 OA
ENDBRANCH  43  44
ENDBRANCH  42  43
ENDBRANCH  14  42
BRANCH  17  47
HETATM   47  O5  UNL     1       7.469  -3.602  13.212  1.00  0.00    -0.347 OA
ATOM     48  H5  UNL     1       7.722  -4.423  12.808  1.00  0.00     0.219 HD
ENDBRANCH  17  47
TORSDOF 12
ENDMDL
