MODEL 1
REMARK VINA RESULT: -10.321543585      0.000      0.000
REMARK  11 active torsions:
REMARK  status: ('A' for Active; 'I' for Inactive)
REMARK    1  A    between atoms: N1_1  and  C1_4 
REMARK    2  A    between atoms: C3_8  and  C4_9 
REMARK    3  A    between atoms: C4_9  and  N3_10 
REMARK    4  A    between atoms: C4_9  and  C16_25 
REMARK       I    between atoms: N3_10  and  C5_12 
REMARK    5  A    between atoms: C5_12  and  O2_14 
REMARK    6  A    between atoms: O2_14  and  C6_15 
REMARK       I    between atoms: C16_25  and  N4_27 
REMARK    7  A    between atoms: N4_27  and  C17_29 
REMARK    8  A    between atoms: C17_29  and  C18_30 
REMARK    9  A    between atoms: C17_29  and  C19_32 
REMARK   10  A    between atoms: C19_32  and  C20_33 
REMARK       I    between atoms: C20_33  and  N5_35 
REMARK   11  A    between atoms: N5_35  and  C21_37 
ROOT
HETATM    1  C4  UNL     1       7.886  -2.549  15.467  1.00  0.00     0.230 C 
ENDROOT
BRANCH   1   2
HETATM    2  C3  UNL     1       8.482  -3.865  15.407  1.00  0.00     0.074 A 
HETATM    3  C2  UNL     1       8.566  -4.687  14.279  1.00  0.00     0.134 A 
HETATM    4  N2  UNL     1       9.177  -5.825  14.721  1.00  0.00    -0.200 N 
HETATM    5  C1  UNL     1       9.444  -5.705  16.016  1.00  0.00     0.676 A 
ATOM      6  H2  UNL     1       9.394  -6.640  14.147  1.00  0.00     0.183 HD
HETATM    7  N6  UNL     1       9.029  -4.515  16.458  1.00  0.00    -0.192 N 
ATOM      8  H6  UNL     1       9.110  -4.162  17.411  1.00  0.00     0.184 HD
BRANCH   5   9
HETATM    9  N1  UNL     1      10.040  -6.619  16.732  1.00  0.00    -0.234 N 
ATOM     10  H12 UNL     1      10.618  -7.378  16.369  1.00  0.00     0.174 HD
ATOM     11  H11 UNL     1       9.981  -6.682  17.747  1.00  0.00     0.174 HD
ENDBRANCH   5   9
ENDBRANCH   1   2
BRANCH   1  12
HETATM   12  N3  UNL     1       8.048  -1.772  14.306  1.00  0.00    -0.318 N 
HETATM   13  C5  UNL     1       7.511  -1.486  13.104  1.00  0.00     0.361 C 
HETATM   14  O1  UNL     1       6.462  -2.066  12.674  1.00  0.00    -0.238 OA
ATOM     15  H3  UNL     1       8.894  -1.212  14.416  1.00  0.00     0.166 HD
BRANCH  13  16
HETATM   16  O2  UNL     1       8.007  -0.549  12.164  1.00  0.00    -0.298 OA
BRANCH  16  17
HETATM   17  C6  UNL     1       7.192   0.542  11.783  1.00  0.00     0.142 C 
HETATM   18  C7  UNL     1       8.143   1.259  10.772  1.00  0.00     0.016 C 
HETATM   19  C8  UNL     1       9.389   1.716  11.456  1.00  0.00     0.012 C 
HETATM   20  C12 UNL     1       7.482   2.383  10.078  1.00  0.00     0.012 C 
HETATM   21  C9  UNL     1       9.004   2.772  12.494  1.00  0.00    -0.013 C 
HETATM   22  C10 UNL     1       8.338   3.959  11.819  1.00  0.00     0.009 C 
HETATM   23  C15 UNL     1       8.118   2.094  13.501  1.00  0.00     0.012 C 
HETATM   24  C11 UNL     1       7.117   3.428  11.112  1.00  0.00    -0.013 C 
HETATM   25  C13 UNL     1       6.230   2.766  12.145  1.00  0.00     0.012 C 
HETATM   26  C14 UNL     1       6.887   1.554  12.803  1.00  0.00     0.016 C 
ENDBRANCH  16  17
ENDBRANCH  13  16
ENDBRANCH   1  12
BRANCH   1  27
HETATM   27  C16 UNL     1       6.429  -2.648  15.876  1.00  0.00     0.247 C 
HETATM   28  O3  UNL     1       6.074  -1.795  16.728  1.00  0.00    -0.271 OA
HETATM   29  N4  UNL     1       5.551  -3.579  15.359  1.00  0.00    -0.348 N 
ATOM     30  H4  UNL     1       5.981  -4.168  14.647  1.00  0.00     0.163 HD
BRANCH  29  31
HETATM   31  C17 UNL     1       4.200  -3.904  15.585  1.00  0.00     0.154 C 
BRANCH  31  32
HETATM   32  C18 UNL     1       3.949  -4.745  16.755  1.00  0.00     0.256 C 
HETATM   33  O4  UNL     1       3.042  -4.874  17.496  1.00  0.00    -0.305 OA
ENDBRANCH  31  32
BRANCH  31  34
HETATM   34  C19 UNL     1       3.428  -2.586  15.729  1.00  0.00     0.135 C 
BRANCH  34  35
HETATM   35  C20 UNL     1       3.138  -2.032  14.373  1.00  0.00     0.220 C 
HETATM   36  O5  UNL     1       3.089  -2.715  13.346  1.00  0.00    -0.274 OA
HETATM   37  N5  UNL     1       2.887  -0.621  14.289  1.00  0.00    -0.352 N 
ATOM     38  H5  UNL     1       2.958  -0.080  15.150  1.00  0.00     0.163 HD
BRANCH  37  39
HETATM   39  C21 UNL     1       2.545   0.087  13.090  1.00  0.00     0.034 C 
HETATM   40  C22 UNL     1       1.043   0.050  12.937  1.00  0.00     0.035 C 
HETATM   41  C23 UNL     1       0.601   0.954  11.805  1.00  0.00    -0.012 C 
HETATM   42  C24 UNL     1       1.097   2.357  11.957  1.00  0.00     0.009 C 
HETATM   43  C28 UNL     1       1.220   0.392  10.525  1.00  0.00     0.009 C 
HETATM   44  C25 UNL     1       2.583   2.361  12.066  1.00  0.00    -0.012 C 
HETATM   45  C26 UNL     1       3.227   1.755  10.831  1.00  0.00     0.009 C 
HETATM   46  C30 UNL     1       2.998   1.546  13.249  1.00  0.00     0.035 C 
HETATM   47  C27 UNL     1       2.703   0.354  10.668  1.00  0.00    -0.012 C 
HETATM   48  C29 UNL     1       3.173  -0.467  11.869  1.00  0.00     0.035 C 
ENDBRANCH  37  39
ENDBRANCH  34  35
ENDBRANCH  31  34
ENDBRANCH  29  31
ENDBRANCH   1  27
TORSDOF 11
ENDMDL
MODEL 2
REMARK VINA RESULT: -10.305086410      2.410      8.821
REMARK  11 active torsions:
REMARK  status: ('A' for Active; 'I' for Inactive)
REMARK    1  A    between atoms: N1_1  and  C1_4 
REMARK    2  A    between atoms: C3_8  and  C4_9 
REMARK    3  A    between atoms: C4_9  and  N3_10 
REMARK    4  A    between atoms: C4_9  and  C16_25 
REMARK       I    between atoms: N3_10  and  C5_12 
REMARK    5  A    between atoms: C5_12  and  O2_14 
REMARK    6  A    between atoms: O2_14  and  C6_15 
REMARK       I    between atoms: C16_25  and  N4_27 
REMARK    7  A    between atoms: N4_27  and  C17_29 
REMARK    8  A    between atoms: C17_29  and  C18_30 
REMARK    9  A    between atoms: C17_29  and  C19_32 
REMARK   10  A    between atoms: C19_32  and  C20_33 
REMARK       I    between atoms: C20_33  and  N5_35 
REMARK   11  A    between atoms: N5_35  and  C21_37 
ROOT
HETATM    1  C4  UNL     1       3.107   1.018  12.723  1.00  0.00     0.230 C 
ENDROOT
BRANCH   1   2
HETATM    2  C3  UNL     1       2.464   1.535  11.536  1.00  0.00     0.074 A 
HETATM    3  C2  UNL     1       1.849   0.784  10.531  1.00  0.00     0.134 A 
HETATM    4  N2  UNL     1       1.421   1.704   9.618  1.00  0.00    -0.200 N 
HETATM    5  C1  UNL     1       1.750   2.921  10.036  1.00  0.00     0.676 A 
ATOM      6  H2  UNL     1       0.927   1.491   8.751  1.00  0.00     0.183 HD
HETATM    7  N6  UNL     1       2.387   2.844  11.206  1.00  0.00    -0.192 N 
ATOM      8  H6  UNL     1       2.749   3.627  11.750  1.00  0.00     0.184 HD
BRANCH   5   9
HETATM    9  N1  UNL     1       1.467   4.021   9.391  1.00  0.00    -0.234 N 
ATOM     10  H12 UNL     1       1.457   4.959   9.790  1.00  0.00     0.174 HD
ATOM     11  H11 UNL     1       1.209   4.058   8.406  1.00  0.00     0.174 HD
ENDBRANCH   5   9
ENDBRANCH   1   2
BRANCH   1  12
HETATM   12  N3  UNL     1       2.544  -0.166  13.233  1.00  0.00    -0.318 N 
HETATM   13  C5  UNL     1       1.403  -0.722  13.686  1.00  0.00     0.361 C 
HETATM   14  O1  UNL     1       0.319  -0.060  13.785  1.00  0.00    -0.238 OA
ATOM     15  H3  UNL     1       3.279  -0.873  13.276  1.00  0.00     0.166 HD
BRANCH  13  16
HETATM   16  O2  UNL     1       1.235  -2.060  14.118  1.00  0.00    -0.298 OA
BRANCH  16  17
HETATM   17  C6  UNL     1       2.280  -2.990  13.900  1.00  0.00     0.142 C 
HETATM   18  C7  UNL     1       1.569  -4.312  14.334  1.00  0.00     0.016 C 
HETATM   19  C8  UNL     1       1.180  -4.250  15.775  1.00  0.00     0.012 C 
HETATM   20  C12 UNL     1       2.392  -5.508  14.063  1.00  0.00     0.012 C 
HETATM   21  C9  UNL     1       2.459  -4.163  16.611  1.00  0.00    -0.013 C 
HETATM   22  C10 UNL     1       3.327  -5.388  16.377  1.00  0.00     0.009 C 
HETATM   23  C15 UNL     1       3.140  -2.878  16.237  1.00  0.00     0.012 C 
HETATM   24  C11 UNL     1       3.648  -5.419  14.904  1.00  0.00    -0.013 C 
HETATM   25  C13 UNL     1       4.349  -4.125  14.552  1.00  0.00     0.012 C 
HETATM   26  C14 UNL     1       3.468  -2.895  14.758  1.00  0.00     0.016 C 
ENDBRANCH  16  17
ENDBRANCH  13  16
ENDBRANCH   1  12
BRANCH   1  27
HETATM   27  C16 UNL     1       4.600   0.876  12.494  1.00  0.00     0.247 C 
HETATM   28  O3  UNL     1       4.946  -0.240  12.029  1.00  0.00    -0.271 OA
HETATM   29  N4  UNL     1       5.512   1.877  12.755  1.00  0.00    -0.348 N 
ATOM     30  H4  UNL     1       5.069   2.734  13.085  1.00  0.00     0.163 HD
BRANCH  29  31
HETATM   31  C17 UNL     1       6.913   1.992  12.673  1.00  0.00     0.154 C 
BRANCH  31  32
HETATM   32  C18 UNL     1       7.411   3.330  12.354  1.00  0.00     0.256 C 
HETATM   33  O4  UNL     1       6.898   4.354  12.078  1.00  0.00    -0.305 OA
ENDBRANCH  31  32
BRANCH  31  34
HETATM   34  C19 UNL     1       7.491   1.539  14.020  1.00  0.00     0.135 C 
BRANCH  34  35
HETATM   35  C20 UNL     1       7.935   0.118  13.917  1.00  0.00     0.220 C 
HETATM   36  O5  UNL     1       8.567  -0.338  12.960  1.00  0.00    -0.274 OA
HETATM   37  N5  UNL     1       7.611  -0.745  15.017  1.00  0.00    -0.352 N 
ATOM     38  H5  UNL     1       7.068  -0.346  15.782  1.00  0.00     0.163 HD
BRANCH  37  39
HETATM   39  C21 UNL     1       7.989  -2.124  15.125  1.00  0.00     0.034 C 
HETATM   40  C22 UNL     1       9.464  -2.180  15.449  1.00  0.00     0.035 C 
HETATM   41  C23 UNL     1       9.882  -3.597  15.780  1.00  0.00    -0.012 C 
HETATM   42  C24 UNL     1       9.062  -4.202  16.875  1.00  0.00     0.009 C 
HETATM   43  C28 UNL     1       9.643  -4.433  14.522  1.00  0.00     0.009 C 
HETATM   44  C25 UNL     1       7.619  -4.166  16.508  1.00  0.00    -0.012 C 
HETATM   45  C26 UNL     1       7.357  -4.941  15.227  1.00  0.00     0.009 C 
HETATM   46  C30 UNL     1       7.197  -2.749  16.282  1.00  0.00     0.035 C 
HETATM   47  C27 UNL     1       8.205  -4.346  14.136  1.00  0.00    -0.012 C 
HETATM   48  C29 UNL     1       7.729  -2.913  13.899  1.00  0.00     0.035 C 
ENDBRANCH  37  39
ENDBRANCH  34  35
ENDBRANCH  31  34
ENDBRANCH  29  31
ENDBRANCH   1  27
TORSDOF 11
ENDMDL
MODEL 3
REMARK VINA RESULT: -10.248822885      2.444      8.871
REMARK  11 active torsions:
REMARK  status: ('A' for Active; 'I' for Inactive)
REMARK    1  A    between atoms: N1_1  and  C1_4 
REMARK    2  A    between atoms: C3_8  and  C4_9 
REMARK    3  A    between atoms: C4_9  and  N3_10 
REMARK    4  A    between atoms: C4_9  and  C16_25 
REMARK       I    between atoms: N3_10  and  C5_12 
REMARK    5  A    between atoms: C5_12  and  O2_14 
REMARK    6  A    between atoms: O2_14  and  C6_15 
REMARK       I    between atoms: C16_25  and  N4_27 
REMARK    7  A    between atoms: N4_27  and  C17_29 
REMARK    8  A    between atoms: C17_29  and  C18_30 
REMARK    9  A    between atoms: C17_29  and  C19_32 
REMARK   10  A    between atoms: C19_32  and  C20_33 
REMARK       I    between atoms: C20_33  and  N5_35 
REMARK   11  A    between atoms: N5_35  and  C21_37 
ROOT
HETATM    1  C4  UNL     1       3.116   1.287  12.643  1.00  0.00     0.230 C 
ENDROOT
BRANCH   1   2
HETATM    2  C3  UNL     1       2.271   1.998  11.710  1.00  0.00     0.074 A 
HETATM    3  C2  UNL     1       0.955   2.412  11.933  1.00  0.00     0.134 A 
HETATM    4  N2  UNL     1       0.573   3.006  10.764  1.00  0.00    -0.200 N 
HETATM    5  C1  UNL     1       1.579   2.957   9.899  1.00  0.00     0.676 A 
ATOM      6  H2  UNL     1      -0.341   3.421  10.584  1.00  0.00     0.183 HD
HETATM    7  N6  UNL     1       2.628   2.346  10.454  1.00  0.00    -0.192 N 
ATOM      8  H6  UNL     1       3.531   2.174  10.013  1.00  0.00     0.184 HD
BRANCH   5   9
HETATM    9  N1  UNL     1       1.536   3.454   8.693  1.00  0.00    -0.234 N 
ATOM     10  H12 UNL     1       1.000   4.273   8.404  1.00  0.00     0.174 HD
ATOM     11  H11 UNL     1       2.032   3.063   7.893  1.00  0.00     0.174 HD
ENDBRANCH   5   9
ENDBRANCH   1   2
BRANCH   1  12
HETATM   12  N3  UNL     1       2.697  -0.022  12.943  1.00  0.00    -0.318 N 
HETATM   13  C5  UNL     1       1.719  -0.746  13.523  1.00  0.00     0.361 C 
HETATM   14  O1  UNL     1       0.719  -0.201  14.095  1.00  0.00    -0.238 OA
ATOM     15  H3  UNL     1       3.400  -0.670  12.587  1.00  0.00     0.166 HD
BRANCH  13  16
HETATM   16  O2  UNL     1       1.653  -2.159  13.600  1.00  0.00    -0.298 OA
BRANCH  16  17
HETATM   17  C6  UNL     1       1.631  -2.779  14.872  1.00  0.00     0.142 C 
HETATM   18  C7  UNL     1       3.141  -2.672  15.258  1.00  0.00     0.016 C 
HETATM   19  C8  UNL     1       3.986  -3.434  14.290  1.00  0.00     0.012 C 
HETATM   20  C12 UNL     1       3.399  -3.116  16.643  1.00  0.00     0.012 C 
HETATM   21  C9  UNL     1       3.624  -4.916  14.404  1.00  0.00    -0.013 C 
HETATM   22  C10 UNL     1       3.896  -5.420  15.812  1.00  0.00     0.009 C 
HETATM   23  C15 UNL     1       2.183  -5.048  13.999  1.00  0.00     0.012 C 
HETATM   24  C11 UNL     1       3.051  -4.586  16.742  1.00  0.00    -0.013 C 
HETATM   25  C13 UNL     1       1.603  -4.747  16.329  1.00  0.00     0.012 C 
HETATM   26  C14 UNL     1       1.323  -4.214  14.926  1.00  0.00     0.016 C 
ENDBRANCH  16  17
ENDBRANCH  13  16
ENDBRANCH   1  12
BRANCH   1  27
HETATM   27  C16 UNL     1       4.559   1.319  12.178  1.00  0.00     0.247 C 
HETATM   28  O3  UNL     1       4.786   0.628  11.154  1.00  0.00    -0.271 OA
HETATM   29  N4  UNL     1       5.548   2.050  12.804  1.00  0.00    -0.348 N 
ATOM     30  H4  UNL     1       5.194   2.593  13.592  1.00  0.00     0.163 HD
BRANCH  29  31
HETATM   31  C17 UNL     1       6.932   2.222  12.610  1.00  0.00     0.154 C 
BRANCH  31  32
HETATM   32  C18 UNL     1       7.351   3.586  12.288  1.00  0.00     0.256 C 
HETATM   33  O4  UNL     1       6.839   4.497  11.743  1.00  0.00    -0.305 OA
ENDBRANCH  31  32
BRANCH  31  34
HETATM   34  C19 UNL     1       7.637   1.761  13.892  1.00  0.00     0.135 C 
BRANCH  34  35
HETATM   35  C20 UNL     1       7.957   0.306  13.786  1.00  0.00     0.220 C 
HETATM   36  O5  UNL     1       8.460  -0.216  12.787  1.00  0.00    -0.274 OA
HETATM   37  N5  UNL     1       7.669  -0.507  14.933  1.00  0.00    -0.352 N 
ATOM     38  H5  UNL     1       7.232  -0.051  15.734  1.00  0.00     0.163 HD
BRANCH  37  39
HETATM   39  C21 UNL     1       7.948  -1.909  15.042  1.00  0.00     0.034 C 
HETATM   40  C22 UNL     1       9.408  -2.071  15.392  1.00  0.00     0.035 C 
HETATM   41  C23 UNL     1       9.719  -3.515  15.725  1.00  0.00    -0.012 C 
HETATM   42  C24 UNL     1       8.839  -4.064  16.802  1.00  0.00     0.009 C 
HETATM   43  C28 UNL     1       9.444  -4.328  14.459  1.00  0.00     0.009 C 
HETATM   44  C25 UNL     1       7.409  -3.925  16.409  1.00  0.00    -0.012 C 
HETATM   45  C26 UNL     1       7.116  -4.675  15.121  1.00  0.00     0.009 C 
HETATM   46  C30 UNL     1       7.092  -2.481  16.182  1.00  0.00     0.035 C 
HETATM   47  C27 UNL     1       8.024  -4.139  14.048  1.00  0.00    -0.012 C 
HETATM   48  C29 UNL     1       7.655  -2.674  13.808  1.00  0.00     0.035 C 
ENDBRANCH  37  39
ENDBRANCH  34  35
ENDBRANCH  31  34
ENDBRANCH  29  31
ENDBRANCH   1  27
TORSDOF 11
ENDMDL
MODEL 4
REMARK VINA RESULT: -10.241594132      2.215      8.993
REMARK  11 active torsions:
REMARK  status: ('A' for Active; 'I' for Inactive)
REMARK    1  A    between atoms: N1_1  and  C1_4 
REMARK    2  A    between atoms: C3_8  and  C4_9 
REMARK    3  A    between atoms: C4_9  and  N3_10 
REMARK    4  A    between atoms: C4_9  and  C16_25 
REMARK       I    between atoms: N3_10  and  C5_12 
REMARK    5  A    between atoms: C5_12  and  O2_14 
REMARK    6  A    between atoms: O2_14  and  C6_15 
REMARK       I    between atoms: C16_25  and  N4_27 
REMARK    7  A    between atoms: N4_27  and  C17_29 
REMARK    8  A    between atoms: C17_29  and  C18_30 
REMARK    9  A    between atoms: C17_29  and  C19_32 
REMARK   10  A    between atoms: C19_32  and  C20_33 
REMARK       I    between atoms: C20_33  and  N5_35 
REMARK   11  A    between atoms: N5_35  and  C21_37 
ROOT
HETATM    1  C4  UNL     1       4.129   0.843  13.421  1.00  0.00     0.230 C 
ENDROOT
BRANCH   1   2
HETATM    2  C3  UNL     1       3.681   1.711  12.354  1.00  0.00     0.074 A 
HETATM    3  C2  UNL     1       2.768   1.385  11.347  1.00  0.00     0.134 A 
HETATM    4  N2  UNL     1       2.692   2.505  10.569  1.00  0.00    -0.200 N 
HETATM    5  C1  UNL     1       3.495   3.438  11.065  1.00  0.00     0.676 A 
ATOM      6  H2  UNL     1       2.110   2.607   9.738  1.00  0.00     0.183 HD
HETATM    7  N6  UNL     1       4.111   2.977  12.157  1.00  0.00    -0.192 N 
ATOM      8  H6  UNL     1       4.780   3.485  12.734  1.00  0.00     0.184 HD
BRANCH   5   9
HETATM    9  N1  UNL     1       3.637   4.632  10.557  1.00  0.00    -0.234 N 
ATOM     10  H12 UNL     1       2.914   5.350  10.511  1.00  0.00     0.174 HD
ATOM     11  H11 UNL     1       4.497   4.976  10.131  1.00  0.00     0.174 HD
ENDBRANCH   5   9
ENDBRANCH   1   2
BRANCH   1  12
HETATM   12  N3  UNL     1       3.513  -0.422  13.452  1.00  0.00    -0.318 N 
HETATM   13  C5  UNL     1       2.417  -1.089  13.866  1.00  0.00     0.361 C 
HETATM   14  O1  UNL     1       1.484  -0.521  14.521  1.00  0.00    -0.238 OA
ATOM     15  H3  UNL     1       4.130  -1.086  12.984  1.00  0.00     0.166 HD
BRANCH  13  16
HETATM   16  O2  UNL     1       2.146  -2.465  13.663  1.00  0.00    -0.298 OA
BRANCH  16  17
HETATM   17  C6  UNL     1       3.146  -3.417  13.972  1.00  0.00     0.142 C 
HETATM   18  C7  UNL     1       2.272  -4.704  14.102  1.00  0.00     0.016 C 
HETATM   19  C8  UNL     1       1.288  -4.560  15.217  1.00  0.00     0.012 C 
HETATM   20  C12 UNL     1       3.088  -5.923  14.278  1.00  0.00     0.012 C 
HETATM   21  C9  UNL     1       2.066  -4.442  16.529  1.00  0.00    -0.013 C 
HETATM   22  C10 UNL     1       2.905  -5.688  16.759  1.00  0.00     0.009 C 
HETATM   23  C15 UNL     1       2.887  -3.187  16.441  1.00  0.00     0.012 C 
HETATM   24  C11 UNL     1       3.844  -5.802  15.585  1.00  0.00    -0.013 C 
HETATM   25  C13 UNL     1       4.673  -4.537  15.524  1.00  0.00     0.012 C 
HETATM   26  C14 UNL     1       3.834  -3.289  15.263  1.00  0.00     0.016 C 
ENDBRANCH  16  17
ENDBRANCH  13  16
ENDBRANCH   1  12
BRANCH   1  27
HETATM   27  C16 UNL     1       5.641   0.729  13.409  1.00  0.00     0.247 C 
HETATM   28  O3  UNL     1       6.223   1.528  14.186  1.00  0.00    -0.271 OA
HETATM   29  N4  UNL     1       6.334  -0.175  12.631  1.00  0.00    -0.348 N 
ATOM     30  H4  UNL     1       5.716  -0.781  12.092  1.00  0.00     0.163 HD
BRANCH  29  31
HETATM   31  C17 UNL     1       7.695  -0.456  12.408  1.00  0.00     0.154 C 
BRANCH  31  32
HETATM   32  C18 UNL     1       8.411   0.532  11.601  1.00  0.00     0.256 C 
HETATM   33  O4  UNL     1       8.900   0.520  10.529  1.00  0.00    -0.305 OA
ENDBRANCH  31  32
BRANCH  31  34
HETATM   34  C19 UNL     1       8.370  -0.580  13.780  1.00  0.00     0.135 C 
BRANCH  34  35
HETATM   35  C20 UNL     1       8.151  -1.956  14.317  1.00  0.00     0.220 C 
HETATM   36  O5  UNL     1       7.187  -2.666  14.019  1.00  0.00    -0.274 OA
HETATM   37  N5  UNL     1       9.144  -2.466  15.219  1.00  0.00    -0.352 N 
ATOM     38  H5  UNL     1       9.916  -1.847  15.466  1.00  0.00     0.163 HD
BRANCH  37  39
HETATM   39  C21 UNL     1       9.137  -3.776  15.802  1.00  0.00     0.034 C 
HETATM   40  C22 UNL     1       9.416  -4.777  14.705  1.00  0.00     0.035 C 
HETATM   41  C23 UNL     1       9.626  -6.159  15.287  1.00  0.00    -0.012 C 
HETATM   42  C24 UNL     1      10.694  -6.190  16.333  1.00  0.00     0.009 C 
HETATM   43  C28 UNL     1       8.315  -6.556  15.966  1.00  0.00     0.009 C 
HETATM   44  C25 UNL     1      10.369  -5.221  17.418  1.00  0.00    -0.012 C 
HETATM   45  C26 UNL     1       9.041  -5.555  18.076  1.00  0.00     0.009 C 
HETATM   46  C30 UNL     1      10.264  -3.845  16.842  1.00  0.00     0.035 C 
HETATM   47  C27 UNL     1       7.976  -5.550  17.013  1.00  0.00    -0.012 C 
HETATM   48  C29 UNL     1       7.862  -4.126  16.469  1.00  0.00     0.035 C 
ENDBRANCH  37  39
ENDBRANCH  34  35
ENDBRANCH  31  34
ENDBRANCH  29  31
ENDBRANCH   1  27
TORSDOF 11
ENDMDL
MODEL 5
REMARK VINA RESULT: -10.235240619      1.913      5.868
REMARK  11 active torsions:
REMARK  status: ('A' for Active; 'I' for Inactive)
REMARK    1  A    between atoms: N1_1  and  C1_4 
REMARK    2  A    between atoms: C3_8  and  C4_9 
REMARK    3  A    between atoms: C4_9  and  N3_10 
REMARK    4  A    between atoms: C4_9  and  C16_25 
REMARK       I    between atoms: N3_10  and  C5_12 
REMARK    5  A    between atoms: C5_12  and  O2_14 
REMARK    6  A    between atoms: O2_14  and  C6_15 
REMARK       I    between atoms: C16_25  and  N4_27 
REMARK    7  A    between atoms: N4_27  and  C17_29 
REMARK    8  A    between atoms: C17_29  and  C18_30 
REMARK    9  A    between atoms: C17_29  and  C19_32 
REMARK   10  A    between atoms: C19_32  and  C20_33 
REMARK       I    between atoms: C20_33  and  N5_35 
REMARK   11  A    between atoms: N5_35  and  C21_37 
ROOT
HETATM    1  C4  UNL     1       4.587  -3.291  14.452  1.00  0.00     0.230 C 
ENDROOT
BRANCH   1   2
HETATM    2  C3  UNL     1       4.053  -4.234  15.410  1.00  0.00     0.074 A 
HETATM    3  C2  UNL     1       3.281  -5.363  15.121  1.00  0.00     0.134 A 
HETATM    4  N2  UNL     1       2.993  -5.910  16.338  1.00  0.00    -0.200 N 
HETATM    5  C1  UNL     1       3.547  -5.172  17.292  1.00  0.00     0.676 A 
ATOM      6  H2  UNL     1       2.440  -6.753  16.491  1.00  0.00     0.183 HD
HETATM    7  N6  UNL     1       4.201  -4.142  16.750  1.00  0.00    -0.192 N 
ATOM      8  H6  UNL     1       4.716  -3.420  17.254  1.00  0.00     0.184 HD
BRANCH   5   9
HETATM    9  N1  UNL     1       3.468  -5.440  18.568  1.00  0.00    -0.234 N 
ATOM     10  H12 UNL     1       3.127  -4.805  19.290  1.00  0.00     0.174 HD
ATOM     11  H11 UNL     1       3.758  -6.322  18.989  1.00  0.00     0.174 HD
ENDBRANCH   5   9
ENDBRANCH   1   2
BRANCH   1  12
HETATM   12  N3  UNL     1       3.625  -2.495  13.805  1.00  0.00    -0.318 N 
HETATM   13  C5  UNL     1       2.528  -1.736  14.003  1.00  0.00     0.361 C 
HETATM   14  O1  UNL     1       2.003  -1.590  15.154  1.00  0.00    -0.238 OA
ATOM     15  H3  UNL     1       3.837  -2.490  12.807  1.00  0.00     0.166 HD
BRANCH  13  16
HETATM   16  O2  UNL     1       1.810  -1.026  13.010  1.00  0.00    -0.298 OA
BRANCH  16  17
HETATM   17  C6  UNL     1       1.884   0.387  12.986  1.00  0.00     0.142 C 
HETATM   18  C7  UNL     1       0.510   0.725  12.323  1.00  0.00     0.016 C 
HETATM   19  C8  UNL     1       0.438   0.155  10.944  1.00  0.00     0.012 C 
HETATM   20  C12 UNL     1       0.237   2.177  12.305  1.00  0.00     0.012 C 
HETATM   21  C9  UNL     1       1.503   0.843  10.086  1.00  0.00    -0.013 C 
HETATM   22  C10 UNL     1       1.246   2.339  10.024  1.00  0.00     0.009 C 
HETATM   23  C15 UNL     1       2.837   0.498  10.685  1.00  0.00     0.012 C 
HETATM   24  C11 UNL     1       1.287   2.846  11.444  1.00  0.00    -0.013 C 
HETATM   25  C13 UNL     1       2.644   2.506  12.022  1.00  0.00     0.012 C 
HETATM   26  C14 UNL     1       2.892   1.002  12.113  1.00  0.00     0.016 C 
ENDBRANCH  16  17
ENDBRANCH  13  16
ENDBRANCH   1  12
BRANCH   1  27
HETATM   27  C16 UNL     1       5.674  -2.449  15.092  1.00  0.00     0.247 C 
HETATM   28  O3  UNL     1       5.252  -1.621  15.939  1.00  0.00    -0.271 OA
HETATM   29  N4  UNL     1       7.015  -2.574  14.793  1.00  0.00    -0.348 N 
ATOM     30  H4  UNL     1       7.197  -3.320  14.121  1.00  0.00     0.163 HD
BRANCH  29  31
HETATM   31  C17 UNL     1       8.190  -1.914  15.198  1.00  0.00     0.154 C 
BRANCH  31  32
HETATM   32  C18 UNL     1       9.165  -2.751  15.897  1.00  0.00     0.256 C 
HETATM   33  O4  UNL     1      10.342  -2.812  15.903  1.00  0.00    -0.305 OA
ENDBRANCH  31  32
BRANCH  31  34
HETATM   34  C19 UNL     1       8.838  -1.317  13.941  1.00  0.00     0.135 C 
BRANCH  34  35
HETATM   35  C20 UNL     1       8.118  -0.065  13.561  1.00  0.00     0.220 C 
HETATM   36  O5  UNL     1       7.317   0.519  14.296  1.00  0.00    -0.274 OA
HETATM   37  N5  UNL     1       8.407   0.481  12.265  1.00  0.00    -0.352 N 
ATOM     38  H5  UNL     1       9.055  -0.036  11.672  1.00  0.00     0.163 HD
BRANCH  37  39
HETATM   39  C21 UNL     1       7.856   1.696  11.739  1.00  0.00     0.034 C 
HETATM   40  C22 UNL     1       8.666   2.850  12.282  1.00  0.00     0.035 C 
HETATM   41  C23 UNL     1       8.268   4.145  11.604  1.00  0.00    -0.012 C 
HETATM   42  C24 UNL     1       8.361   4.069  10.114  1.00  0.00     0.009 C 
HETATM   43  C28 UNL     1       6.800   4.391  11.953  1.00  0.00     0.009 C 
HETATM   44  C25 UNL     1       7.523   2.947   9.608  1.00  0.00    -0.012 C 
HETATM   45  C26 UNL     1       6.064   3.135   9.989  1.00  0.00     0.009 C 
HETATM   46  C30 UNL     1       7.994   1.662  10.210  1.00  0.00     0.035 C 
HETATM   47  C27 UNL     1       5.979   3.237  11.488  1.00  0.00    -0.012 C 
HETATM   48  C29 UNL     1       6.429   1.900  12.077  1.00  0.00     0.035 C 
ENDBRANCH  37  39
ENDBRANCH  34  35
ENDBRANCH  31  34
ENDBRANCH  29  31
ENDBRANCH   1  27
TORSDOF 11
ENDMDL
