MODEL 1
REMARK VINA RESULT: -6.531856519      0.000      0.000
REMARK  6 active torsions:
REMARK  status: ('A' for Active; 'I' for Inactive)
REMARK    1  A    between atoms: C4_5  and  O1_6 
REMARK    2  A    between atoms: C4_5  and  C6_14 
REMARK    3  A    between atoms: O1_6  and  C5_7 
REMARK       I    between atoms: C5_7  and  N1_9 
REMARK    4  A    between atoms: N1_9  and  N2_11 
REMARK    5  A    between atoms: C7_17  and  O5_18 
REMARK    6  A    between atoms: C9_21  and  O6_22 
ROOT
HETATM    1  C1  UNL     1      32.934  -3.803  43.559  1.00  0.00     0.054 C 
HETATM    2  C2  UNL     1      33.032  -4.394  42.146  1.00  0.00     0.129 C 
HETATM    3  F1  UNL     1      31.761  -4.558  41.679  1.00  0.00    -0.240 F 
HETATM    4  C3  UNL     1      33.838  -3.406  41.336  1.00  0.00     0.099 C 
HETATM    5  C4  UNL     1      33.831  -3.788  39.858  1.00  0.00     0.188 C 
HETATM    6  C7  UNL     1      33.948  -5.269  39.684  1.00  0.00     0.167 C 
HETATM    7  C8  UNL     1      34.449  -5.978  40.909  1.00  0.00     0.070 C 
HETATM    8  C9  UNL     1      33.718  -5.716  42.165  1.00  0.00     0.160 C 
ENDROOT
BRANCH   5   9
HETATM    9  O1  UNL     1      32.570  -3.380  39.372  1.00  0.00    -0.277 OA
BRANCH   9  10
HETATM   10  C5  UNL     1      31.984  -3.770  38.200  1.00  0.00     0.380 C 
HETATM   11  O2  UNL     1      31.407  -4.893  38.164  1.00  0.00    -0.237 OA
HETATM   12  N1  UNL     1      32.038  -2.917  37.073  1.00  0.00    -0.252 N 
ATOM     13  H1  UNL     1      32.514  -2.016  37.140  1.00  0.00     0.191 HD
BRANCH  12  14
HETATM   14  N2  UNL     1      31.446  -3.301  35.876  1.00  0.00    -0.341 N 
ATOM     15  H22 UNL     1      30.526  -3.741  35.900  1.00  0.00     0.177 HD
ATOM     16  H21 UNL     1      31.928  -3.144  34.991  1.00  0.00     0.177 HD
ENDBRANCH  12  14
ENDBRANCH   9  10
ENDBRANCH   5   9
BRANCH   5  17
HETATM   17  C6  UNL     1      34.939  -3.032  39.204  1.00  0.00     0.212 C 
HETATM   18  O3  UNL     1      35.064  -2.945  37.955  1.00  0.00    -0.646 OA
HETATM   19  O4  UNL     1      35.882  -2.391  39.993  1.00  0.00    -0.646 OA
ENDBRANCH   5  17
BRANCH   6  20
HETATM   20  O5  UNL     1      34.864  -5.549  38.661  1.00  0.00    -0.392 OA
ATOM     21  H5  UNL     1      35.301  -6.372  38.844  1.00  0.00     0.210 HD
ENDBRANCH   6  20
BRANCH   8  22
HETATM   22  O6  UNL     1      34.547  -5.862  43.294  1.00  0.00    -0.392 OA
ATOM     23  H6  UNL     1      34.209  -5.390  44.046  1.00  0.00     0.210 HD
ENDBRANCH   8  22
TORSDOF 6
ENDMDL
MODEL 2
REMARK VINA RESULT: -6.496399531      2.723      4.275
REMARK  6 active torsions:
REMARK  status: ('A' for Active; 'I' for Inactive)
REMARK    1  A    between atoms: C4_5  and  O1_6 
REMARK    2  A    between atoms: C4_5  and  C6_14 
REMARK    3  A    between atoms: O1_6  and  C5_7 
REMARK       I    between atoms: C5_7  and  N1_9 
REMARK    4  A    between atoms: N1_9  and  N2_11 
REMARK    5  A    between atoms: C7_17  and  O5_18 
REMARK    6  A    between atoms: C9_21  and  O6_22 
ROOT
HETATM    1  C1  UNL     1      32.535  -0.659  42.508  1.00  0.00     0.054 C 
HETATM    2  C2  UNL     1      32.763  -1.146  41.071  1.00  0.00     0.129 C 
HETATM    3  F1  UNL     1      34.018  -0.760  40.700  1.00  0.00    -0.240 F 
HETATM    4  C3  UNL     1      32.593  -2.647  41.107  1.00  0.00     0.099 C 
HETATM    5  C4  UNL     1      32.996  -3.268  39.772  1.00  0.00     0.188 C 
HETATM    6  C7  UNL     1      32.537  -2.425  38.625  1.00  0.00     0.167 C 
HETATM    7  C8  UNL     1      31.471  -1.435  38.999  1.00  0.00     0.070 C 
HETATM    8  C9  UNL     1      31.771  -0.544  40.137  1.00  0.00     0.160 C 
ENDROOT
BRANCH   5   9
HETATM    9  O1  UNL     1      34.407  -3.282  39.778  1.00  0.00    -0.277 OA
BRANCH   9  10
HETATM   10  C5  UNL     1      35.228  -3.086  38.702  1.00  0.00     0.380 C 
HETATM   11  O2  UNL     1      35.693  -1.928  38.508  1.00  0.00    -0.237 OA
HETATM   12  N1  UNL     1      35.531  -4.170  37.846  1.00  0.00    -0.252 N 
ATOM     13  H1  UNL     1      35.137  -5.092  38.035  1.00  0.00     0.191 HD
BRANCH  12  14
HETATM   14  N2  UNL     1      36.365  -3.983  36.750  1.00  0.00    -0.341 N 
ATOM     15  H22 UNL     1      36.228  -3.163  36.159  1.00  0.00     0.177 HD
ATOM     16  H21 UNL     1      37.100  -4.659  36.544  1.00  0.00     0.177 HD
ENDBRANCH  12  14
ENDBRANCH   9  10
ENDBRANCH   5   9
BRANCH   5  17
HETATM   17  C6  UNL     1      32.436  -4.650  39.744  1.00  0.00     0.212 C 
HETATM   18  O3  UNL     1      31.438  -4.999  40.426  1.00  0.00    -0.646 OA
HETATM   19  O4  UNL     1      33.031  -5.608  38.935  1.00  0.00    -0.646 OA
ENDBRANCH   5  17
BRANCH   6  20
HETATM   20  O5  UNL     1      31.985  -3.246  37.633  1.00  0.00    -0.392 OA
ATOM     21  H5  UNL     1      31.217  -2.826  37.265  1.00  0.00     0.210 HD
ENDBRANCH   6  20
BRANCH   8  22
HETATM   22  O6  UNL     1      30.601  -0.134  40.805  1.00  0.00    -0.392 OA
ATOM     23  H6  UNL     1      29.832  -0.213  40.254  1.00  0.00     0.210 HD
ENDBRANCH   8  22
TORSDOF 6
ENDMDL
MODEL 3
REMARK VINA RESULT: -6.319612979      1.497      2.010
REMARK  6 active torsions:
REMARK  status: ('A' for Active; 'I' for Inactive)
REMARK    1  A    between atoms: C4_5  and  O1_6 
REMARK    2  A    between atoms: C4_5  and  C6_14 
REMARK    3  A    between atoms: O1_6  and  C5_7 
REMARK       I    between atoms: C5_7  and  N1_9 
REMARK    4  A    between atoms: N1_9  and  N2_11 
REMARK    5  A    between atoms: C7_17  and  O5_18 
REMARK    6  A    between atoms: C9_21  and  O6_22 
ROOT
HETATM    1  C1  UNL     1      32.508  -3.730  43.613  1.00  0.00     0.054 C 
HETATM    2  C2  UNL     1      32.035  -4.031  42.185  1.00  0.00     0.129 C 
HETATM    3  F1  UNL     1      31.136  -3.066  41.836  1.00  0.00    -0.240 F 
HETATM    4  C3  UNL     1      33.277  -4.022  41.324  1.00  0.00     0.099 C 
HETATM    5  C4  UNL     1      32.909  -4.109  39.845  1.00  0.00     0.188 C 
HETATM    6  C7  UNL     1      31.776  -5.061  39.627  1.00  0.00     0.167 C 
HETATM    7  C8  UNL     1      31.545  -5.992  40.784  1.00  0.00     0.070 C 
HETATM    8  C9  UNL     1      31.374  -5.363  42.109  1.00  0.00     0.160 C 
ENDROOT
BRANCH   5   9
HETATM    9  O1  UNL     1      32.477  -2.814  39.490  1.00  0.00    -0.277 OA
BRANCH   9  10
HETATM   10  C5  UNL     1      32.021  -2.414  38.265  1.00  0.00     0.380 C 
HETATM   11  O2  UNL     1      31.579  -1.237  38.146  1.00  0.00    -0.237 OA
HETATM   12  N1  UNL     1      32.058  -3.317  37.176  1.00  0.00    -0.252 N 
ATOM     13  H1  UNL     1      32.422  -4.260  37.310  1.00  0.00     0.191 HD
BRANCH  12  14
HETATM   14  N2  UNL     1      31.598  -2.922  35.925  1.00  0.00    -0.341 N 
ATOM     15  H22 UNL     1      32.025  -2.112  35.476  1.00  0.00     0.177 HD
ATOM     16  H21 UNL     1      30.846  -3.437  35.469  1.00  0.00     0.177 HD
ENDBRANCH  12  14
ENDBRANCH   9  10
ENDBRANCH   5   9
BRANCH   5  17
HETATM   17  C6  UNL     1      34.147  -4.494  39.107  1.00  0.00     0.212 C 
HETATM   18  O3  UNL     1      34.596  -5.669  39.088  1.00  0.00    -0.646 OA
HETATM   19  O4  UNL     1      34.847  -3.524  38.404  1.00  0.00    -0.646 OA
ENDBRANCH   5  17
BRANCH   6  20
HETATM   20  O5  UNL     1      32.051  -5.870  38.517  1.00  0.00    -0.392 OA
ATOM     21  H5  UNL     1      31.302  -5.874  37.934  1.00  0.00     0.210 HD
ENDBRANCH   6  20
BRANCH   8  22
HETATM   22  O6  UNL     1      31.787  -6.216  43.151  1.00  0.00    -0.392 OA
ATOM     23  H6  UNL     1      31.049  -6.566  43.636  1.00  0.00     0.210 HD
ENDBRANCH   8  22
TORSDOF 6
ENDMDL
MODEL 4
REMARK VINA RESULT: -6.268280013      0.913      1.059
REMARK  6 active torsions:
REMARK  status: ('A' for Active; 'I' for Inactive)
REMARK    1  A    between atoms: C4_5  and  O1_6 
REMARK    2  A    between atoms: C4_5  and  C6_14 
REMARK    3  A    between atoms: O1_6  and  C5_7 
REMARK       I    between atoms: C5_7  and  N1_9 
REMARK    4  A    between atoms: N1_9  and  N2_11 
REMARK    5  A    between atoms: C7_17  and  O5_18 
REMARK    6  A    between atoms: C9_21  and  O6_22 
ROOT
HETATM    1  C1  UNL     1      33.145  -4.093  43.789  1.00  0.00     0.054 C 
HETATM    2  C2  UNL     1      33.168  -4.390  42.284  1.00  0.00     0.129 C 
HETATM    3  F1  UNL     1      31.878  -4.384  41.843  1.00  0.00    -0.240 F 
HETATM    4  C3  UNL     1      34.012  -3.304  41.658  1.00  0.00     0.099 C 
HETATM    5  C4  UNL     1      33.943  -3.376  40.135  1.00  0.00     0.188 C 
HETATM    6  C7  UNL     1      33.963  -4.795  39.662  1.00  0.00     0.167 C 
HETATM    7  C8  UNL     1      34.451  -5.765  40.700  1.00  0.00     0.070 C 
HETATM    8  C9  UNL     1      33.772  -5.724  42.010  1.00  0.00     0.160 C 
ENDROOT
BRANCH   5   9
HETATM    9  O1  UNL     1      32.697  -2.809  39.791  1.00  0.00    -0.277 OA
BRANCH   9  10
HETATM   10  C5  UNL     1      32.293  -2.430  38.541  1.00  0.00     0.380 C 
HETATM   11  O2  UNL     1      31.983  -1.219  38.355  1.00  0.00    -0.237 OA
HETATM   12  N1  UNL     1      32.232  -3.389  37.503  1.00  0.00    -0.252 N 
ATOM     13  H1  UNL     1      32.490  -4.358  37.691  1.00  0.00     0.191 HD
BRANCH  12  14
HETATM   14  N2  UNL     1      31.823  -3.015  36.229  1.00  0.00    -0.341 N 
ATOM     15  H22 UNL     1      32.530  -2.774  35.534  1.00  0.00     0.177 HD
ATOM     16  H21 UNL     1      30.830  -2.983  35.998  1.00  0.00     0.177 HD
ENDBRANCH  12  14
ENDBRANCH   9  10
ENDBRANCH   5   9
BRANCH   5  17
HETATM   17  C6  UNL     1      35.077  -2.566  39.604  1.00  0.00     0.212 C 
HETATM   18  O3  UNL     1      35.177  -2.238  38.394  1.00  0.00    -0.646 OA
HETATM   19  O4  UNL     1      36.077  -2.148  40.470  1.00  0.00    -0.646 OA
ENDBRANCH   5  17
BRANCH   6  20
HETATM   20  O5  UNL     1      34.832  -4.912  38.570  1.00  0.00    -0.392 OA
ATOM     21  H5  UNL     1      34.336  -5.139  37.792  1.00  0.00     0.210 HD
ENDBRANCH   6  20
BRANCH   8  22
HETATM   22  O6  UNL     1      34.620  -6.142  43.054  1.00  0.00    -0.392 OA
ATOM     23  H6  UNL     1      35.457  -5.695  43.031  1.00  0.00     0.210 HD
ENDBRANCH   8  22
TORSDOF 6
ENDMDL
MODEL 5
REMARK VINA RESULT: -6.075257601      2.479      3.294
REMARK  6 active torsions:
REMARK  status: ('A' for Active; 'I' for Inactive)
REMARK    1  A    between atoms: C4_5  and  O1_6 
REMARK    2  A    between atoms: C4_5  and  C6_14 
REMARK    3  A    between atoms: O1_6  and  C5_7 
REMARK       I    between atoms: C5_7  and  N1_9 
REMARK    4  A    between atoms: N1_9  and  N2_11 
REMARK    5  A    between atoms: C7_17  and  O5_18 
REMARK    6  A    between atoms: C9_21  and  O6_22 
ROOT
HETATM    1  C1  UNL     1      34.686  -5.443  42.298  1.00  0.00     0.054 C 
HETATM    2  C2  UNL     1      33.782  -4.486  41.510  1.00  0.00     0.129 C 
HETATM    3  F1  UNL     1      32.892  -3.941  42.390  1.00  0.00    -0.240 F 
HETATM    4  C3  UNL     1      34.701  -3.462  40.887  1.00  0.00     0.099 C 
HETATM    5  C4  UNL     1      33.896  -2.337  40.242  1.00  0.00     0.188 C 
HETATM    6  C7  UNL     1      32.684  -2.871  39.547  1.00  0.00     0.167 C 
HETATM    7  C8  UNL     1      32.748  -4.348  39.283  1.00  0.00     0.070 C 
HETATM    8  C9  UNL     1      33.033  -5.212  40.447  1.00  0.00     0.160 C 
ENDROOT
BRANCH   5   9
HETATM    9  O1  UNL     1      33.472  -1.520  41.312  1.00  0.00    -0.277 OA
BRANCH   9  10
HETATM   10  C5  UNL     1      32.342  -0.751  41.352  1.00  0.00     0.380 C 
HETATM   11  O2  UNL     1      31.457  -1.034  42.207  1.00  0.00    -0.237 OA
HETATM   12  N1  UNL     1      32.195   0.326  40.447  1.00  0.00    -0.252 N 
ATOM     13  H1  UNL     1      32.932   0.524  39.770  1.00  0.00     0.191 HD
BRANCH  12  14
HETATM   14  N2  UNL     1      31.051   1.115  40.478  1.00  0.00    -0.341 N 
ATOM     15  H22 UNL     1      30.532   1.265  39.614  1.00  0.00     0.177 HD
ATOM     16  H21 UNL     1      30.741   1.533  41.355  1.00  0.00     0.177 HD
ENDBRANCH  12  14
ENDBRANCH   9  10
ENDBRANCH   5   9
BRANCH   5  17
HETATM   17  C6  UNL     1      34.820  -1.604  39.328  1.00  0.00     0.212 C 
HETATM   18  O3  UNL     1      34.957  -0.353  39.352  1.00  0.00    -0.646 OA
HETATM   19  O4  UNL     1      35.569  -2.317  38.404  1.00  0.00    -0.646 OA
ENDBRANCH   5  17
BRANCH   6  20
HETATM   20  O5  UNL     1      32.550  -2.251  38.298  1.00  0.00    -0.392 OA
ATOM     21  H5  UNL     1      31.803  -2.618  37.840  1.00  0.00     0.210 HD
ENDBRANCH   6  20
BRANCH   8  22
HETATM   22  O6  UNL     1      33.679  -6.404  40.068  1.00  0.00    -0.392 OA
ATOM     23  H6  UNL     1      33.066  -7.051  39.738  1.00  0.00     0.210 HD
ENDBRANCH   8  22
TORSDOF 6
ENDMDL
