MODEL 1
REMARK VINA RESULT: -6.162776819      0.000      0.000
REMARK  5 active torsions:
REMARK  status: ('A' for Active; 'I' for Inactive)
REMARK    1  A    between atoms: N1_1  and  O1_4 
REMARK    2  A    between atoms: O1_4  and  C1_5 
REMARK       I    between atoms: C1_5  and  N2_7 
REMARK    3  A    between atoms: C2_8  and  N3_9 
REMARK       I    between atoms: N3_9  and  C3_11 
REMARK    4  A    between atoms: C3_11  and  C4_13 
REMARK    5  A    between atoms: C6_20  and  O6_21 
ROOT
HETATM    1  C1  UNL     1      34.856  -1.474  39.658  1.00  0.00     0.389 C 
HETATM    2  O2  UNL     1      35.922  -1.225  40.274  1.00  0.00    -0.236 OA
HETATM    3  N2  UNL     1      33.679  -0.704  39.817  1.00  0.00    -0.252 N 
HETATM    4  C2  UNL     1      33.528   0.428  40.668  1.00  0.00     0.222 C 
HETATM    5  C5  UNL     1      32.064   0.372  41.045  1.00  0.00     0.284 C 
HETATM    6  N4  UNL     1      31.423  -0.208  39.904  1.00  0.00    -0.025 N 
ATOM      7  H41 UNL     1      30.920   0.478  39.342  1.00  0.00     0.282 HD
ATOM      8  H42 UNL     1      30.624  -0.791  40.155  1.00  0.00     0.282 HD
HETATM    9  C6  UNL     1      32.422  -0.927  39.147  1.00  0.00     0.454 C 
ENDROOT
BRANCH   4  10
HETATM   10  N3  UNL     1      33.864   1.681  40.034  1.00  0.00    -0.329 N 
HETATM   11  C3  UNL     1      34.690   2.666  40.598  1.00  0.00     0.319 C 
HETATM   12  O3  UNL     1      35.186   2.483  41.720  1.00  0.00    -0.261 OA
ATOM     13  H3  UNL     1      33.473   1.864  39.110  1.00  0.00     0.165 HD
BRANCH  11  14
HETATM   14  C4  UNL     1      34.958   3.879  39.880  1.00  0.00     0.270 C 
HETATM   15  O4  UNL     1      35.411   3.884  38.704  1.00  0.00    -0.640 OA
HETATM   16  O5  UNL     1      34.715   5.098  40.491  1.00  0.00    -0.640 OA
ENDBRANCH  11  14
ENDBRANCH   4  10
BRANCH   1  17
HETATM   17  O1  UNL     1      34.872  -2.553  38.796  1.00  0.00    -0.188 OA
BRANCH  17  18
HETATM   18  N1  UNL     1      35.983  -2.843  38.054  1.00  0.00    -0.301 N 
ATOM     19  H12 UNL     1      36.678  -3.478  38.446  1.00  0.00     0.184 HD
ATOM     20  H11 UNL     1      36.116  -2.437  37.128  1.00  0.00     0.184 HD
ENDBRANCH  17  18
ENDBRANCH   1  17
BRANCH   9  21
HETATM   21  O6  UNL     1      32.061  -2.270  39.109  1.00  0.00    -0.228 OA
HETATM   22 CL1  UNL     1      31.721  -2.793  37.516  1.00  0.00     0.065 Cl
ENDBRANCH   9  21
TORSDOF 5
ENDMDL
MODEL 2
REMARK VINA RESULT: -6.052874488      1.121      1.166
REMARK  5 active torsions:
REMARK  status: ('A' for Active; 'I' for Inactive)
REMARK    1  A    between atoms: N1_1  and  O1_4 
REMARK    2  A    between atoms: O1_4  and  C1_5 
REMARK       I    between atoms: C1_5  and  N2_7 
REMARK    3  A    between atoms: C2_8  and  N3_9 
REMARK       I    between atoms: N3_9  and  C3_11 
REMARK    4  A    between atoms: C3_11  and  C4_13 
REMARK    5  A    between atoms: C6_20  and  O6_21 
ROOT
HETATM    1  C1  UNL     1      35.060  -0.537  39.855  1.00  0.00     0.389 C 
HETATM    2  O2  UNL     1      36.017  -0.180  40.587  1.00  0.00    -0.236 OA
HETATM    3  N2  UNL     1      33.735  -0.073  40.043  1.00  0.00    -0.252 N 
HETATM    4  C2  UNL     1      33.301   0.833  41.052  1.00  0.00     0.222 C 
HETATM    5  C5  UNL     1      31.871   0.403  41.296  1.00  0.00     0.284 C 
HETATM    6  N4  UNL     1      31.424  -0.089  40.029  1.00  0.00    -0.025 N 
ATOM      7  H41 UNL     1      30.806   0.564  39.547  1.00  0.00     0.282 HD
ATOM      8  H42 UNL     1      30.764  -0.862  40.116  1.00  0.00     0.282 HD
HETATM    9  C6  UNL     1      32.590  -0.435  39.247  1.00  0.00     0.454 C 
ENDROOT
BRANCH   4  10
HETATM   10  N3  UNL     1      33.377   2.220  40.660  1.00  0.00    -0.329 N 
HETATM   11  C3  UNL     1      34.319   3.139  41.149  1.00  0.00     0.319 C 
HETATM   12  O3  UNL     1      35.164   2.770  41.980  1.00  0.00    -0.261 OA
ATOM     13  H3  UNL     1      32.697   2.557  39.979  1.00  0.00     0.165 HD
BRANCH  11  14
HETATM   14  C4  UNL     1      34.305   4.499  40.692  1.00  0.00     0.270 C 
HETATM   15  O4  UNL     1      35.094   4.924  39.808  1.00  0.00    -0.640 OA
HETATM   16  O5  UNL     1      33.392   5.388  41.235  1.00  0.00    -0.640 OA
ENDBRANCH  11  14
ENDBRANCH   4  10
BRANCH   1  17
HETATM   17  O1  UNL     1      35.352  -1.418  38.833  1.00  0.00    -0.188 OA
BRANCH  17  18
HETATM   18  N1  UNL     1      35.648  -2.726  39.095  1.00  0.00    -0.301 N 
ATOM     19  H12 UNL     1      34.918  -3.321  39.487  1.00  0.00     0.184 HD
ATOM     20  H11 UNL     1      36.577  -3.103  38.904  1.00  0.00     0.184 HD
ENDBRANCH  17  18
ENDBRANCH   1  17
BRANCH   9  21
HETATM   21  O6  UNL     1      32.537  -1.795  38.961  1.00  0.00    -0.228 OA
HETATM   22 CL1  UNL     1      32.324  -2.734  40.376  1.00  0.00     0.065 Cl
ENDBRANCH   9  21
TORSDOF 5
ENDMDL
MODEL 3
REMARK VINA RESULT: -5.938306943      3.305      4.812
REMARK  5 active torsions:
REMARK  status: ('A' for Active; 'I' for Inactive)
REMARK    1  A    between atoms: N1_1  and  O1_4 
REMARK    2  A    between atoms: O1_4  and  C1_5 
REMARK       I    between atoms: C1_5  and  N2_7 
REMARK    3  A    between atoms: C2_8  and  N3_9 
REMARK       I    between atoms: N3_9  and  C3_11 
REMARK    4  A    between atoms: C3_11  and  C4_13 
REMARK    5  A    between atoms: C6_20  and  O6_21 
ROOT
HETATM    1  C1  UNL     1      34.839   3.777  39.842  1.00  0.00     0.389 C 
HETATM    2  O2  UNL     1      34.707   4.974  40.203  1.00  0.00    -0.236 OA
HETATM    3  N2  UNL     1      34.119   2.713  40.435  1.00  0.00    -0.252 N 
HETATM    4  C2  UNL     1      33.172   2.830  41.492  1.00  0.00     0.222 C 
HETATM    5  C5  UNL     1      33.305   1.505  42.210  1.00  0.00     0.284 C 
HETATM    6  N4  UNL     1      33.660   0.574  41.182  1.00  0.00    -0.025 N 
ATOM      7  H41 UNL     1      32.880  -0.022  40.904  1.00  0.00     0.282 HD
ATOM      8  H42 UNL     1      34.283  -0.162  41.514  1.00  0.00     0.282 HD
HETATM    9  C6  UNL     1      34.216   1.320  40.076  1.00  0.00     0.454 C 
ENDROOT
BRANCH   4  10
HETATM   10  N3  UNL     1      31.819   3.052  41.039  1.00  0.00    -0.329 N 
HETATM   11  C3  UNL     1      31.171   4.297  41.035  1.00  0.00     0.319 C 
HETATM   12  O3  UNL     1      31.771   5.303  41.443  1.00  0.00    -0.261 OA
ATOM     13  H3  UNL     1      31.296   2.245  40.696  1.00  0.00     0.165 HD
BRANCH  11  14
HETATM   14  C4  UNL     1      29.821   4.405  40.562  1.00  0.00     0.270 C 
HETATM   15  O4  UNL     1      29.484   4.078  39.394  1.00  0.00    -0.640 OA
HETATM   16  O5  UNL     1      28.840   4.887  41.414  1.00  0.00    -0.640 OA
ENDBRANCH  11  14
ENDBRANCH   4  10
BRANCH   1  17
HETATM   17  O1  UNL     1      35.733   3.531  38.818  1.00  0.00    -0.188 OA
BRANCH  17  18
HETATM   18  N1  UNL     1      35.910   4.432  37.807  1.00  0.00    -0.301 N 
ATOM     19  H12 UNL     1      36.398   5.305  38.012  1.00  0.00     0.184 HD
ATOM     20  H11 UNL     1      35.564   4.241  36.866  1.00  0.00     0.184 HD
ENDBRANCH  17  18
ENDBRANCH   1  17
BRANCH   9  21
HETATM   21  O6  UNL     1      35.528   0.901  39.881  1.00  0.00    -0.228 OA
HETATM   22 CL1  UNL     1      35.883  -0.514  40.775  1.00  0.00     0.065 Cl
ENDBRANCH   9  21
TORSDOF 5
ENDMDL
MODEL 4
REMARK VINA RESULT: -5.849872857      1.599      1.803
REMARK  5 active torsions:
REMARK  status: ('A' for Active; 'I' for Inactive)
REMARK    1  A    between atoms: N1_1  and  O1_4 
REMARK    2  A    between atoms: O1_4  and  C1_5 
REMARK       I    between atoms: C1_5  and  N2_7 
REMARK    3  A    between atoms: C2_8  and  N3_9 
REMARK       I    between atoms: N3_9  and  C3_11 
REMARK    4  A    between atoms: C3_11  and  C4_13 
REMARK    5  A    between atoms: C6_20  and  O6_21 
ROOT
HETATM    1  C1  UNL     1      34.913  -0.438  39.992  1.00  0.00     0.389 C 
HETATM    2  O2  UNL     1      35.790  -0.044  40.801  1.00  0.00    -0.236 OA
HETATM    3  N2  UNL     1      33.548  -0.082  40.106  1.00  0.00    -0.252 N 
HETATM    4  C2  UNL     1      32.981   0.745  41.117  1.00  0.00     0.222 C 
HETATM    5  C5  UNL     1      31.575   0.201  41.246  1.00  0.00     0.284 C 
HETATM    6  N4  UNL     1      31.250  -0.268  39.933  1.00  0.00    -0.025 N 
ATOM      7  H41 UNL     1      30.616   0.358  39.436  1.00  0.00     0.282 HD
ATOM      8  H42 UNL     1      30.647  -1.090  39.946  1.00  0.00     0.282 HD
HETATM    9  C6  UNL     1      32.487  -0.493  39.220  1.00  0.00     0.454 C 
ENDROOT
BRANCH   4  10
HETATM   10  N3  UNL     1      32.975   2.150  40.785  1.00  0.00    -0.329 N 
HETATM   11  C3  UNL     1      33.006   3.194  41.722  1.00  0.00     0.319 C 
HETATM   12  O3  UNL     1      33.040   2.930  42.934  1.00  0.00    -0.261 OA
ATOM     13  H3  UNL     1      32.948   2.402  39.797  1.00  0.00     0.165 HD
BRANCH  11  14
HETATM   14  C4  UNL     1      32.997   4.559  41.282  1.00  0.00     0.270 C 
HETATM   15  O4  UNL     1      31.936   5.231  41.179  1.00  0.00    -0.640 OA
HETATM   16  O5  UNL     1      34.194   5.174  40.954  1.00  0.00    -0.640 OA
ENDBRANCH  11  14
ENDBRANCH   4  10
BRANCH   1  17
HETATM   17  O1  UNL     1      35.338  -1.250  38.959  1.00  0.00    -0.188 OA
BRANCH  17  18
HETATM   18  N1  UNL     1      35.707  -2.546  39.190  1.00  0.00    -0.301 N 
ATOM     19  H12 UNL     1      36.005  -2.807  40.130  1.00  0.00     0.184 HD
ATOM     20  H11 UNL     1      35.685  -3.239  38.441  1.00  0.00     0.184 HD
ENDBRANCH  17  18
ENDBRANCH   1  17
BRANCH   9  21
HETATM   21  O6  UNL     1      32.558  -1.840  38.880  1.00  0.00    -0.228 OA
HETATM   22 CL1  UNL     1      32.357  -2.852  40.245  1.00  0.00     0.065 Cl
ENDBRANCH   9  21
TORSDOF 5
ENDMDL
MODEL 5
REMARK VINA RESULT: -5.598184395      1.872      1.993
REMARK  5 active torsions:
REMARK  status: ('A' for Active; 'I' for Inactive)
REMARK    1  A    between atoms: N1_1  and  O1_4 
REMARK    2  A    between atoms: O1_4  and  C1_5 
REMARK       I    between atoms: C1_5  and  N2_7 
REMARK    3  A    between atoms: C2_8  and  N3_9 
REMARK       I    between atoms: N3_9  and  C3_11 
REMARK    4  A    between atoms: C3_11  and  C4_13 
REMARK    5  A    between atoms: C6_20  and  O6_21 
ROOT
HETATM    1  C1  UNL     1      34.778  -0.182  40.030  1.00  0.00     0.389 C 
HETATM    2  O2  UNL     1      35.966   0.227  40.068  1.00  0.00    -0.236 OA
HETATM    3  N2  UNL     1      33.777   0.283  40.917  1.00  0.00    -0.252 N 
HETATM    4  C2  UNL     1      33.956   1.249  41.948  1.00  0.00     0.222 C 
HETATM    5  C5  UNL     1      32.938   0.826  42.984  1.00  0.00     0.284 C 
HETATM    6  N4  UNL     1      31.871   0.251  42.224  1.00  0.00    -0.025 N 
ATOM      7  H41 UNL     1      31.062   0.868  42.150  1.00  0.00     0.282 HD
ATOM      8  H42 UNL     1      31.411  -0.519  42.709  1.00  0.00     0.282 HD
HETATM    9  C6  UNL     1      32.398  -0.137  40.935  1.00  0.00     0.454 C 
ENDROOT
BRANCH   4  10
HETATM   10  N3  UNL     1      33.737   2.609  41.516  1.00  0.00    -0.329 N 
HETATM   11  C3  UNL     1      34.739   3.588  41.415  1.00  0.00     0.319 C 
HETATM   12  O3  UNL     1      35.909   3.301  41.711  1.00  0.00    -0.261 OA
ATOM     13  H3  UNL     1      32.786   2.879  41.265  1.00  0.00     0.165 HD
BRANCH  11  14
HETATM   14  C4  UNL     1      34.410   4.913  40.974  1.00  0.00     0.270 C 
HETATM   15  O4  UNL     1      35.130   5.554  40.164  1.00  0.00    -0.640 OA
HETATM   16  O5  UNL     1      33.261   5.521  41.451  1.00  0.00    -0.640 OA
ENDBRANCH  11  14
ENDBRANCH   4  10
BRANCH   1  17
HETATM   17  O1  UNL     1      34.474  -1.125  39.068  1.00  0.00    -0.188 OA
BRANCH  17  18
HETATM   18  N1  UNL     1      35.294  -2.196  38.849  1.00  0.00    -0.301 N 
ATOM     19  H12 UNL     1      36.000  -2.126  38.116  1.00  0.00     0.184 HD
ATOM     20  H11 UNL     1      35.206  -3.047  39.405  1.00  0.00     0.184 HD
ENDBRANCH  17  18
ENDBRANCH   1  17
BRANCH   9  21
HETATM   21  O6  UNL     1      32.250  -1.513  40.797  1.00  0.00    -0.228 OA
HETATM   22 CL1  UNL     1      31.212  -2.164  41.991  1.00  0.00     0.065 Cl
ENDBRANCH   9  21
TORSDOF 5
ENDMDL
