MODEL 1
REMARK VINA RESULT: -6.458610868      0.000      0.000
REMARK  3 active torsions:
REMARK  status: ('A' for Active; 'I' for Inactive)
REMARK       I    between atoms: C1_4  and  N3_6 
REMARK    1  A    between atoms: N7_19  and  N8_20 
REMARK    2  A    between atoms: C7_22  and  N9_24 
REMARK    3  A    between atoms: N9_24  and  N10_26 
ROOT
HETATM    1  N1  UNL     1      31.139   0.346  40.119  1.00  0.00    -0.373 N 
ATOM      2  H11 UNL     1      31.224   0.300  39.104  1.00  0.00     0.158 HD
ATOM      3  H12 UNL     1      30.798   1.180  40.596  1.00  0.00     0.158 HD
HETATM    4  C1  UNL     1      31.487  -0.697  40.836  1.00  0.00     0.187 C 
HETATM    5  N2  UNL     1      31.369  -0.633  42.258  1.00  0.00    -0.064 NA
HETATM    6  N3  UNL     1      31.958  -1.847  40.179  1.00  0.00    -0.314 N 
ATOM      7  H3  UNL     1      31.279  -2.546  39.877  1.00  0.00     0.170 HD
HETATM    8  C2  UNL     1      33.185  -2.058  39.944  1.00  0.00     0.161 A 
HETATM    9  C3  UNL     1      34.139  -1.128  40.340  1.00  0.00     0.124 A 
HETATM   10  N4  UNL     1      34.120   0.062  40.974  1.00  0.00    -0.346 N 
ATOM     11  H4  UNL     1      33.284   0.540  41.312  1.00  0.00     0.167 HD
HETATM   12  C4  UNL     1      35.375   0.518  41.088  1.00  0.00     0.182 A 
HETATM   13  N5  UNL     1      36.176  -0.401  40.521  1.00  0.00    -0.337 N 
ATOM     14  H5  UNL     1      37.190  -0.321  40.461  1.00  0.00     0.168 HD
HETATM   15  C5  UNL     1      35.469  -1.433  40.045  1.00  0.00     0.138 A 
HETATM   16  N6  UNL     1      35.770  -2.585  39.404  1.00  0.00    -0.335 N 
ATOM     17  H6  UNL     1      36.744  -2.801  39.192  1.00  0.00     0.168 HD
HETATM   18  C6  UNL     1      34.806  -3.448  39.044  1.00  0.00     0.210 A 
HETATM   19  N7  UNL     1      33.514  -3.210  39.300  1.00  0.00    -0.231 N 
ENDROOT
BRANCH  19  20
HETATM   20  N8  UNL     1      32.487  -4.075  38.945  1.00  0.00    -0.265 N 
HETATM   21  C7  UNL     1      31.827  -4.014  37.853  1.00  0.00     0.208 C 
HETATM   22 CL1  UNL     1      30.571  -5.195  37.593  1.00  0.00    -0.042 Cl
ATOM     23  H8  UNL     1      32.243  -4.814  39.605  1.00  0.00     0.190 HD
BRANCH  21  24
HETATM   24  N9  UNL     1      32.066  -3.040  36.856  1.00  0.00    -0.281 N 
ATOM     25  H9  UNL     1      32.711  -2.281  37.079  1.00  0.00     0.189 HD
BRANCH  24  26
HETATM   26  N10 UNL     1      31.488  -3.045  35.601  1.00  0.00    -0.343 N 
ATOM     27 2H10 UNL     1      31.556  -3.913  35.069  1.00  0.00     0.176 HD
ATOM     28 1H10 UNL     1      31.006  -2.249  35.183  1.00  0.00     0.176 HD
ENDBRANCH  24  26
ENDBRANCH  21  24
ENDBRANCH  19  20
TORSDOF 3
ENDMDL
MODEL 2
REMARK VINA RESULT: -6.294387863      2.064      2.613
REMARK  3 active torsions:
REMARK  status: ('A' for Active; 'I' for Inactive)
REMARK       I    between atoms: C1_4  and  N3_6 
REMARK    1  A    between atoms: N7_19  and  N8_20 
REMARK    2  A    between atoms: C7_22  and  N9_24 
REMARK    3  A    between atoms: N9_24  and  N10_26 
ROOT
HETATM    1  N1  UNL     1      31.178  -0.321  38.869  1.00  0.00    -0.373 N 
ATOM      2  H11 UNL     1      31.728  -0.658  38.078  1.00  0.00     0.158 HD
ATOM      3  H12 UNL     1      30.351   0.263  38.742  1.00  0.00     0.158 HD
HETATM    4  C1  UNL     1      31.548  -0.639  40.086  1.00  0.00     0.187 C 
HETATM    5  N2  UNL     1      30.778  -0.167  41.193  1.00  0.00    -0.064 NA
HETATM    6  N3  UNL     1      32.689  -1.442  40.262  1.00  0.00    -0.314 N 
ATOM      7  H3  UNL     1      32.573  -2.456  40.259  1.00  0.00     0.170 HD
HETATM    8  C2  UNL     1      33.852  -0.969  40.424  1.00  0.00     0.161 A 
HETATM    9  C3  UNL     1      34.048   0.407  40.434  1.00  0.00     0.124 A 
HETATM   10  N4  UNL     1      33.260   1.494  40.306  1.00  0.00    -0.346 N 
ATOM     11  H4  UNL     1      32.250   1.480  40.161  1.00  0.00     0.167 HD
HETATM   12  C4  UNL     1      34.016   2.597  40.401  1.00  0.00     0.182 A 
HETATM   13  N5  UNL     1      35.281   2.186  40.589  1.00  0.00    -0.337 N 
ATOM     14  H5  UNL     1      36.079   2.812  40.697  1.00  0.00     0.168 HD
HETATM   15  C5  UNL     1      35.359   0.850  40.618  1.00  0.00     0.138 A 
HETATM   16  N6  UNL     1      36.358  -0.047  40.774  1.00  0.00    -0.335 N 
ATOM     17  H6  UNL     1      37.313   0.283  40.908  1.00  0.00     0.168 HD
HETATM   18  C6  UNL     1      36.111  -1.367  40.756  1.00  0.00     0.210 A 
HETATM   19  N7  UNL     1      34.874  -1.851  40.583  1.00  0.00    -0.231 N 
ENDROOT
BRANCH  19  20
HETATM   20  N8  UNL     1      34.576  -3.207  40.558  1.00  0.00    -0.265 N 
HETATM   21  C7  UNL     1      34.508  -3.919  39.500  1.00  0.00     0.208 C 
HETATM   22 CL1  UNL     1      34.117  -5.610  39.678  1.00  0.00    -0.042 Cl
ATOM     23  H8  UNL     1      34.397  -3.668  41.451  1.00  0.00     0.190 HD
BRANCH  21  24
HETATM   24  N9  UNL     1      34.733  -3.403  38.202  1.00  0.00    -0.281 N 
ATOM     25  H9  UNL     1      33.932  -3.028  37.695  1.00  0.00     0.189 HD
BRANCH  24  26
HETATM   26  N10 UNL     1      35.965  -3.372  37.575  1.00  0.00    -0.343 N 
ATOM     27 2H10 UNL     1      36.735  -3.836  38.056  1.00  0.00     0.176 HD
ATOM     28 1H10 UNL     1      36.145  -2.921  36.677  1.00  0.00     0.176 HD
ENDBRANCH  24  26
ENDBRANCH  21  24
ENDBRANCH  19  20
TORSDOF 3
ENDMDL
MODEL 3
REMARK VINA RESULT: -6.190099990      1.190      1.323
REMARK  3 active torsions:
REMARK  status: ('A' for Active; 'I' for Inactive)
REMARK       I    between atoms: C1_4  and  N3_6 
REMARK    1  A    between atoms: N7_19  and  N8_20 
REMARK    2  A    between atoms: C7_22  and  N9_24 
REMARK    3  A    between atoms: N9_24  and  N10_26 
ROOT
HETATM    1  N1  UNL     1      31.403  -1.151  42.112  1.00  0.00    -0.373 N 
ATOM      2  H11 UNL     1      31.209  -0.760  41.190  1.00  0.00     0.158 HD
ATOM      3  H12 UNL     1      31.181  -0.646  42.970  1.00  0.00     0.158 HD
HETATM    4  C1  UNL     1      31.960  -2.335  42.200  1.00  0.00     0.187 C 
HETATM    5  N2  UNL     1      32.231  -2.882  43.492  1.00  0.00    -0.064 NA
HETATM    6  N3  UNL     1      32.266  -3.032  41.018  1.00  0.00    -0.314 N 
ATOM      7  H3  UNL     1      31.550  -3.632  40.609  1.00  0.00     0.170 HD
HETATM    8  C2  UNL     1      33.388  -2.951  40.436  1.00  0.00     0.161 A 
HETATM    9  C3  UNL     1      34.388  -2.142  40.963  1.00  0.00     0.124 A 
HETATM   10  N4  UNL     1      34.510  -1.335  42.037  1.00  0.00    -0.346 N 
ATOM     11  H4  UNL     1      33.785  -1.163  42.734  1.00  0.00     0.167 HD
HETATM   12  C4  UNL     1      35.736  -0.795  42.042  1.00  0.00     0.182 A 
HETATM   13  N5  UNL     1      36.377  -1.273  40.963  1.00  0.00    -0.337 N 
ATOM     14  H5  UNL     1      37.335  -1.033  40.709  1.00  0.00     0.168 HD
HETATM   15  C5  UNL     1      35.595  -2.106  40.263  1.00  0.00     0.138 A 
HETATM   16  N6  UNL     1      35.743  -2.835  39.134  1.00  0.00    -0.335 N 
ATOM     17  H6  UNL     1      36.628  -2.803  38.628  1.00  0.00     0.168 HD
HETATM   18  C6  UNL     1      34.741  -3.600  38.670  1.00  0.00     0.210 A 
HETATM   19  N7  UNL     1      33.561  -3.674  39.298  1.00  0.00    -0.231 N 
ENDROOT
BRANCH  19  20
HETATM   20  N8  UNL     1      32.500  -4.452  38.851  1.00  0.00    -0.265 N 
HETATM   21  C7  UNL     1      31.758  -4.167  37.852  1.00  0.00     0.208 C 
HETATM   22 CL1  UNL     1      30.472  -5.275  37.449  1.00  0.00    -0.042 Cl
ATOM     23  H8  UNL     1      32.300  -5.314  39.359  1.00  0.00     0.190 HD
BRANCH  21  24
HETATM   24  N9  UNL     1      31.929  -3.004  37.064  1.00  0.00    -0.281 N 
ATOM     25  H9  UNL     1      32.297  -2.171  37.523  1.00  0.00     0.189 HD
BRANCH  24  26
HETATM   26  N10 UNL     1      31.633  -2.920  35.717  1.00  0.00    -0.343 N 
ATOM     27 2H10 UNL     1      30.965  -2.201  35.440  1.00  0.00     0.176 HD
ATOM     28 1H10 UNL     1      32.035  -3.521  34.998  1.00  0.00     0.176 HD
ENDBRANCH  24  26
ENDBRANCH  21  24
ENDBRANCH  19  20
TORSDOF 3
ENDMDL
MODEL 4
REMARK VINA RESULT: -6.103541574      3.008      4.930
REMARK  3 active torsions:
REMARK  status: ('A' for Active; 'I' for Inactive)
REMARK       I    between atoms: C1_4  and  N3_6 
REMARK    1  A    between atoms: N7_19  and  N8_20 
REMARK    2  A    between atoms: C7_22  and  N9_24 
REMARK    3  A    between atoms: N9_24  and  N10_26 
ROOT
HETATM    1  N1  UNL     1      36.313   2.299  41.149  1.00  0.00    -0.373 N 
ATOM      2  H11 UNL     1      36.194   1.704  41.969  1.00  0.00     0.158 HD
ATOM      3  H12 UNL     1      37.087   2.958  41.067  1.00  0.00     0.158 HD
HETATM    4  C1  UNL     1      35.441   2.221  40.172  1.00  0.00     0.187 C 
HETATM    5  N2  UNL     1      35.608   3.053  39.023  1.00  0.00    -0.064 NA
HETATM    6  N3  UNL     1      34.373   1.313  40.284  1.00  0.00    -0.314 N 
ATOM      7  H3  UNL     1      34.512   0.358  39.954  1.00  0.00     0.170 HD
HETATM    8  C2  UNL     1      33.248   1.624  40.775  1.00  0.00     0.161 A 
HETATM    9  C3  UNL     1      33.022   2.916  41.235  1.00  0.00     0.124 A 
HETATM   10  N4  UNL     1      33.745   4.052  41.311  1.00  0.00    -0.346 N 
ATOM     11  H4  UNL     1      34.711   4.162  41.000  1.00  0.00     0.167 HD
HETATM   12  C4  UNL     1      32.992   5.015  41.861  1.00  0.00     0.182 A 
HETATM   13  N5  UNL     1      31.794   4.467  42.126  1.00  0.00    -0.337 N 
ATOM     14  H5  UNL     1      31.013   4.968  42.550  1.00  0.00     0.168 HD
HETATM   15  C5  UNL     1      31.757   3.179  41.761  1.00  0.00     0.138 A 
HETATM   16  N6  UNL     1      30.827   2.200  41.804  1.00  0.00    -0.335 N 
ATOM     17  H6  UNL     1      29.904   2.399  42.190  1.00  0.00     0.168 HD
HETATM   18  C6  UNL     1      31.099   0.967  41.345  1.00  0.00     0.210 A 
HETATM   19  N7  UNL     1      32.295   0.655  40.829  1.00  0.00    -0.231 N 
ENDROOT
BRANCH  19  20
HETATM   20  N8  UNL     1      32.618  -0.605  40.344  1.00  0.00    -0.265 N 
HETATM   21  C7  UNL     1      32.123  -1.129  39.289  1.00  0.00     0.208 C 
HETATM   22 CL1  UNL     1      32.659  -2.728  38.844  1.00  0.00    -0.042 Cl
ATOM     23  H8  UNL     1      33.301  -1.153  40.868  1.00  0.00     0.190 HD
BRANCH  21  24
HETATM   24  N9  UNL     1      31.170  -0.477  38.473  1.00  0.00    -0.281 N 
ATOM     25  H9  UNL     1      30.715   0.356  38.848  1.00  0.00     0.189 HD
BRANCH  24  26
HETATM   26  N10 UNL     1      30.811  -0.889  37.203  1.00  0.00    -0.343 N 
ATOM     27 2H10 UNL     1      31.364  -1.643  36.795  1.00  0.00     0.176 HD
ATOM     28 1H10 UNL     1      30.044  -0.492  36.661  1.00  0.00     0.176 HD
ENDBRANCH  24  26
ENDBRANCH  21  24
ENDBRANCH  19  20
TORSDOF 3
ENDMDL
MODEL 5
REMARK VINA RESULT: -6.064364030      2.573      5.321
REMARK  3 active torsions:
REMARK  status: ('A' for Active; 'I' for Inactive)
REMARK       I    between atoms: C1_4  and  N3_6 
REMARK    1  A    between atoms: N7_19  and  N8_20 
REMARK    2  A    between atoms: C7_22  and  N9_24 
REMARK    3  A    between atoms: N9_24  and  N10_26 
ROOT
HETATM    1  N1  UNL     1      34.692  -4.904  38.901  1.00  0.00    -0.373 N 
ATOM      2  H11 UNL     1      35.362  -4.135  38.868  1.00  0.00     0.158 HD
ATOM      3  H12 UNL     1      34.827  -5.763  38.367  1.00  0.00     0.158 HD
HETATM    4  C1  UNL     1      33.619  -4.784  39.646  1.00  0.00     0.187 C 
HETATM    5  N2  UNL     1      32.681  -5.860  39.693  1.00  0.00    -0.064 NA
HETATM    6  N3  UNL     1      33.431  -3.600  40.382  1.00  0.00    -0.314 N 
ATOM      7  H3  UNL     1      33.831  -3.543  41.319  1.00  0.00     0.170 HD
HETATM    8  C2  UNL     1      32.789  -2.603  39.938  1.00  0.00     0.161 A 
HETATM    9  C3  UNL     1      32.231  -2.645  38.666  1.00  0.00     0.124 A 
HETATM   10  N4  UNL     1      32.175  -3.549  37.667  1.00  0.00    -0.346 N 
ATOM     11  H4  UNL     1      32.593  -4.479  37.686  1.00  0.00     0.167 HD
HETATM   12  C4  UNL     1      31.482  -3.029  36.644  1.00  0.00     0.182 A 
HETATM   13  N5  UNL     1      31.106  -1.794  37.016  1.00  0.00    -0.337 N 
ATOM     14  H5  UNL     1      30.561  -1.159  36.434  1.00  0.00     0.168 HD
HETATM   15  C5  UNL     1      31.539  -1.506  38.250  1.00  0.00     0.138 A 
HETATM   16  N6  UNL     1      31.442  -0.437  39.072  1.00  0.00    -0.335 N 
ATOM     17  H6  UNL     1      30.935   0.391  38.762  1.00  0.00     0.168 HD
HETATM   18  C6  UNL     1      32.002  -0.452  40.293  1.00  0.00     0.210 A 
HETATM   19  N7  UNL     1      32.677  -1.515  40.747  1.00  0.00    -0.231 N 
ENDROOT
BRANCH  19  20
HETATM   20  N8  UNL     1      33.271  -1.571  42.001  1.00  0.00    -0.265 N 
HETATM   21  C7  UNL     1      34.375  -1.008  42.311  1.00  0.00     0.208 C 
HETATM   22 CL1  UNL     1      34.957  -1.197  43.944  1.00  0.00    -0.042 Cl
ATOM     23  H8  UNL     1      32.790  -2.101  42.728  1.00  0.00     0.190 HD
BRANCH  21  24
HETATM   24  N9  UNL     1      35.139  -0.245  41.397  1.00  0.00    -0.281 N 
ATOM     25  H9  UNL     1      35.064   0.771  41.448  1.00  0.00     0.189 HD
BRANCH  24  26
HETATM   26  N10 UNL     1      35.981  -0.781  40.441  1.00  0.00    -0.343 N 
ATOM     27 2H10 UNL     1      36.355  -1.711  40.631  1.00  0.00     0.176 HD
ATOM     28 1H10 UNL     1      36.246  -0.312  39.575  1.00  0.00     0.176 HD
ENDBRANCH  24  26
ENDBRANCH  21  24
ENDBRANCH  19  20
TORSDOF 3
ENDMDL
