MODEL 1
REMARK VINA RESULT: -6.466041315      0.000      0.000
REMARK  4 active torsions:
REMARK  status: ('A' for Active; 'I' for Inactive)
REMARK    1  A    between atoms: C3_5  and  N2_6 
REMARK    2  A    between atoms: N2_6  and  N3_8 
REMARK    3  A    between atoms: N3_8  and  C4_10 
REMARK    4  A    between atoms: N7_20  and  O2_21 
ROOT
HETATM    1  C1  UNL     1      33.876   1.056  41.550  1.00  0.00     0.182 C 
HETATM    2  N1  UNL     1      33.036   2.248  41.459  1.00  0.00    -0.254 N 
HETATM    3  C2  UNL     1      31.718   2.138  41.236  1.00  0.00     0.150 A 
HETATM    4 CL1  UNL     1      31.044   0.537  41.066  1.00  0.00    -0.060 Cl
HETATM    5  C3  UNL     1      30.936   3.264  41.146  1.00  0.00     0.093 A 
HETATM    6  C6  UNL     1      31.535   4.485  41.287  1.00  0.00     0.112 A 
HETATM    7  C7  UNL     1      32.873   4.587  41.514  1.00  0.00     0.289 A 
HETATM    8  O1  UNL     1      33.481   5.686  41.654  1.00  0.00    -0.264 OA
HETATM    9  N7  UNL     1      33.584   3.450  41.593  1.00  0.00    -0.119 N 
ENDROOT
BRANCH   5  10
HETATM   10  N2  UNL     1      29.537   3.156  40.913  1.00  0.00    -0.295 N 
ATOM     11  H2  UNL     1      28.994   2.562  41.540  1.00  0.00     0.187 HD
BRANCH  10  12
HETATM   12  N3  UNL     1      28.857   3.808  39.883  1.00  0.00    -0.270 N 
ATOM     13  H3  UNL     1      29.088   3.635  38.905  1.00  0.00     0.190 HD
BRANCH  12  14
HETATM   14  C4  UNL     1      27.830   4.723  40.249  1.00  0.00     0.207 A 
HETATM   15  N4  UNL     1      27.777   5.356  41.352  1.00  0.00    -0.345 N 
HETATM   16  C5  UNL     1      26.633   6.194  41.417  1.00  0.00     0.259 A 
ATOM     17  H4  UNL     1      28.469   5.271  42.097  1.00  0.00     0.164 HD
HETATM   18  N5  UNL     1      25.895   5.924  40.218  1.00  0.00    -0.119 NA
HETATM   19  N6  UNL     1      26.718   5.075  39.466  1.00  0.00    -0.273 N 
ATOM     20  H6  UNL     1      26.540   4.765  38.511  1.00  0.00     0.185 HD
ENDBRANCH  12  14
ENDBRANCH  10  12
ENDBRANCH   5  10
BRANCH   9  21
HETATM   21  O2  UNL     1      34.943   3.553  41.828  1.00  0.00    -0.265 OA
ATOM     22  H2  UNL     1      35.296   4.367  42.170  1.00  0.00     0.247 HD
ENDBRANCH   9  21
TORSDOF 4
ENDMDL
MODEL 2
REMARK VINA RESULT: -6.202109623      2.524      3.575
REMARK  4 active torsions:
REMARK  status: ('A' for Active; 'I' for Inactive)
REMARK    1  A    between atoms: C3_5  and  N2_6 
REMARK    2  A    between atoms: N2_6  and  N3_8 
REMARK    3  A    between atoms: N3_8  and  C4_10 
REMARK    4  A    between atoms: N7_20  and  O2_21 
ROOT
HETATM    1  C1  UNL     1      35.207   5.147  40.087  1.00  0.00     0.182 C 
HETATM    2  N1  UNL     1      34.692   3.826  40.441  1.00  0.00    -0.254 N 
HETATM    3  C2  UNL     1      33.640   3.701  41.262  1.00  0.00     0.150 A 
HETATM    4 CL1  UNL     1      32.906   5.157  41.884  1.00  0.00    -0.060 Cl
HETATM    5  C3  UNL     1      33.166   2.455  41.594  1.00  0.00     0.093 A 
HETATM    6  C6  UNL     1      33.794   1.360  41.070  1.00  0.00     0.112 A 
HETATM    7  C7  UNL     1      34.861   1.496  40.237  1.00  0.00     0.289 A 
HETATM    8  O1  UNL     1      35.479   0.521  39.721  1.00  0.00    -0.264 OA
HETATM    9  N7  UNL     1      35.277   2.740  39.949  1.00  0.00    -0.119 N 
ENDROOT
BRANCH   5  10
HETATM   10  N2  UNL     1      32.048   2.315  42.463  1.00  0.00    -0.295 N 
ATOM     11  H2  UNL     1      32.185   2.519  43.453  1.00  0.00     0.187 HD
BRANCH  10  12
HETATM   12  N3  UNL     1      30.775   1.917  42.050  1.00  0.00    -0.270 N 
ATOM     13  H3  UNL     1      30.427   0.978  42.243  1.00  0.00     0.190 HD
BRANCH  12  14
HETATM   14  C4  UNL     1      29.982   2.868  41.349  1.00  0.00     0.207 A 
HETATM   15  N4  UNL     1      28.913   3.395  41.797  1.00  0.00    -0.345 N 
HETATM   16  C5  UNL     1      28.354   4.308  40.865  1.00  0.00     0.259 A 
ATOM     17  H4  UNL     1      28.510   3.188  42.710  1.00  0.00     0.164 HD
HETATM   18  N5  UNL     1      29.177   4.210  39.695  1.00  0.00    -0.119 NA
HETATM   19  N6  UNL     1      30.240   3.376  40.066  1.00  0.00    -0.273 N 
ATOM     20  H6  UNL     1      31.062   3.173  39.498  1.00  0.00     0.185 HD
ENDBRANCH  12  14
ENDBRANCH  10  12
ENDBRANCH   5  10
BRANCH   9  21
HETATM   21  O2  UNL     1      36.358   2.878  39.098  1.00  0.00    -0.265 OA
ATOM     22  H2  UNL     1      37.211   2.563  39.374  1.00  0.00     0.247 HD
ENDBRANCH   9  21
TORSDOF 4
ENDMDL
MODEL 3
REMARK VINA RESULT: -6.190384402      3.039      4.339
REMARK  4 active torsions:
REMARK  status: ('A' for Active; 'I' for Inactive)
REMARK    1  A    between atoms: C3_5  and  N2_6 
REMARK    2  A    between atoms: N2_6  and  N3_8 
REMARK    3  A    between atoms: N3_8  and  C4_10 
REMARK    4  A    between atoms: N7_20  and  O2_21 
ROOT
HETATM    1  C1  UNL     1      38.039   2.975  42.007  1.00  0.00     0.182 C 
HETATM    2  N1  UNL     1      36.940   3.235  41.079  1.00  0.00    -0.254 N 
HETATM    3  C2  UNL     1      35.869   2.429  41.049  1.00  0.00     0.150 A 
HETATM    4 CL1  UNL     1      35.827   1.076  42.149  1.00  0.00    -0.060 Cl
HETATM    5  C3  UNL     1      34.843   2.677  40.169  1.00  0.00     0.093 A 
HETATM    6  C6  UNL     1      34.948   3.755  39.335  1.00  0.00     0.112 A 
HETATM    7  C7  UNL     1      36.038   4.567  39.373  1.00  0.00     0.289 A 
HETATM    8  O1  UNL     1      36.189   5.578  38.629  1.00  0.00    -0.264 OA
HETATM    9  N7  UNL     1      37.008   4.274  40.255  1.00  0.00    -0.119 N 
ENDROOT
BRANCH   5  10
HETATM   10  N2  UNL     1      33.701   1.829  40.133  1.00  0.00    -0.295 N 
ATOM     11  H2  UNL     1      33.655   1.123  39.397  1.00  0.00     0.187 HD
BRANCH  10  12
HETATM   12  N3  UNL     1      32.640   1.899  41.036  1.00  0.00    -0.270 N 
ATOM     13  H3  UNL     1      32.495   1.173  41.738  1.00  0.00     0.190 HD
BRANCH  12  14
HETATM   14  C4  UNL     1      31.767   3.019  40.943  1.00  0.00     0.207 A 
HETATM   15  N4  UNL     1      30.654   3.025  40.326  1.00  0.00    -0.345 N 
HETATM   16  C5  UNL     1      30.016   4.290  40.417  1.00  0.00     0.259 A 
ATOM     17  H4  UNL     1      30.268   2.222  39.829  1.00  0.00     0.164 HD
HETATM   18  N5  UNL     1      30.946   5.137  41.106  1.00  0.00    -0.119 NA
HETATM   19  N6  UNL     1      31.986   4.287  41.505  1.00  0.00    -0.273 N 
ATOM     20  H6  UNL     1      32.770   4.547  42.103  1.00  0.00     0.185 HD
ENDBRANCH  12  14
ENDBRANCH  10  12
ENDBRANCH   5  10
BRANCH   9  21
HETATM   21  O2  UNL     1      38.114   5.103  40.298  1.00  0.00    -0.265 OA
ATOM     22  H2  UNL     1      38.131   5.886  39.760  1.00  0.00     0.247 HD
ENDBRANCH   9  21
TORSDOF 4
ENDMDL
MODEL 4
REMARK VINA RESULT: -6.115827351      4.034      5.478
REMARK  4 active torsions:
REMARK  status: ('A' for Active; 'I' for Inactive)
REMARK    1  A    between atoms: C3_5  and  N2_6 
REMARK    2  A    between atoms: N2_6  and  N3_8 
REMARK    3  A    between atoms: N3_8  and  C4_10 
REMARK    4  A    between atoms: N7_20  and  O2_21 
ROOT
HETATM    1  C1  UNL     1      36.363   3.261  39.856  1.00  0.00     0.182 C 
HETATM    2  N1  UNL     1      34.999   3.290  40.379  1.00  0.00    -0.254 N 
HETATM    3  C2  UNL     1      34.309   2.153  40.547  1.00  0.00     0.150 A 
HETATM    4 CL1  UNL     1      35.090   0.649  40.132  1.00  0.00    -0.060 Cl
HETATM    5  C3  UNL     1      33.025   2.190  41.033  1.00  0.00     0.093 A 
HETATM    6  C6  UNL     1      32.478   3.406  41.335  1.00  0.00     0.112 A 
HETATM    7  C7  UNL     1      33.185   4.554  41.161  1.00  0.00     0.289 A 
HETATM    8  O1  UNL     1      32.734   5.705  41.423  1.00  0.00    -0.264 OA
HETATM    9  N7  UNL     1      34.437   4.454  40.683  1.00  0.00    -0.119 N 
ENDROOT
BRANCH   5  10
HETATM   10  N2  UNL     1      32.287   0.987  41.218  1.00  0.00    -0.295 N 
ATOM     11  H2  UNL     1      32.399   0.491  42.103  1.00  0.00     0.187 HD
BRANCH  10  12
HETATM   12  N3  UNL     1      31.420   0.441  40.270  1.00  0.00    -0.270 N 
ATOM     13  H3  UNL     1      30.542   0.901  40.031  1.00  0.00     0.190 HD
BRANCH  12  14
HETATM   14  C4  UNL     1      31.805  -0.780  39.650  1.00  0.00     0.207 A 
HETATM   15  N4  UNL     1      32.332  -1.769  40.255  1.00  0.00    -0.345 N 
HETATM   16  C5  UNL     1      32.600  -2.841  39.363  1.00  0.00     0.259 A 
ATOM     17  H4  UNL     1      32.535  -1.789  41.254  1.00  0.00     0.164 HD
HETATM   18  N5  UNL     1      32.259  -2.347  38.061  1.00  0.00    -0.119 NA
HETATM   19  N6  UNL     1      31.675  -1.094  38.288  1.00  0.00    -0.273 N 
ATOM     20  H6  UNL     1      31.230  -0.508  37.581  1.00  0.00     0.185 HD
ENDBRANCH  12  14
ENDBRANCH  10  12
ENDBRANCH   5  10
BRANCH   9  21
HETATM   21  O2  UNL     1      35.158   5.621  40.511  1.00  0.00    -0.265 OA
ATOM     22  H2  UNL     1      34.746   6.365  40.087  1.00  0.00     0.247 HD
ENDBRANCH   9  21
TORSDOF 4
ENDMDL
MODEL 5
REMARK VINA RESULT: -6.031211397      3.728      4.999
REMARK  4 active torsions:
REMARK  status: ('A' for Active; 'I' for Inactive)
REMARK    1  A    between atoms: C3_5  and  N2_6 
REMARK    2  A    between atoms: N2_6  and  N3_8 
REMARK    3  A    between atoms: N3_8  and  C4_10 
REMARK    4  A    between atoms: N7_20  and  O2_21 
ROOT
HETATM    1  C1  UNL     1      33.267  -4.193  41.909  1.00  0.00     0.182 C 
HETATM    2  N1  UNL     1      33.215  -2.926  41.183  1.00  0.00    -0.254 N 
HETATM    3  C2  UNL     1      32.156  -2.113  41.305  1.00  0.00     0.150 A 
HETATM    4 CL1  UNL     1      30.856  -2.609  42.357  1.00  0.00    -0.060 Cl
HETATM    5  C3  UNL     1      32.113  -0.927  40.613  1.00  0.00     0.093 A 
HETATM    6  C6  UNL     1      33.168  -0.606  39.806  1.00  0.00     0.112 A 
HETATM    7  C7  UNL     1      34.238  -1.437  39.688  1.00  0.00     0.289 A 
HETATM    8  O1  UNL     1      35.242  -1.193  38.960  1.00  0.00    -0.264 OA
HETATM    9  N7  UNL     1      34.223  -2.582  40.390  1.00  0.00    -0.119 N 
ENDROOT
BRANCH   5  10
HETATM   10  N2  UNL     1      30.995  -0.056  40.740  1.00  0.00    -0.295 N 
ATOM     11  H2  UNL     1      30.214  -0.186  40.096  1.00  0.00     0.187 HD
BRANCH  10  12
HETATM   12  N3  UNL     1      30.894   0.964  41.688  1.00  0.00    -0.270 N 
ATOM     13  H3  UNL     1      31.228   0.833  42.642  1.00  0.00     0.190 HD
BRANCH  12  14
HETATM   14  C4  UNL     1      30.308   2.193  41.274  1.00  0.00     0.207 A 
HETATM   15  N4  UNL     1      29.303   2.744  41.828  1.00  0.00    -0.345 N 
HETATM   16  C5  UNL     1      28.958   3.962  41.186  1.00  0.00     0.259 A 
ATOM     17  H4  UNL     1      28.809   2.359  42.633  1.00  0.00     0.164 HD
HETATM   18  N5  UNL     1      29.838   4.061  40.059  1.00  0.00    -0.119 NA
HETATM   19  N6  UNL     1      30.731   2.991  40.198  1.00  0.00    -0.273 N 
ATOM     20  H6  UNL     1      31.551   2.820  39.616  1.00  0.00     0.185 HD
ENDBRANCH  12  14
ENDBRANCH  10  12
ENDBRANCH   5  10
BRANCH   9  21
HETATM   21  O2  UNL     1      35.313  -3.425  40.274  1.00  0.00    -0.265 OA
ATOM     22  H2  UNL     1      36.024  -3.356  40.901  1.00  0.00     0.247 HD
ENDBRANCH   9  21
TORSDOF 4
ENDMDL
