MODEL 1
REMARK VINA RESULT: -6.761291989      0.000      0.000
REMARK  2 active torsions:
REMARK  status: ('A' for Active; 'I' for Inactive)
REMARK       I    between atoms: C1_2  and  N2_4 
REMARK    1  A    between atoms: N2_4  and  O2_6 
REMARK    2  A    between atoms: O2_6  and  C2_7 
ROOT
HETATM    1  C2  UNL     1      31.821  -0.758  40.160  1.00  0.00     0.314 C 
HETATM    2  C3  UNL     1      33.109  -0.035  39.852  1.00  0.00     0.183 C 
HETATM    3  N3  UNL     1      34.136  -0.901  39.307  1.00  0.00    -0.377 N 
ATOM      4  H3  UNL     1      34.952  -0.508  38.837  1.00  0.00     0.160 HD
HETATM    5  C4  UNL     1      33.983  -2.306  39.442  1.00  0.00     0.149 A 
HETATM    6  C5  UNL     1      32.962  -2.876  40.174  1.00  0.00     0.181 A 
HETATM    7  N4  UNL     1      32.859  -4.230  40.272  1.00  0.00    -0.287 N 
ATOM      8  H4  UNL     1      32.096  -4.629  40.819  1.00  0.00     0.172 HD
HETATM    9  C6  UNL     1      33.733  -5.058  39.669  1.00  0.00     0.329 A 
HETATM   10  O3  UNL     1      33.641  -6.316  39.757  1.00  0.00    -0.247 OA
HETATM   11  N5  UNL     1      34.728  -4.489  38.956  1.00  0.00    -0.273 N 
ATOM     12  H5  UNL     1      35.402  -5.098  38.491  1.00  0.00     0.173 HD
HETATM   13  C7  UNL     1      34.872  -3.160  38.829  1.00  0.00     0.280 A 
HETATM   14  O4  UNL     1      35.809  -2.629  38.156  1.00  0.00    -0.265 OA
HETATM   15  O5  UNL     1      32.078  -2.019  40.785  1.00  0.00    -0.298 OA
ENDROOT
BRANCH   1  16
HETATM   16  O2  UNL     1      31.069   0.040  40.993  1.00  0.00    -0.242 OA
BRANCH  16  17
HETATM   17  N2  UNL     1      31.040   1.340  40.692  1.00  0.00    -0.216 N 
HETATM   18  C1  UNL     1      30.308   2.358  41.336  1.00  0.00     0.352 C 
HETATM   19  N1  UNL     1      30.377   3.730  40.893  1.00  0.00    -0.038 NA
HETATM   20  O1  UNL     1      29.551   2.178  42.320  1.00  0.00    -0.249 OA
ATOM     21  H2  UNL     1      31.617   1.631  39.902  1.00  0.00     0.199 HD
ENDBRANCH  16  17
ENDBRANCH   1  16
TORSDOF 2
ENDMDL
MODEL 2
REMARK VINA RESULT: -6.570777227      2.302      7.086
REMARK  2 active torsions:
REMARK  status: ('A' for Active; 'I' for Inactive)
REMARK       I    between atoms: C1_2  and  N2_4 
REMARK    1  A    between atoms: N2_4  and  O2_6 
REMARK    2  A    between atoms: O2_6  and  C2_7 
ROOT
HETATM    1  C2  UNL     1      32.435  -0.030  40.775  1.00  0.00     0.314 C 
HETATM    2  C3  UNL     1      30.964  -0.152  41.087  1.00  0.00     0.183 C 
HETATM    3  N3  UNL     1      30.287   1.127  41.165  1.00  0.00    -0.377 N 
ATOM      4  H3  UNL     1      29.269   1.180  41.127  1.00  0.00     0.160 HD
HETATM    5  C4  UNL     1      31.070   2.304  41.297  1.00  0.00     0.149 A 
HETATM    6  C5  UNL     1      32.438   2.272  41.475  1.00  0.00     0.181 A 
HETATM    7  N4  UNL     1      33.143   3.429  41.595  1.00  0.00    -0.287 N 
ATOM      8  H4  UNL     1      34.154   3.381  41.726  1.00  0.00     0.172 HD
HETATM    9  C6  UNL     1      32.549   4.636  41.546  1.00  0.00     0.329 A 
HETATM   10  O3  UNL     1      33.201   5.714  41.658  1.00  0.00    -0.247 OA
HETATM   11  N5  UNL     1      31.210   4.656  41.372  1.00  0.00    -0.273 N 
ATOM     12  H5  UNL     1      30.738   5.560  41.333  1.00  0.00     0.173 HD
HETATM   13  C7  UNL     1      30.471   3.542  41.248  1.00  0.00     0.280 A 
HETATM   14  O4  UNL     1      29.212   3.566  41.083  1.00  0.00    -0.265 OA
HETATM   15  O5  UNL     1      33.032   1.033  41.523  1.00  0.00    -0.298 OA
ENDROOT
BRANCH   1  16
HETATM   16  O2  UNL     1      33.041  -1.227  41.085  1.00  0.00    -0.242 OA
BRANCH  16  17
HETATM   17  N2  UNL     1      33.670  -1.844  40.083  1.00  0.00    -0.216 N 
HETATM   18  C1  UNL     1      34.914  -1.512  39.511  1.00  0.00     0.352 C 
HETATM   19  N1  UNL     1      35.471  -2.277  38.421  1.00  0.00    -0.038 NA
HETATM   20  O1  UNL     1      35.635  -0.552  39.878  1.00  0.00    -0.249 OA
ATOM     21  H2  UNL     1      33.192  -2.652  39.682  1.00  0.00     0.199 HD
ENDBRANCH  16  17
ENDBRANCH   1  16
TORSDOF 2
ENDMDL
MODEL 3
REMARK VINA RESULT: -6.548529330      2.566      6.942
REMARK  2 active torsions:
REMARK  status: ('A' for Active; 'I' for Inactive)
REMARK       I    between atoms: C1_2  and  N2_4 
REMARK    1  A    between atoms: N2_4  and  O2_6 
REMARK    2  A    between atoms: O2_6  and  C2_7 
ROOT
HETATM    1  C2  UNL     1      32.734   0.649  42.090  1.00  0.00     0.314 C 
HETATM    2  C3  UNL     1      33.968   1.517  42.097  1.00  0.00     0.183 C 
HETATM    3  N3  UNL     1      33.681   2.924  41.906  1.00  0.00    -0.377 N 
ATOM      4  H3  UNL     1      34.379   3.633  42.129  1.00  0.00     0.160 HD
HETATM    5  C4  UNL     1      32.406   3.296  41.402  1.00  0.00     0.149 A 
HETATM    6  C5  UNL     1      31.477   2.370  40.973  1.00  0.00     0.181 A 
HETATM    7  N4  UNL     1      30.269   2.777  40.498  1.00  0.00    -0.287 N 
ATOM      8  H4  UNL     1      29.598   2.075  40.187  1.00  0.00     0.172 HD
HETATM    9  C6  UNL     1      29.931   4.079  40.427  1.00  0.00     0.329 A 
HETATM   10  O3  UNL     1      28.810   4.462  39.987  1.00  0.00    -0.247 OA
HETATM   11  N5  UNL     1      30.848   4.976  40.849  1.00  0.00    -0.273 N 
ATOM     12  H5  UNL     1      30.614   5.968  40.804  1.00  0.00     0.173 HD
HETATM   13  C7  UNL     1      32.053   4.624  41.326  1.00  0.00     0.280 A 
HETATM   14  O4  UNL     1      32.911   5.471  41.723  1.00  0.00    -0.265 OA
HETATM   15  O5  UNL     1      31.835   1.045  41.050  1.00  0.00    -0.298 OA
ENDROOT
BRANCH   1  16
HETATM   16  O2  UNL     1      33.128  -0.657  41.905  1.00  0.00    -0.242 OA
BRANCH  16  17
HETATM   17  N2  UNL     1      34.164  -0.847  41.086  1.00  0.00    -0.216 N 
HETATM   18  C1  UNL     1      34.134  -1.243  39.734  1.00  0.00     0.352 C 
HETATM   19  N1  UNL     1      35.347  -1.410  38.970  1.00  0.00    -0.038 NA
HETATM   20  O1  UNL     1      33.087  -1.480  39.083  1.00  0.00    -0.249 OA
ATOM     21  H2  UNL     1      35.089  -0.688  41.487  1.00  0.00     0.199 HD
ENDBRANCH  16  17
ENDBRANCH   1  16
TORSDOF 2
ENDMDL
MODEL 4
REMARK VINA RESULT: -6.461413618      3.897      7.283
REMARK  2 active torsions:
REMARK  status: ('A' for Active; 'I' for Inactive)
REMARK       I    between atoms: C1_2  and  N2_4 
REMARK    1  A    between atoms: N2_4  and  O2_6 
REMARK    2  A    between atoms: O2_6  and  C2_7 
ROOT
HETATM    1  C2  UNL     1      33.381   0.839  40.463  1.00  0.00     0.314 C 
HETATM    2  C3  UNL     1      32.952   1.351  41.815  1.00  0.00     0.183 C 
HETATM    3  N3  UNL     1      33.150   2.778  41.977  1.00  0.00    -0.377 N 
ATOM      4  H3  UNL     1      32.688   3.285  42.731  1.00  0.00     0.160 HD
HETATM    5  C4  UNL     1      34.001   3.454  41.063  1.00  0.00     0.149 A 
HETATM    6  C5  UNL     1      34.741   2.791  40.105  1.00  0.00     0.181 A 
HETATM    7  N4  UNL     1      35.541   3.486  39.252  1.00  0.00    -0.287 N 
ATOM      8  H4  UNL     1      36.079   2.974  38.551  1.00  0.00     0.172 HD
HETATM    9  C6  UNL     1      35.645   4.827  39.302  1.00  0.00     0.329 A 
HETATM   10  O3  UNL     1      36.388   5.477  38.512  1.00  0.00    -0.247 OA
HETATM   11  N5  UNL     1      34.918   5.466  40.244  1.00  0.00    -0.273 N 
ATOM     12  H5  UNL     1      34.982   6.482  40.301  1.00  0.00     0.173 HD
HETATM   13  C7  UNL     1      34.113   4.825  41.108  1.00  0.00     0.280 A 
HETATM   14  O4  UNL     1      33.430   5.430  41.991  1.00  0.00    -0.265 OA
HETATM   15  O5  UNL     1      34.625   1.422  40.064  1.00  0.00    -0.298 OA
ENDROOT
BRANCH   1  16
HETATM   16  O2  UNL     1      33.503  -0.531  40.541  1.00  0.00    -0.242 OA
BRANCH  16  17
HETATM   17  N2  UNL     1      34.015  -1.137  39.468  1.00  0.00    -0.216 N 
HETATM   18  C1  UNL     1      35.186  -1.919  39.395  1.00  0.00     0.352 C 
HETATM   19  N1  UNL     1      35.619  -2.514  38.153  1.00  0.00    -0.038 NA
HETATM   20  O1  UNL     1      35.941  -2.165  40.367  1.00  0.00    -0.249 OA
ATOM     21  H2  UNL     1      33.498  -1.020  38.596  1.00  0.00     0.199 HD
ENDBRANCH  16  17
ENDBRANCH   1  16
TORSDOF 2
ENDMDL
MODEL 5
REMARK VINA RESULT: -6.376028404      2.833      7.174
REMARK  2 active torsions:
REMARK  status: ('A' for Active; 'I' for Inactive)
REMARK       I    between atoms: C1_2  and  N2_4 
REMARK    1  A    between atoms: N2_4  and  O2_6 
REMARK    2  A    between atoms: O2_6  and  C2_7 
ROOT
HETATM    1  C2  UNL     1      32.449   0.188  41.914  1.00  0.00     0.314 C 
HETATM    2  C3  UNL     1      32.016   0.337  43.352  1.00  0.00     0.183 C 
HETATM    3  N3  UNL     1      30.838   1.166  43.513  1.00  0.00    -0.377 N 
ATOM      4  H3  UNL     1      30.307   1.151  44.383  1.00  0.00     0.160 HD
HETATM    5  C4  UNL     1      30.441   2.000  42.434  1.00  0.00     0.149 A 
HETATM    6  C5  UNL     1      31.195   2.144  41.288  1.00  0.00     0.181 A 
HETATM    7  N4  UNL     1      30.769   2.955  40.282  1.00  0.00    -0.287 N 
ATOM      8  H4  UNL     1      31.344   3.046  39.443  1.00  0.00     0.172 HD
HETATM    9  C6  UNL     1      29.613   3.641  40.358  1.00  0.00     0.329 A 
HETATM   10  O3  UNL     1      29.213   4.395  39.425  1.00  0.00    -0.247 OA
HETATM   11  N5  UNL     1      28.883   3.492  41.484  1.00  0.00    -0.273 N 
ATOM     12  H5  UNL     1      28.003   4.003  41.564  1.00  0.00     0.173 HD
HETATM   13  C7  UNL     1      29.260   2.704  42.504  1.00  0.00     0.280 A 
HETATM   14  O4  UNL     1      28.570   2.567  43.560  1.00  0.00    -0.265 OA
HETATM   15  O5  UNL     1      32.374   1.439  41.224  1.00  0.00    -0.298 OA
ENDROOT
BRANCH   1  16
HETATM   16  O2  UNL     1      33.743  -0.284  41.901  1.00  0.00    -0.242 OA
BRANCH  16  17
HETATM   17  N2  UNL     1      34.060  -1.098  40.893  1.00  0.00    -0.216 N 
HETATM   18  C1  UNL     1      35.029  -0.893  39.891  1.00  0.00     0.352 C 
HETATM   19  N1  UNL     1      35.262  -1.871  38.855  1.00  0.00    -0.038 NA
HETATM   20  O1  UNL     1      35.759   0.125  39.801  1.00  0.00    -0.249 OA
ATOM     21  H2  UNL     1      33.539  -1.974  40.842  1.00  0.00     0.199 HD
ENDBRANCH  16  17
ENDBRANCH   1  16
TORSDOF 2
ENDMDL
