MODEL 1
REMARK VINA RESULT: -7.110678787      0.000      0.000
REMARK  8 active torsions:
REMARK  status: ('A' for Active; 'I' for Inactive)
REMARK    1  A    between atoms: C2_2  and  N1_3 
REMARK    2  A    between atoms: N1_3  and  C3_4 
REMARK       I    between atoms: N1_3  and  C11_15 
REMARK    3  A    between atoms: C3_4  and  C4_5 
REMARK    4  A    between atoms: C4_5  and  N2_6 
REMARK    5  A    between atoms: C4_5  and  C7_11 
REMARK       I    between atoms: N2_6  and  C5_8 
REMARK    6  A    between atoms: C11_15  and  C12_17 
REMARK    7  A    between atoms: N3_22  and  S1_23 
REMARK    8  A    between atoms: S1_23  and  C17_26 
ROOT
HETATM    1  C12 UNL     1       6.352  37.441  34.701  1.00  0.00     0.097 C 
HETATM    2  C13 UNL     1       6.787  37.836  33.333  1.00  0.00     0.018 C 
HETATM    3  C14 UNL     1       6.584  39.261  32.959  1.00  0.00     0.026 C 
HETATM    4  C15 UNL     1       5.426  39.953  33.591  1.00  0.00     0.092 C 
HETATM    5  C16 UNL     1       6.030  41.053  34.488  1.00  0.00     0.033 C 
HETATM    6  N3  UNL     1       4.610  39.159  34.410  1.00  0.00    -0.301 N 
HETATM    7  C26 UNL     1       5.315  38.311  35.334  1.00  0.00     0.149 C 
ENDROOT
BRANCH   1   8
HETATM    8  C11 UNL     1       7.467  37.172  35.644  1.00  0.00     0.225 C 
HETATM    9  N1  UNL     1       8.071  35.888  35.841  1.00  0.00    -0.350 N 
HETATM   10  O2  UNL     1       7.870  38.201  36.289  1.00  0.00    -0.273 OA
BRANCH   9  11
HETATM   11  C2  UNL     1       7.584  34.751  35.131  1.00  0.00     0.121 C 
HETATM   12  C1  UNL     1       7.624  33.445  35.867  1.00  0.00     0.026 C 
ENDBRANCH   9  11
BRANCH   9  13
HETATM   13  C3  UNL     1       9.199  35.829  36.704  1.00  0.00     0.151 C 
BRANCH  13  14
HETATM   14  C4  UNL     1      10.545  36.105  36.158  1.00  0.00     0.109 C 
BRANCH  14  15
HETATM   15  N2  UNL     1      10.602  37.165  35.185  1.00  0.00    -0.354 N 
HETATM   16  C5  UNL     1      10.587  36.952  33.789  1.00  0.00     0.214 C 
HETATM   17  C6  UNL     1      10.650  38.094  32.857  1.00  0.00     0.117 C 
HETATM   18  O1  UNL     1      10.518  35.793  33.337  1.00  0.00    -0.274 OA
ATOM     19  H2  UNL     1      10.657  38.125  35.524  1.00  0.00     0.162 HD
ENDBRANCH  14  15
BRANCH  14  20
HETATM   20  C7  UNL     1      11.511  36.488  37.292  1.00  0.00    -0.029 C 
HETATM   21  C8  UNL     1      12.710  35.585  37.281  1.00  0.00     0.016 C 
HETATM   22  C9  UNL     1      11.917  37.942  37.169  1.00  0.00     0.016 C 
HETATM   23  C10 UNL     1      10.772  36.337  38.593  1.00  0.00     0.016 C 
ENDBRANCH  14  20
ENDBRANCH  13  14
ENDBRANCH   9  13
ENDBRANCH   1   8
BRANCH   6  24
HETATM   24  S1  UNL     1       3.176  38.528  33.809  1.00  0.00     0.262 S 
HETATM   25  O3  UNL     1       2.798  37.272  34.535  1.00  0.00    -0.200 OA
HETATM   26  O4  UNL     1       2.063  39.524  34.113  1.00  0.00    -0.200 OA
BRANCH  24  27
HETATM   27  C17 UNL     1       3.241  38.315  32.096  1.00  0.00     0.091 A 
HETATM   28  C18 UNL     1       3.618  37.081  31.605  1.00  0.00    -0.038 A 
HETATM   29  C19 UNL     1       3.939  35.929  32.515  1.00  0.00     0.050 C 
HETATM   30  C20 UNL     1       3.702  36.893  30.247  1.00  0.00     0.015 A 
HETATM   31  C21 UNL     1       3.423  37.900  29.349  1.00  0.00    -0.061 A 
HETATM   32  C22 UNL     1       3.515  37.692  27.888  1.00  0.00     0.048 C 
HETATM   33  C23 UNL     1       3.052  39.118  29.868  1.00  0.00     0.015 A 
HETATM   34  C24 UNL     1       2.952  39.357  31.248  1.00  0.00    -0.038 A 
HETATM   35  C25 UNL     1       2.583  40.702  31.753  1.00  0.00     0.050 C 
ENDBRANCH  24  27
ENDBRANCH   6  24
TORSDOF 8
ENDMDL
MODEL 2
REMARK VINA RESULT: -6.834257242      5.608      8.660
REMARK  8 active torsions:
REMARK  status: ('A' for Active; 'I' for Inactive)
REMARK    1  A    between atoms: C2_2  and  N1_3 
REMARK    2  A    between atoms: N1_3  and  C3_4 
REMARK       I    between atoms: N1_3  and  C11_15 
REMARK    3  A    between atoms: C3_4  and  C4_5 
REMARK    4  A    between atoms: C4_5  and  N2_6 
REMARK    5  A    between atoms: C4_5  and  C7_11 
REMARK       I    between atoms: N2_6  and  C5_8 
REMARK    6  A    between atoms: C11_15  and  C12_17 
REMARK    7  A    between atoms: N3_22  and  S1_23 
REMARK    8  A    between atoms: S1_23  and  C17_26 
ROOT
HETATM    1  C12 UNL     1       3.671  35.225  36.033  1.00  0.00     0.097 C 
HETATM    2  C13 UNL     1       4.890  34.692  36.704  1.00  0.00     0.018 C 
HETATM    3  C14 UNL     1       4.809  33.298  37.215  1.00  0.00     0.026 C 
HETATM    4  C15 UNL     1       3.464  32.831  37.654  1.00  0.00     0.092 C 
HETATM    5  C16 UNL     1       3.071  31.701  36.679  1.00  0.00     0.033 C 
HETATM    6  N3  UNL     1       2.438  33.786  37.607  1.00  0.00    -0.301 N 
HETATM    7  C26 UNL     1       2.383  34.563  36.399  1.00  0.00     0.149 C 
ENDROOT
BRANCH   1   8
HETATM    8  C11 UNL     1       3.797  35.368  34.560  1.00  0.00     0.225 C 
HETATM    9  N1  UNL     1       4.123  36.591  33.889  1.00  0.00    -0.350 N 
HETATM   10  O2  UNL     1       3.590  34.287  33.908  1.00  0.00    -0.273 OA
BRANCH   9  11
HETATM   11  C2  UNL     1       4.319  37.789  34.638  1.00  0.00     0.121 C 
HETATM   12  C1  UNL     1       3.093  38.610  34.905  1.00  0.00     0.026 C 
ENDBRANCH   9  11
BRANCH   9  13
HETATM   13  C3  UNL     1       4.307  36.527  32.481  1.00  0.00     0.151 C 
BRANCH  13  14
HETATM   14  C4  UNL     1       4.463  37.781  31.712  1.00  0.00     0.109 C 
BRANCH  14  15
HETATM   15  N2  UNL     1       5.675  37.876  30.943  1.00  0.00    -0.354 N 
HETATM   16  C5  UNL     1       6.729  38.767  31.243  1.00  0.00     0.214 C 
HETATM   17  C6  UNL     1       7.941  38.804  30.401  1.00  0.00     0.117 C 
HETATM   18  O1  UNL     1       6.640  39.529  32.225  1.00  0.00    -0.274 OA
ATOM     19  H2  UNL     1       5.780  37.265  30.133  1.00  0.00     0.162 HD
ENDBRANCH  14  15
BRANCH  14  20
HETATM   20  C7  UNL     1       3.294  37.950  30.728  1.00  0.00    -0.029 C 
HETATM   21  C8  UNL     1       2.035  37.380  31.313  1.00  0.00     0.016 C 
HETATM   22  C9  UNL     1       3.119  39.410  30.365  1.00  0.00     0.016 C 
HETATM   23  C10 UNL     1       3.649  37.212  29.465  1.00  0.00     0.016 C 
ENDBRANCH  14  20
ENDBRANCH  13  14
ENDBRANCH   9  13
ENDBRANCH   1   8
BRANCH   6  24
HETATM   24  S1  UNL     1       1.984  34.599  39.004  1.00  0.00     0.262 S 
HETATM   25  O3  UNL     1       3.123  34.669  39.976  1.00  0.00    -0.200 OA
HETATM   26  O4  UNL     1       1.684  36.045  38.625  1.00  0.00    -0.200 OA
BRANCH  24  27
HETATM   27  C17 UNL     1       0.553  33.927  39.699  1.00  0.00     0.091 A 
HETATM   28  C18 UNL     1       0.693  32.928  40.641  1.00  0.00    -0.038 A 
HETATM   29  C19 UNL     1       2.042  32.441  41.089  1.00  0.00     0.050 C 
HETATM   30  C20 UNL     1      -0.430  32.359  41.190  1.00  0.00     0.015 A 
HETATM   31  C21 UNL     1      -1.702  32.750  40.831  1.00  0.00    -0.061 A 
HETATM   32  C22 UNL     1      -2.907  32.135  41.426  1.00  0.00     0.048 C 
HETATM   33  C23 UNL     1      -1.808  33.747  39.890  1.00  0.00     0.015 A 
HETATM   34  C24 UNL     1      -0.690  34.357  39.300  1.00  0.00    -0.038 A 
HETATM   35  C25 UNL     1      -0.863  35.401  38.262  1.00  0.00     0.050 C 
ENDBRANCH  24  27
ENDBRANCH   6  24
TORSDOF 8
ENDMDL
MODEL 3
REMARK VINA RESULT: -6.820216641      3.561      9.099
REMARK  8 active torsions:
REMARK  status: ('A' for Active; 'I' for Inactive)
REMARK    1  A    between atoms: C2_2  and  N1_3 
REMARK    2  A    between atoms: N1_3  and  C3_4 
REMARK       I    between atoms: N1_3  and  C11_15 
REMARK    3  A    between atoms: C3_4  and  C4_5 
REMARK    4  A    between atoms: C4_5  and  N2_6 
REMARK    5  A    between atoms: C4_5  and  C7_11 
REMARK       I    between atoms: N2_6  and  C5_8 
REMARK    6  A    between atoms: C11_15  and  C12_17 
REMARK    7  A    between atoms: N3_22  and  S1_23 
REMARK    8  A    between atoms: S1_23  and  C17_26 
ROOT
HETATM    1  C12 UNL     1      10.964  37.621  36.774  1.00  0.00     0.097 C 
HETATM    2  C13 UNL     1       9.864  37.534  37.775  1.00  0.00     0.018 C 
HETATM    3  C14 UNL     1       9.617  38.749  38.596  1.00  0.00     0.026 C 
HETATM    4  C15 UNL     1      10.800  39.611  38.875  1.00  0.00     0.092 C 
HETATM    5  C16 UNL     1      10.525  40.950  38.160  1.00  0.00     0.033 C 
HETATM    6  N3  UNL     1      12.031  39.137  38.397  1.00  0.00    -0.301 N 
HETATM    7  C26 UNL     1      12.012  38.651  37.044  1.00  0.00     0.149 C 
ENDROOT
BRANCH   1   8
HETATM    8  C11 UNL     1      10.503  37.688  35.364  1.00  0.00     0.225 C 
HETATM    9  N1  UNL     1      10.122  36.550  34.580  1.00  0.00    -0.350 N 
HETATM   10  O2  UNL     1      10.464  38.871  34.879  1.00  0.00    -0.273 OA
BRANCH   9  11
HETATM   11  C2  UNL     1      10.204  35.239  35.135  1.00  0.00     0.121 C 
HETATM   12  C1  UNL     1      11.524  34.542  34.996  1.00  0.00     0.026 C 
ENDBRANCH   9  11
BRANCH   9  13
HETATM   13  C3  UNL     1       9.605  36.804  33.281  1.00  0.00     0.151 C 
BRANCH  13  14
HETATM   14  C4  UNL     1       8.195  37.225  33.132  1.00  0.00     0.109 C 
BRANCH  14  15
HETATM   15  N2  UNL     1       7.543  37.616  34.354  1.00  0.00    -0.354 N 
HETATM   16  C5  UNL     1       6.698  36.766  35.101  1.00  0.00     0.214 C 
HETATM   17  C6  UNL     1       6.065  37.244  36.346  1.00  0.00     0.117 C 
HETATM   18  O1  UNL     1       6.482  35.602  34.710  1.00  0.00    -0.274 OA
ATOM     19  H2  UNL     1       7.701  38.562  34.701  1.00  0.00     0.162 HD
ENDBRANCH  14  15
BRANCH  14  20
HETATM   20  C7  UNL     1       8.096  38.421  32.170  1.00  0.00    -0.029 C 
HETATM   21  C8  UNL     1       9.411  38.645  31.481  1.00  0.00     0.016 C 
HETATM   22  C9  UNL     1       6.982  38.199  31.168  1.00  0.00     0.016 C 
HETATM   23  C10 UNL     1       7.734  39.634  32.984  1.00  0.00     0.016 C 
ENDBRANCH  14  20
ENDBRANCH  13  14
ENDBRANCH   9  13
ENDBRANCH   1   8
BRANCH   6  24
HETATM   24  S1  UNL     1      13.081  38.336  39.432  1.00  0.00     0.262 S 
HETATM   25  O3  UNL     1      14.212  37.713  38.670  1.00  0.00    -0.200 OA
HETATM   26  O4  UNL     1      13.728  39.378  40.339  1.00  0.00    -0.200 OA
BRANCH  24  27
HETATM   27  C17 UNL     1      12.249  37.205  40.437  1.00  0.00     0.091 A 
HETATM   28  C18 UNL     1      12.206  35.885  40.036  1.00  0.00    -0.038 A 
HETATM   29  C19 UNL     1      12.881  35.414  38.779  1.00  0.00     0.050 C 
HETATM   30  C20 UNL     1      11.529  34.970  40.805  1.00  0.00     0.015 A 
HETATM   31  C21 UNL     1      10.885  35.323  41.971  1.00  0.00    -0.061 A 
HETATM   32  C22 UNL     1      10.158  34.334  42.794  1.00  0.00     0.048 C 
HETATM   33  C23 UNL     1      10.946  36.646  42.343  1.00  0.00     0.015 A 
HETATM   34  C24 UNL     1      11.625  37.617  41.590  1.00  0.00    -0.038 A 
HETATM   35  C25 UNL     1      11.626  39.036  42.020  1.00  0.00     0.050 C 
ENDBRANCH  24  27
ENDBRANCH   6  24
TORSDOF 8
ENDMDL
MODEL 4
REMARK VINA RESULT: -6.732089583      2.611      8.459
REMARK  8 active torsions:
REMARK  status: ('A' for Active; 'I' for Inactive)
REMARK    1  A    between atoms: C2_2  and  N1_3 
REMARK    2  A    between atoms: N1_3  and  C3_4 
REMARK       I    between atoms: N1_3  and  C11_15 
REMARK    3  A    between atoms: C3_4  and  C4_5 
REMARK    4  A    between atoms: C4_5  and  N2_6 
REMARK    5  A    between atoms: C4_5  and  C7_11 
REMARK       I    between atoms: N2_6  and  C5_8 
REMARK    6  A    between atoms: C11_15  and  C12_17 
REMARK    7  A    between atoms: N3_22  and  S1_23 
REMARK    8  A    between atoms: S1_23  and  C17_26 
ROOT
HETATM    1  C12 UNL     1       6.941  37.645  35.138  1.00  0.00     0.097 C 
HETATM    2  C13 UNL     1       6.691  38.211  36.494  1.00  0.00     0.018 C 
HETATM    3  C14 UNL     1       7.829  38.920  37.136  1.00  0.00     0.026 C 
HETATM    4  C15 UNL     1       9.194  38.441  36.779  1.00  0.00     0.092 C 
HETATM    5  C16 UNL     1       9.867  39.607  36.025  1.00  0.00     0.033 C 
HETATM    6  N3  UNL     1       9.250  37.322  35.935  1.00  0.00    -0.301 N 
HETATM    7  C26 UNL     1       8.370  37.372  34.799  1.00  0.00     0.149 C 
ENDROOT
BRANCH   1   8
HETATM    8  C11 UNL     1       6.263  38.375  34.037  1.00  0.00     0.225 C 
HETATM    9  N1  UNL     1       5.242  37.816  33.201  1.00  0.00    -0.350 N 
HETATM   10  O2  UNL     1       6.663  39.580  33.880  1.00  0.00    -0.273 OA
BRANCH   9  11
HETATM   11  C2  UNL     1       4.836  36.461  33.377  1.00  0.00     0.121 C 
HETATM   12  C1  UNL     1       3.418  36.141  33.006  1.00  0.00     0.026 C 
ENDBRANCH   9  11
BRANCH   9  13
HETATM   13  C3  UNL     1       4.625  38.687  32.264  1.00  0.00     0.151 C 
BRANCH  13  14
HETATM   14  C4  UNL     1       5.233  38.862  30.927  1.00  0.00     0.109 C 
BRANCH  14  15
HETATM   15  N2  UNL     1       6.398  38.054  30.678  1.00  0.00    -0.354 N 
HETATM   16  C5  UNL     1       7.711  38.570  30.608  1.00  0.00     0.214 C 
HETATM   17  C6  UNL     1       8.854  37.674  30.347  1.00  0.00     0.117 C 
HETATM   18  O1  UNL     1       7.910  39.790  30.768  1.00  0.00    -0.274 OA
ATOM     19  H2  UNL     1       6.268  37.052  30.544  1.00  0.00     0.162 HD
ENDBRANCH  14  15
BRANCH  14  20
HETATM   20  C7  UNL     1       4.210  38.520  29.829  1.00  0.00    -0.029 C 
HETATM   21  C8  UNL     1       2.819  38.827  30.302  1.00  0.00     0.016 C 
HETATM   22  C9  UNL     1       4.536  39.272  28.555  1.00  0.00     0.016 C 
HETATM   23  C10 UNL     1       4.333  37.052  29.529  1.00  0.00     0.016 C 
ENDBRANCH  14  20
ENDBRANCH  13  14
ENDBRANCH   9  13
ENDBRANCH   1   8
BRANCH   6  24
HETATM   24  S1  UNL     1       9.501  35.794  36.582  1.00  0.00     0.262 S 
HETATM   25  O3  UNL     1       8.253  34.966  36.498  1.00  0.00    -0.200 OA
HETATM   26  O4  UNL     1      10.523  35.078  35.706  1.00  0.00    -0.200 OA
BRANCH  24  27
HETATM   27  C17 UNL     1      10.142  35.876  38.183  1.00  0.00     0.091 A 
HETATM   28  C18 UNL     1      11.511  35.968  38.334  1.00  0.00    -0.038 A 
HETATM   29  C19 UNL     1      12.438  36.028  37.153  1.00  0.00     0.050 C 
HETATM   30  C20 UNL     1      12.048  36.009  39.598  1.00  0.00     0.015 A 
HETATM   31  C21 UNL     1      11.264  35.959  40.730  1.00  0.00    -0.061 A 
HETATM   32  C22 UNL     1      11.847  36.004  42.088  1.00  0.00     0.048 C 
HETATM   33  C23 UNL     1       9.904  35.866  40.547  1.00  0.00     0.015 A 
HETATM   34  C24 UNL     1       9.310  35.821  39.276  1.00  0.00    -0.038 A 
HETATM   35  C25 UNL     1       7.840  35.682  39.138  1.00  0.00     0.050 C 
ENDBRANCH  24  27
ENDBRANCH   6  24
TORSDOF 8
ENDMDL
MODEL 5
REMARK VINA RESULT: -6.728852449      2.278      8.744
REMARK  8 active torsions:
REMARK  status: ('A' for Active; 'I' for Inactive)
REMARK    1  A    between atoms: C2_2  and  N1_3 
REMARK    2  A    between atoms: N1_3  and  C3_4 
REMARK       I    between atoms: N1_3  and  C11_15 
REMARK    3  A    between atoms: C3_4  and  C4_5 
REMARK    4  A    between atoms: C4_5  and  N2_6 
REMARK    5  A    between atoms: C4_5  and  C7_11 
REMARK       I    between atoms: N2_6  and  C5_8 
REMARK    6  A    between atoms: C11_15  and  C12_17 
REMARK    7  A    between atoms: N3_22  and  S1_23 
REMARK    8  A    between atoms: S1_23  and  C17_26 
ROOT
HETATM    1  C12 UNL     1       7.229  38.354  32.305  1.00  0.00     0.097 C 
HETATM    2  C13 UNL     1       8.338  39.269  31.914  1.00  0.00     0.018 C 
HETATM    3  C14 UNL     1       9.707  38.687  31.912  1.00  0.00     0.026 C 
HETATM    4  C15 UNL     1       9.964  37.597  32.893  1.00  0.00     0.092 C 
HETATM    5  C16 UNL     1      10.234  36.330  32.055  1.00  0.00     0.033 C 
HETATM    6  N3  UNL     1       8.907  37.293  33.764  1.00  0.00    -0.301 N 
HETATM    7  C26 UNL     1       7.617  37.177  33.139  1.00  0.00     0.149 C 
ENDROOT
BRANCH   1   8
HETATM    8  C11 UNL     1       6.350  37.944  31.181  1.00  0.00     0.225 C 
HETATM    9  N1  UNL     1       5.015  37.448  31.335  1.00  0.00    -0.350 N 
HETATM   10  O2  UNL     1       6.882  38.071  30.024  1.00  0.00    -0.273 OA
BRANCH   9  11
HETATM   11  C2  UNL     1       4.456  37.287  32.637  1.00  0.00     0.121 C 
HETATM   12  C1  UNL     1       3.617  36.063  32.851  1.00  0.00     0.026 C 
ENDBRANCH   9  11
BRANCH   9  13
HETATM   13  C3  UNL     1       4.276  37.201  30.146  1.00  0.00     0.151 C 
BRANCH  13  14
HETATM   14  C4  UNL     1       3.225  38.158  29.734  1.00  0.00     0.109 C 
BRANCH  14  15
HETATM   15  N2  UNL     1       3.252  39.423  30.418  1.00  0.00    -0.354 N 
HETATM   16  C5  UNL     1       2.221  39.878  31.270  1.00  0.00     0.214 C 
HETATM   17  C6  UNL     1       2.324  41.192  31.934  1.00  0.00     0.117 C 
HETATM   18  O1  UNL     1       1.216  39.168  31.465  1.00  0.00    -0.274 OA
ATOM     19  H2  UNL     1       4.062  40.027  30.280  1.00  0.00     0.162 HD
ENDBRANCH  14  15
BRANCH  14  20
HETATM   20  C7  UNL     1       3.342  38.460  28.231  1.00  0.00    -0.029 C 
HETATM   21  C8  UNL     1       4.218  39.659  28.008  1.00  0.00     0.016 C 
HETATM   22  C9  UNL     1       3.871  37.248  27.491  1.00  0.00     0.016 C 
HETATM   23  C10 UNL     1       1.958  38.736  27.710  1.00  0.00     0.016 C 
ENDBRANCH  14  20
ENDBRANCH  13  14
ENDBRANCH   9  13
ENDBRANCH   1   8
BRANCH   6  24
HETATM   24  S1  UNL     1       8.896  37.919  35.321  1.00  0.00     0.262 S 
HETATM   25  O3  UNL     1       8.714  39.407  35.299  1.00  0.00    -0.200 OA
HETATM   26  O4  UNL     1       7.666  37.371  36.036  1.00  0.00    -0.200 OA
BRANCH  24  27
HETATM   27  C17 UNL     1      10.289  37.430  36.217  1.00  0.00     0.091 A 
HETATM   28  C18 UNL     1      10.606  36.087  36.248  1.00  0.00    -0.038 A 
HETATM   29  C19 UNL     1       9.795  35.061  35.509  1.00  0.00     0.050 C 
HETATM   30  C20 UNL     1      11.695  35.669  36.974  1.00  0.00     0.015 A 
HETATM   31  C21 UNL     1      12.488  36.548  37.679  1.00  0.00    -0.061 A 
HETATM   32  C22 UNL     1      13.659  36.092  38.458  1.00  0.00     0.048 C 
HETATM   33  C23 UNL     1      12.146  37.879  37.629  1.00  0.00     0.015 A 
HETATM   34  C24 UNL     1      11.043  38.353  36.901  1.00  0.00    -0.038 A 
HETATM   35  C25 UNL     1      10.699  39.795  36.913  1.00  0.00     0.050 C 
ENDBRANCH  24  27
ENDBRANCH   6  24
TORSDOF 8
ENDMDL
