MODEL 1
REMARK VINA RESULT: -7.946454234      0.000      0.000
REMARK  10 active torsions:
REMARK  status: ('A' for Active; 'I' for Inactive)
REMARK    1  A    between atoms: C2_2  and  C3_3 
REMARK    2  A    between atoms: C3_3  and  S1_4 
REMARK    3  A    between atoms: S1_4  and  C4_6 
REMARK    4  A    between atoms: C4_6  and  C5_7 
REMARK    5  A    between atoms: C10_12  and  C11_13 
REMARK    6  A    between atoms: C12_14  and  C13_15 
REMARK    7  A    between atoms: C13_15  and  C14_16 
REMARK    8  A    between atoms: C14_16  and  C15_17 
REMARK    9  A    between atoms: N1_24  and  S2_25 
REMARK   10  A    between atoms: S2_25  and  C22_28 
REMARK       I    between atoms: C22_28  and  N2_30 
ROOT
HETATM    1  C5  UNL     1       3.092  37.162  31.771  1.00  0.00    -0.027 A 
HETATM    2  C6  UNL     1       3.599  36.055  32.373  1.00  0.00     0.017 A 
HETATM    3  C7  UNL     1       3.899  36.008  33.744  1.00  0.00    -0.045 A 
HETATM    4  C8  UNL     1       3.675  37.120  34.516  1.00  0.00    -0.050 A 
HETATM    5  C9  UNL     1       3.164  38.255  33.945  1.00  0.00     0.029 A 
HETATM    6  C10 UNL     1       2.875  38.277  32.591  1.00  0.00     0.025 A 
HETATM    7  C19 UNL     1       4.081  36.832  35.941  1.00  0.00     0.045 C 
HETATM    8  C20 UNL     1       5.074  35.698  35.759  1.00  0.00     0.013 C 
HETATM    9  C21 UNL     1       4.968  34.689  36.885  1.00  0.00     0.113 C 
HETATM   10  N1  UNL     1       3.719  34.019  36.689  1.00  0.00    -0.201 NA
HETATM   11  C24 UNL     1       3.338  34.173  35.316  1.00  0.00     0.117 C 
HETATM   12  C25 UNL     1       4.435  34.951  34.616  1.00  0.00     0.039 C 
ENDROOT
BRANCH   6  13
HETATM   13  C11 UNL     1       2.343  39.446  31.976  1.00  0.00    -0.066 C 
HETATM   14  C12 UNL     1       1.867  40.453  31.462  1.00  0.00    -0.101 C 
BRANCH  14  15
HETATM   15  C13 UNL     1       1.281  41.653  30.866  1.00  0.00     0.095 C 
BRANCH  15  16
HETATM   16  C14 UNL     1      -0.090  41.305  30.330  1.00  0.00     0.020 C 
BRANCH  16  17
HETATM   17  C15 UNL     1      -1.172  41.529  31.338  1.00  0.00    -0.051 C 
HETATM   18  C16 UNL     1      -2.380  42.083  30.571  1.00  0.00     0.014 C 
HETATM   19  C17 UNL     1      -1.621  40.284  32.036  1.00  0.00     0.014 C 
HETATM   20  C18 UNL     1      -0.796  42.612  32.342  1.00  0.00     0.014 C 
ENDBRANCH  16  17
ENDBRANCH  15  16
ENDBRANCH  14  15
ENDBRANCH   6  13
BRANCH   1  21
HETATM   21  C4  UNL     1       2.739  37.282  30.338  1.00  0.00     0.148 C 
BRANCH  21  22
HETATM   22  S1  UNL     1       4.209  37.415  29.371  1.00  0.00     0.019 S 
HETATM   23  O1  UNL     1       5.457  38.133  30.258  1.00  0.00    -0.258 OA
BRANCH  22  24
HETATM   24  C3  UNL     1       3.899  38.396  27.901  1.00  0.00     0.108 C 
BRANCH  24  25
HETATM   25  C2  UNL     1       3.434  37.541  26.751  1.00  0.00     0.008 C 
HETATM   26  C1  UNL     1       3.436  38.384  25.497  1.00  0.00     0.006 C 
ENDBRANCH  24  25
ENDBRANCH  22  24
ENDBRANCH  21  22
ENDBRANCH   1  21
BRANCH  10  27
HETATM   27  S2  UNL     1       3.808  32.366  37.179  1.00  0.00     0.298 S 
HETATM   28  O2  UNL     1       3.063  31.503  36.207  1.00  0.00    -0.201 OA
HETATM   29  O3  UNL     1       5.242  31.894  37.172  1.00  0.00    -0.201 OA
BRANCH  27  30
HETATM   30  C22 UNL     1       3.075  32.194  38.734  1.00  0.00     0.351 C 
HETATM   31  O4  UNL     1       2.281  31.216  38.946  1.00  0.00    -0.254 OA
HETATM   32  N2  UNL     1       3.347  33.126  39.766  1.00  0.00    -0.351 N 
HETATM   33  C23 UNL     1       2.729  32.984  41.087  1.00  0.00     0.150 C 
ATOM     34  H2  UNL     1       3.982  33.905  39.588  1.00  0.00     0.162 HD
ENDBRANCH  27  30
ENDBRANCH  10  27
TORSDOF 10
ENDMDL
MODEL 2
REMARK VINA RESULT: -7.758542547      6.453     10.911
REMARK  10 active torsions:
REMARK  status: ('A' for Active; 'I' for Inactive)
REMARK    1  A    between atoms: C2_2  and  C3_3 
REMARK    2  A    between atoms: C3_3  and  S1_4 
REMARK    3  A    between atoms: S1_4  and  C4_6 
REMARK    4  A    between atoms: C4_6  and  C5_7 
REMARK    5  A    between atoms: C10_12  and  C11_13 
REMARK    6  A    between atoms: C12_14  and  C13_15 
REMARK    7  A    between atoms: C13_15  and  C14_16 
REMARK    8  A    between atoms: C14_16  and  C15_17 
REMARK    9  A    between atoms: N1_24  and  S2_25 
REMARK   10  A    between atoms: S2_25  and  C22_28 
REMARK       I    between atoms: C22_28  and  N2_30 
ROOT
HETATM    1  C5  UNL     1       9.310  39.404  35.562  1.00  0.00    -0.027 A 
HETATM    2  C6  UNL     1       8.418  39.748  34.598  1.00  0.00     0.017 A 
HETATM    3  C7  UNL     1       8.505  39.271  33.280  1.00  0.00    -0.045 A 
HETATM    4  C8  UNL     1       9.528  38.421  32.943  1.00  0.00    -0.050 A 
HETATM    5  C9  UNL     1      10.447  38.051  33.888  1.00  0.00     0.029 A 
HETATM    6  C10 UNL     1      10.340  38.535  35.181  1.00  0.00     0.025 A 
HETATM    7  C19 UNL     1       9.416  38.057  31.482  1.00  0.00     0.045 C 
HETATM    8  C20 UNL     1       8.614  39.221  30.930  1.00  0.00     0.013 C 
HETATM    9  C21 UNL     1       7.654  38.764  29.850  1.00  0.00     0.113 C 
HETATM   10  N1  UNL     1       6.644  38.006  30.523  1.00  0.00    -0.201 NA
HETATM   11  C24 UNL     1       6.638  38.394  31.902  1.00  0.00     0.117 C 
HETATM   12  C25 UNL     1       7.677  39.483  32.082  1.00  0.00     0.039 C 
ENDROOT
BRANCH   6  13
HETATM   13  C11 UNL     1      11.284  38.163  36.180  1.00  0.00    -0.066 C 
HETATM   14  C12 UNL     1      12.093  37.820  37.036  1.00  0.00    -0.101 C 
BRANCH  14  15
HETATM   15  C13 UNL     1      13.054  37.387  38.050  1.00  0.00     0.095 C 
BRANCH  15  16
HETATM   16  C14 UNL     1      12.626  36.035  38.575  1.00  0.00     0.020 C 
BRANCH  16  17
HETATM   17  C15 UNL     1      11.839  36.136  39.843  1.00  0.00    -0.051 C 
HETATM   18  C16 UNL     1      12.268  34.954  40.722  1.00  0.00     0.014 C 
HETATM   19  C17 UNL     1      12.099  37.387  40.623  1.00  0.00     0.014 C 
HETATM   20  C18 UNL     1      10.347  35.944  39.601  1.00  0.00     0.014 C 
ENDBRANCH  16  17
ENDBRANCH  15  16
ENDBRANCH  14  15
ENDBRANCH   6  13
BRANCH   1  21
HETATM   21  C4  UNL     1       9.276  39.856  36.972  1.00  0.00     0.148 C 
BRANCH  21  22
HETATM   22  S1  UNL     1       9.874  41.511  37.083  1.00  0.00     0.019 S 
HETATM   23  O1  UNL     1      10.644  41.781  38.564  1.00  0.00    -0.258 OA
BRANCH  22  24
HETATM   24  C3  UNL     1       8.520  42.675  36.909  1.00  0.00     0.108 C 
BRANCH  24  25
HETATM   25  C2  UNL     1       8.626  43.465  35.631  1.00  0.00     0.008 C 
HETATM   26  C1  UNL     1       9.825  44.380  35.732  1.00  0.00     0.006 C 
ENDBRANCH  24  25
ENDBRANCH  22  24
ENDBRANCH  21  22
ENDBRANCH   1  21
BRANCH  10  27
HETATM   27  S2  UNL     1       5.106  38.195  29.764  1.00  0.00     0.298 S 
HETATM   28  O2  UNL     1       5.216  39.146  28.612  1.00  0.00    -0.201 OA
HETATM   29  O3  UNL     1       4.634  36.877  29.198  1.00  0.00    -0.201 OA
BRANCH  27  30
HETATM   30  C22 UNL     1       3.985  38.849  30.906  1.00  0.00     0.351 C 
HETATM   31  O4  UNL     1       3.716  40.096  30.872  1.00  0.00    -0.254 OA
HETATM   32  N2  UNL     1       3.370  38.013  31.872  1.00  0.00    -0.351 N 
HETATM   33  C23 UNL     1       2.419  38.562  32.841  1.00  0.00     0.150 C 
ATOM     34  H2  UNL     1       3.592  37.017  31.892  1.00  0.00     0.162 HD
ENDBRANCH  27  30
ENDBRANCH  10  27
TORSDOF 10
ENDMDL
MODEL 3
REMARK VINA RESULT: -7.717015365      5.781     10.693
REMARK  10 active torsions:
REMARK  status: ('A' for Active; 'I' for Inactive)
REMARK    1  A    between atoms: C2_2  and  C3_3 
REMARK    2  A    between atoms: C3_3  and  S1_4 
REMARK    3  A    between atoms: S1_4  and  C4_6 
REMARK    4  A    between atoms: C4_6  and  C5_7 
REMARK    5  A    between atoms: C10_12  and  C11_13 
REMARK    6  A    between atoms: C12_14  and  C13_15 
REMARK    7  A    between atoms: C13_15  and  C14_16 
REMARK    8  A    between atoms: C14_16  and  C15_17 
REMARK    9  A    between atoms: N1_24  and  S2_25 
REMARK   10  A    between atoms: S2_25  and  C22_28 
REMARK       I    between atoms: C22_28  and  N2_30 
ROOT
HETATM    1  C5  UNL     1       9.285  39.334  35.568  1.00  0.00    -0.027 A 
HETATM    2  C6  UNL     1       8.381  39.684  34.617  1.00  0.00     0.017 A 
HETATM    3  C7  UNL     1       8.477  39.255  33.283  1.00  0.00    -0.045 A 
HETATM    4  C8  UNL     1       9.524  38.447  32.916  1.00  0.00    -0.050 A 
HETATM    5  C9  UNL     1      10.456  38.072  33.847  1.00  0.00     0.029 A 
HETATM    6  C10 UNL     1      10.339  38.508  35.155  1.00  0.00     0.025 A 
HETATM    7  C19 UNL     1       9.418  38.129  31.444  1.00  0.00     0.045 C 
HETATM    8  C20 UNL     1       8.582  39.288  30.933  1.00  0.00     0.013 C 
HETATM    9  C21 UNL     1       7.633  38.840  29.840  1.00  0.00     0.113 C 
HETATM   10  N1  UNL     1       6.647  38.030  30.488  1.00  0.00    -0.201 NA
HETATM   11  C24 UNL     1       6.633  38.371  31.880  1.00  0.00     0.117 C 
HETATM   12  C25 UNL     1       7.640  39.483  32.095  1.00  0.00     0.039 C 
ENDROOT
BRANCH   6  13
HETATM   13  C11 UNL     1      11.295  38.130  36.139  1.00  0.00    -0.066 C 
HETATM   14  C12 UNL     1      12.106  37.787  36.995  1.00  0.00    -0.101 C 
BRANCH  14  15
HETATM   15  C13 UNL     1      13.057  37.358  38.020  1.00  0.00     0.095 C 
BRANCH  15  16
HETATM   16  C14 UNL     1      12.617  36.014  38.555  1.00  0.00     0.020 C 
BRANCH  16  17
HETATM   17  C15 UNL     1      11.861  36.130  39.841  1.00  0.00    -0.051 C 
HETATM   18  C16 UNL     1      12.308  34.957  40.721  1.00  0.00     0.014 C 
HETATM   19  C17 UNL     1      12.141  37.388  40.601  1.00  0.00     0.014 C 
HETATM   20  C18 UNL     1      10.363  35.938  39.636  1.00  0.00     0.014 C 
ENDBRANCH  16  17
ENDBRANCH  15  16
ENDBRANCH  14  15
ENDBRANCH   6  13
BRANCH   1  21
HETATM   21  C4  UNL     1       9.241  39.736  36.992  1.00  0.00     0.148 C 
BRANCH  21  22
HETATM   22  S1  UNL     1       7.867  38.967  37.787  1.00  0.00     0.019 S 
HETATM   23  O1  UNL     1       7.985  39.101  39.469  1.00  0.00    -0.258 OA
BRANCH  22  24
HETATM   24  C3  UNL     1       7.785  37.230  37.345  1.00  0.00     0.108 C 
BRANCH  24  25
HETATM   25  C2  UNL     1       6.639  36.948  36.409  1.00  0.00     0.008 C 
HETATM   26  C1  UNL     1       7.178  36.223  35.198  1.00  0.00     0.006 C 
ENDBRANCH  24  25
ENDBRANCH  22  24
ENDBRANCH  21  22
ENDBRANCH   1  21
BRANCH  10  27
HETATM   27  S2  UNL     1       5.101  38.200  29.739  1.00  0.00     0.298 S 
HETATM   28  O2  UNL     1       5.194  39.147  28.582  1.00  0.00    -0.201 OA
HETATM   29  O3  UNL     1       4.640  36.874  29.183  1.00  0.00    -0.201 OA
BRANCH  27  30
HETATM   30  C22 UNL     1       3.982  38.849  30.885  1.00  0.00     0.351 C 
HETATM   31  O4  UNL     1       3.716  40.097  30.861  1.00  0.00    -0.254 OA
HETATM   32  N2  UNL     1       3.364  38.007  31.845  1.00  0.00    -0.351 N 
HETATM   33  C23 UNL     1       2.414  38.552  32.818  1.00  0.00     0.150 C 
ATOM     34  H2  UNL     1       3.584  37.011  31.858  1.00  0.00     0.162 HD
ENDBRANCH  27  30
ENDBRANCH  10  27
TORSDOF 10
ENDMDL
MODEL 4
REMARK VINA RESULT: -7.667397824      3.201      5.763
REMARK  10 active torsions:
REMARK  status: ('A' for Active; 'I' for Inactive)
REMARK    1  A    between atoms: C2_2  and  C3_3 
REMARK    2  A    between atoms: C3_3  and  S1_4 
REMARK    3  A    between atoms: S1_4  and  C4_6 
REMARK    4  A    between atoms: C4_6  and  C5_7 
REMARK    5  A    between atoms: C10_12  and  C11_13 
REMARK    6  A    between atoms: C12_14  and  C13_15 
REMARK    7  A    between atoms: C13_15  and  C14_16 
REMARK    8  A    between atoms: C14_16  and  C15_17 
REMARK    9  A    between atoms: N1_24  and  S2_25 
REMARK   10  A    between atoms: S2_25  and  C22_28 
REMARK       I    between atoms: C22_28  and  N2_30 
ROOT
HETATM    1  C5  UNL     1       3.644  36.588  34.676  1.00  0.00    -0.027 A 
HETATM    2  C6  UNL     1       2.851  35.692  35.318  1.00  0.00     0.017 A 
HETATM    3  C7  UNL     1       3.367  34.662  36.122  1.00  0.00    -0.045 A 
HETATM    4  C8  UNL     1       4.725  34.549  36.272  1.00  0.00    -0.050 A 
HETATM    5  C9  UNL     1       5.558  35.435  35.641  1.00  0.00     0.029 A 
HETATM    6  C10 UNL     1       5.026  36.442  34.854  1.00  0.00     0.025 A 
HETATM    7  C19 UNL     1       5.034  33.372  37.165  1.00  0.00     0.045 C 
HETATM    8  C20 UNL     1       3.787  32.522  37.005  1.00  0.00     0.013 C 
HETATM    9  C21 UNL     1       3.417  31.839  38.307  1.00  0.00     0.113 C 
HETATM   10  N1  UNL     1       2.955  32.880  39.174  1.00  0.00    -0.201 NA
HETATM   11  C24 UNL     1       2.547  33.989  38.364  1.00  0.00     0.117 C 
HETATM   12  C25 UNL     1       2.731  33.595  36.912  1.00  0.00     0.039 C 
ENDROOT
BRANCH   6  13
HETATM   13  C11 UNL     1       5.872  37.373  34.189  1.00  0.00    -0.066 C 
HETATM   14  C12 UNL     1       6.620  38.163  33.621  1.00  0.00    -0.101 C 
BRANCH  14  15
HETATM   15  C13 UNL     1       7.531  39.088  32.948  1.00  0.00     0.095 C 
BRANCH  15  16
HETATM   16  C14 UNL     1       8.950  38.731  33.328  1.00  0.00     0.020 C 
BRANCH  16  17
HETATM   17  C15 UNL     1       9.591  37.807  32.341  1.00  0.00    -0.051 C 
HETATM   18  C16 UNL     1      11.051  38.255  32.204  1.00  0.00     0.014 C 
HETATM   19  C17 UNL     1       9.604  36.373  32.769  1.00  0.00     0.014 C 
HETATM   20  C18 UNL     1       8.987  37.956  30.951  1.00  0.00     0.014 C 
ENDBRANCH  16  17
ENDBRANCH  15  16
ENDBRANCH  14  15
ENDBRANCH   6  13
BRANCH   1  21
HETATM   21  C4  UNL     1       3.174  37.705  33.826  1.00  0.00     0.148 C 
BRANCH  21  22
HETATM   22  S1  UNL     1       3.008  37.155  32.158  1.00  0.00     0.019 S 
HETATM   23  O1  UNL     1       3.765  35.660  31.932  1.00  0.00    -0.258 OA
BRANCH  22  24
HETATM   24  C3  UNL     1       3.734  38.351  31.034  1.00  0.00     0.108 C 
BRANCH  24  25
HETATM   25  C2  UNL     1       4.668  37.694  30.051  1.00  0.00     0.008 C 
HETATM   26  C1  UNL     1       3.883  37.339  28.809  1.00  0.00     0.006 C 
ENDBRANCH  24  25
ENDBRANCH  22  24
ENDBRANCH  21  22
ENDBRANCH   1  21
BRANCH  10  27
HETATM   27  S2  UNL     1       1.703  32.316  40.220  1.00  0.00     0.298 S 
HETATM   28  O2  UNL     1       0.413  33.003  39.892  1.00  0.00    -0.201 OA
HETATM   29  O3  UNL     1       1.474  30.838  40.016  1.00  0.00    -0.201 OA
BRANCH  27  30
HETATM   30  C22 UNL     1       2.119  32.690  41.856  1.00  0.00     0.351 C 
HETATM   31  O4  UNL     1       1.211  32.661  42.753  1.00  0.00    -0.254 OA
HETATM   32  N2  UNL     1       3.452  33.026  42.202  1.00  0.00    -0.351 N 
HETATM   33  C23 UNL     1       3.809  33.342  43.586  1.00  0.00     0.150 C 
ATOM     34  H2  UNL     1       4.170  33.048  41.478  1.00  0.00     0.162 HD
ENDBRANCH  27  30
ENDBRANCH  10  27
TORSDOF 10
ENDMDL
MODEL 5
REMARK VINA RESULT: -7.489851604      7.011     12.194
REMARK  10 active torsions:
REMARK  status: ('A' for Active; 'I' for Inactive)
REMARK    1  A    between atoms: C2_2  and  C3_3 
REMARK    2  A    between atoms: C3_3  and  S1_4 
REMARK    3  A    between atoms: S1_4  and  C4_6 
REMARK    4  A    between atoms: C4_6  and  C5_7 
REMARK    5  A    between atoms: C10_12  and  C11_13 
REMARK    6  A    between atoms: C12_14  and  C13_15 
REMARK    7  A    between atoms: C13_15  and  C14_16 
REMARK    8  A    between atoms: C14_16  and  C15_17 
REMARK    9  A    between atoms: N1_24  and  S2_25 
REMARK   10  A    between atoms: S2_25  and  C22_28 
REMARK       I    between atoms: C22_28  and  N2_30 
ROOT
HETATM    1  C5  UNL     1      11.344  38.116  37.157  1.00  0.00    -0.027 A 
HETATM    2  C6  UNL     1      11.056  38.648  35.942  1.00  0.00     0.017 A 
HETATM    3  C7  UNL     1      10.678  37.863  34.841  1.00  0.00    -0.045 A 
HETATM    4  C8  UNL     1      10.592  36.502  34.988  1.00  0.00    -0.050 A 
HETATM    5  C9  UNL     1      10.875  35.928  36.199  1.00  0.00     0.029 A 
HETATM    6  C10 UNL     1      11.245  36.722  37.270  1.00  0.00     0.025 A 
HETATM    7  C19 UNL     1      10.181  35.880  33.675  1.00  0.00     0.045 C 
HETATM    8  C20 UNL     1      10.620  36.938  32.678  1.00  0.00     0.013 C 
HETATM    9  C21 UNL     1       9.644  37.042  31.523  1.00  0.00     0.113 C 
HETATM   10  N1  UNL     1       8.458  37.628  32.070  1.00  0.00    -0.201 NA
HETATM   11  C24 UNL     1       8.814  38.325  33.270  1.00  0.00     0.117 C 
HETATM   12  C25 UNL     1      10.313  38.194  33.453  1.00  0.00     0.039 C 
ENDROOT
BRANCH   6  13
HETATM   13  C11 UNL     1      11.543  36.147  38.537  1.00  0.00    -0.066 C 
HETATM   14  C12 UNL     1      11.804  35.630  39.620  1.00  0.00    -0.101 C 
BRANCH  14  15
HETATM   15  C13 UNL     1      12.120  34.993  40.898  1.00  0.00     0.095 C 
BRANCH  15  16
HETATM   16  C14 UNL     1      11.878  35.991  42.007  1.00  0.00     0.020 C 
BRANCH  16  17
HETATM   17  C15 UNL     1      10.688  35.639  42.843  1.00  0.00    -0.051 C 
HETATM   18  C16 UNL     1       9.581  36.633  42.472  1.00  0.00     0.014 C 
HETATM   19  C17 UNL     1      10.153  34.264  42.593  1.00  0.00     0.014 C 
HETATM   20  C18 UNL     1      10.953  35.860  44.327  1.00  0.00     0.014 C 
ENDBRANCH  16  17
ENDBRANCH  15  16
ENDBRANCH  14  15
ENDBRANCH   6  13
BRANCH   1  21
HETATM   21  C4  UNL     1      11.736  38.878  38.365  1.00  0.00     0.148 C 
BRANCH  21  22
HETATM   22  S1  UNL     1      10.431  39.971  38.829  1.00  0.00     0.019 S 
HETATM   23  O1  UNL     1      10.683  41.520  38.200  1.00  0.00    -0.258 OA
BRANCH  22  24
HETATM   24  C3  UNL     1      10.317  40.079  40.617  1.00  0.00     0.108 C 
BRANCH  24  25
HETATM   25  C2  UNL     1      11.605  39.668  41.282  1.00  0.00     0.008 C 
HETATM   26  C1  UNL     1      11.437  39.806  42.777  1.00  0.00     0.006 C 
ENDBRANCH  24  25
ENDBRANCH  22  24
ENDBRANCH  21  22
ENDBRANCH   1  21
BRANCH  10  27
HETATM   27  S2  UNL     1       7.668  38.639  30.916  1.00  0.00     0.298 S 
HETATM   28  O2  UNL     1       7.972  40.078  31.202  1.00  0.00    -0.201 OA
HETATM   29  O3  UNL     1       8.184  38.353  29.526  1.00  0.00    -0.201 OA
BRANCH  27  30
HETATM   30  C22 UNL     1       5.959  38.410  31.034  1.00  0.00     0.351 C 
HETATM   31  O4  UNL     1       5.302  39.055  31.919  1.00  0.00    -0.254 OA
HETATM   32  N2  UNL     1       5.290  37.515  30.161  1.00  0.00    -0.351 N 
HETATM   33  C23 UNL     1       3.842  37.318  30.257  1.00  0.00     0.150 C 
ATOM     34  H2  UNL     1       5.823  37.003  29.458  1.00  0.00     0.162 HD
ENDBRANCH  27  30
ENDBRANCH  10  27
TORSDOF 10
ENDMDL
