MODEL 1
REMARK VINA RESULT: -7.890969544      0.000      0.000
REMARK  10 active torsions:
REMARK  status: ('A' for Active; 'I' for Inactive)
REMARK    1  A    between atoms: C3_3  and  C4_4 
REMARK    2  A    between atoms: C3_3  and  N1_32 
REMARK    3  A    between atoms: C4_4  and  C5_5 
REMARK    4  A    between atoms: C13_13  and  O1_14 
REMARK    5  A    between atoms: C22_25  and  C23_26 
REMARK    6  A    between atoms: C23_26  and  C24_27 
REMARK    7  A    between atoms: C25_28  and  C26_29 
REMARK    8  A    between atoms: N1_32  and  C29_34 
REMARK    9  A    between atoms: C29_34  and  C31_36 
REMARK   10  A    between atoms: C31_36  and  C32_37 
ROOT
HETATM    1  C1  UNL     1       3.192  37.989  25.755  1.00  0.00     0.014 C 
HETATM    2  C2  UNL     1       3.357  38.144  26.925  1.00  0.00    -0.088 C 
HETATM    3  C3  UNL     1       3.534  38.329  28.372  1.00  0.00     0.180 C 
ENDROOT
BRANCH   3   4
HETATM    4  C4  UNL     1       4.000  37.183  29.108  1.00  0.00     0.022 C 
BRANCH   4   5
HETATM    5  C5  UNL     1       4.462  37.213  30.361  1.00  0.00    -0.036 A 
HETATM    6  C6  UNL     1       5.541  38.027  30.680  1.00  0.00     0.012 A 
HETATM    7  C7  UNL     1       6.085  38.103  31.944  1.00  0.00     0.013 A 
HETATM    8  C8  UNL     1       5.553  37.340  32.967  1.00  0.00    -0.021 A 
HETATM    9  C9  UNL     1       6.220  37.536  34.176  1.00  0.00     0.024 C 
HETATM   10  C19 UNL     1       4.482  36.524  32.669  1.00  0.00     0.026 A 
HETATM   11  C10 UNL     1       6.232  36.663  35.258  1.00  0.00    -0.022 A 
HETATM   12  C11 UNL     1       5.386  35.595  35.548  1.00  0.00     0.005 A 
HETATM   13  C28 UNL     1       7.245  37.006  36.052  1.00  0.00     0.028 A 
HETATM   14  C12 UNL     1       5.604  34.865  36.698  1.00  0.00     0.060 A 
HETATM   15  C17 UNL     1       4.307  35.185  34.757  1.00  0.00     0.027 A 
HETATM   16  C13 UNL     1       4.811  33.784  37.071  1.00  0.00     0.083 A 
HETATM   17  C21 UNL     1       6.693  35.177  37.624  1.00  0.00     0.196 A 
HETATM   18  C15 UNL     1       3.759  33.410  36.268  1.00  0.00     0.039 A 
HETATM   19  C16 UNL     1       3.520  34.120  35.114  1.00  0.00     0.019 A 
HETATM   20  O3  UNL     1       6.923  34.544  38.671  1.00  0.00    -0.286 OA
HETATM   21  C22 UNL     1       7.556  36.312  37.272  1.00  0.00     0.024 A 
HETATM   22  C18 UNL     1       3.828  35.697  33.564  1.00  0.00     0.194 C 
HETATM   23  O2  UNL     1       2.660  35.402  33.202  1.00  0.00    -0.287 OA
HETATM   24  C20 UNL     1       3.947  36.463  31.388  1.00  0.00     0.027 A 
BRANCH  16  25
HETATM   25  O1  UNL     1       5.048  33.068  38.227  1.00  0.00    -0.355 OA
HETATM   26  C14 UNL     1       4.250  31.943  38.518  1.00  0.00     0.210 C 
ENDBRANCH  16  25
BRANCH  21  27
HETATM   27  C23 UNL     1       8.567  36.674  38.042  1.00  0.00     0.080 C 
BRANCH  27  28
HETATM   28  C24 UNL     1       9.899  36.315  37.644  1.00  0.00    -0.078 C 
HETATM   29  C25 UNL     1      11.023  36.013  37.332  1.00  0.00    -0.102 C 
BRANCH  29  30
HETATM   30  C26 UNL     1      12.404  35.645  36.975  1.00  0.00     0.090 C 
HETATM   31  C27 UNL     1      13.284  35.642  38.228  1.00  0.00     0.018 C 
ENDBRANCH  29  30
ENDBRANCH  27  28
ENDBRANCH  21  27
ENDBRANCH   4   5
ENDBRANCH   3   4
BRANCH   3  32
HETATM   32  N1  UNL     1       2.382  38.968  28.875  1.00  0.00    -0.400 N 
ATOM     33  H1  UNL     1       1.457  38.713  28.530  1.00  0.00     0.155 HD
BRANCH  32  34
HETATM   34  C29 UNL     1       2.527  39.966  29.863  1.00  0.00     0.077 C 
HETATM   35  C30 UNL     1       2.001  41.312  29.520  1.00  0.00     0.032 C 
BRANCH  34  36
HETATM   36  C31 UNL     1       1.909  39.487  31.187  1.00  0.00     0.050 C 
BRANCH  36  37
HETATM   37  C32 UNL     1       2.769  39.961  32.297  1.00  0.00    -0.035 C 
HETATM   38  C33 UNL     1       2.600  39.516  33.526  1.00  0.00     0.007 C 
ENDBRANCH  36  37
ENDBRANCH  34  36
ENDBRANCH  32  34
ENDBRANCH   3  32
TORSDOF 10
ENDMDL
MODEL 2
REMARK VINA RESULT: -7.799535488      3.805      5.980
REMARK  10 active torsions:
REMARK  status: ('A' for Active; 'I' for Inactive)
REMARK    1  A    between atoms: C3_3  and  C4_4 
REMARK    2  A    between atoms: C3_3  and  N1_32 
REMARK    3  A    between atoms: C4_4  and  C5_5 
REMARK    4  A    between atoms: C13_13  and  O1_14 
REMARK    5  A    between atoms: C22_25  and  C23_26 
REMARK    6  A    between atoms: C23_26  and  C24_27 
REMARK    7  A    between atoms: C25_28  and  C26_29 
REMARK    8  A    between atoms: N1_32  and  C29_34 
REMARK    9  A    between atoms: C29_34  and  C31_36 
REMARK   10  A    between atoms: C31_36  and  C32_37 
ROOT
HETATM    1  C1  UNL     1       3.878  36.818  31.620  1.00  0.00     0.014 C 
HETATM    2  C2  UNL     1       4.639  37.290  30.833  1.00  0.00    -0.088 C 
HETATM    3  C3  UNL     1       5.572  37.896  29.874  1.00  0.00     0.180 C 
ENDROOT
BRANCH   3   4
HETATM    4  C4  UNL     1       6.950  37.969  30.285  1.00  0.00     0.022 C 
BRANCH   4   5
HETATM    5  C5  UNL     1       7.366  38.291  31.513  1.00  0.00    -0.036 A 
HETATM    6  C6  UNL     1       7.079  39.545  32.034  1.00  0.00     0.012 A 
HETATM    7  C7  UNL     1       7.486  39.958  33.284  1.00  0.00     0.013 A 
HETATM    8  C8  UNL     1       8.221  39.102  34.084  1.00  0.00    -0.021 A 
HETATM    9  C9  UNL     1       8.549  39.676  35.312  1.00  0.00     0.024 C 
HETATM   10  C19 UNL     1       8.518  37.852  33.583  1.00  0.00     0.026 A 
HETATM   11  C10 UNL     1       9.589  39.286  36.148  1.00  0.00    -0.022 A 
HETATM   12  C11 UNL     1      10.327  38.105  36.159  1.00  0.00     0.005 A 
HETATM   13  C28 UNL     1       9.813  40.274  37.014  1.00  0.00     0.028 A 
HETATM   14  C12 UNL     1      11.325  37.950  37.098  1.00  0.00     0.060 A 
HETATM   15  C17 UNL     1      10.141  37.032  35.278  1.00  0.00     0.027 A 
HETATM   16  C13 UNL     1      12.112  36.805  37.186  1.00  0.00     0.083 A 
HETATM   17  C21 UNL     1      11.633  38.985  38.085  1.00  0.00     0.196 A 
HETATM   18  C15 UNL     1      11.901  35.771  36.304  1.00  0.00     0.039 A 
HETATM   19  C16 UNL     1      10.911  35.900  35.356  1.00  0.00     0.019 A 
HETATM   20  O3  UNL     1      12.524  38.884  38.948  1.00  0.00    -0.286 OA
HETATM   21  C22 UNL     1      10.827  40.211  38.031  1.00  0.00     0.024 A 
HETATM   22  C18 UNL     1       9.240  36.873  34.241  1.00  0.00     0.194 C 
HETATM   23  O2  UNL     1       9.015  35.716  33.804  1.00  0.00    -0.287 OA
HETATM   24  C20 UNL     1       8.097  37.455  32.319  1.00  0.00     0.027 A 
BRANCH  16  25
HETATM   25  O1  UNL     1      13.105  36.672  38.134  1.00  0.00    -0.355 OA
HETATM   26  C14 UNL     1      13.223  35.461  38.845  1.00  0.00     0.210 C 
ENDBRANCH  16  25
BRANCH  21  27
HETATM   27  C23 UNL     1      11.027  41.206  38.878  1.00  0.00     0.080 C 
BRANCH  27  28
HETATM   28  C24 UNL     1      10.674  42.537  38.473  1.00  0.00    -0.078 C 
HETATM   29  C25 UNL     1      10.357  43.649  38.135  1.00  0.00    -0.102 C 
BRANCH  29  30
HETATM   30  C26 UNL     1       9.944  45.003  37.724  1.00  0.00     0.090 C 
HETATM   31  C27 UNL     1      11.170  45.814  37.295  1.00  0.00     0.018 C 
ENDBRANCH  29  30
ENDBRANCH  27  28
ENDBRANCH  21  27
ENDBRANCH   4   5
ENDBRANCH   3   4
BRANCH   3  32
HETATM   32  N1  UNL     1       4.997  39.093  29.402  1.00  0.00    -0.400 N 
ATOM     33  H1  UNL     1       5.491  39.979  29.503  1.00  0.00     0.155 HD
BRANCH  32  34
HETATM   34  C29 UNL     1       3.726  39.049  28.787  1.00  0.00     0.077 C 
HETATM   35  C30 UNL     1       2.755  40.089  29.209  1.00  0.00     0.032 C 
BRANCH  34  36
HETATM   36  C31 UNL     1       3.883  39.073  27.257  1.00  0.00     0.050 C 
BRANCH  36  37
HETATM   37  C32 UNL     1       3.507  37.738  26.733  1.00  0.00    -0.035 C 
HETATM   38  C33 UNL     1       3.138  37.580  25.477  1.00  0.00     0.007 C 
ENDBRANCH  36  37
ENDBRANCH  34  36
ENDBRANCH  32  34
ENDBRANCH   3  32
TORSDOF 10
ENDMDL
MODEL 3
REMARK VINA RESULT: -7.775430067      3.693      5.538
REMARK  10 active torsions:
REMARK  status: ('A' for Active; 'I' for Inactive)
REMARK    1  A    between atoms: C3_3  and  C4_4 
REMARK    2  A    between atoms: C3_3  and  N1_32 
REMARK    3  A    between atoms: C4_4  and  C5_5 
REMARK    4  A    between atoms: C13_13  and  O1_14 
REMARK    5  A    between atoms: C22_25  and  C23_26 
REMARK    6  A    between atoms: C23_26  and  C24_27 
REMARK    7  A    between atoms: C25_28  and  C26_29 
REMARK    8  A    between atoms: N1_32  and  C29_34 
REMARK    9  A    between atoms: C29_34  and  C31_36 
REMARK   10  A    between atoms: C31_36  and  C32_37 
ROOT
HETATM    1  C1  UNL     1       4.458  36.672  32.414  1.00  0.00     0.014 C 
HETATM    2  C2  UNL     1       4.669  37.280  31.411  1.00  0.00    -0.088 C 
HETATM    3  C3  UNL     1       4.922  38.051  30.186  1.00  0.00     0.180 C 
ENDROOT
BRANCH   3   4
HETATM    4  C4  UNL     1       6.256  38.566  30.022  1.00  0.00     0.022 C 
BRANCH   4   5
HETATM    5  C5  UNL     1       7.188  38.598  30.979  1.00  0.00    -0.036 A 
HETATM    6  C6  UNL     1       8.287  37.755  30.901  1.00  0.00     0.012 A 
HETATM    7  C7  UNL     1       9.283  37.717  31.854  1.00  0.00     0.013 A 
HETATM    8  C8  UNL     1       9.209  38.549  32.956  1.00  0.00    -0.021 A 
HETATM    9  C9  UNL     1      10.293  38.383  33.818  1.00  0.00     0.024 C 
HETATM   10  C19 UNL     1       8.122  39.393  33.053  1.00  0.00     0.026 A 
HETATM   11  C10 UNL     1      10.330  38.725  35.165  1.00  0.00    -0.022 A 
HETATM   12  C11 UNL     1       9.489  39.562  35.894  1.00  0.00     0.005 A 
HETATM   13  C28 UNL     1      11.362  38.092  35.722  1.00  0.00     0.028 A 
HETATM   14  C12 UNL     1       9.732  39.745  37.240  1.00  0.00     0.060 A 
HETATM   15  C17 UNL     1       8.390  40.253  35.370  1.00  0.00     0.027 A 
HETATM   16  C13 UNL     1       8.948  40.563  38.047  1.00  0.00     0.083 A 
HETATM   17  C21 UNL     1      10.845  39.089  37.926  1.00  0.00     0.196 A 
HETATM   18  C15 UNL     1       7.876  41.227  37.496  1.00  0.00     0.039 A 
HETATM   19  C16 UNL     1       7.610  41.061  36.156  1.00  0.00     0.019 A 
HETATM   20  O3  UNL     1      11.098  39.228  39.136  1.00  0.00    -0.286 OA
HETATM   21  C22 UNL     1      11.701  38.216  37.113  1.00  0.00     0.024 A 
HETATM   22  C18 UNL     1       7.887  40.286  34.081  1.00  0.00     0.194 C 
HETATM   23  O2  UNL     1       7.114  41.223  33.755  1.00  0.00    -0.287 OA
HETATM   24  C20 UNL     1       7.130  39.415  32.080  1.00  0.00     0.027 A 
BRANCH  16  25
HETATM   25  O1  UNL     1       9.209  40.731  39.391  1.00  0.00    -0.355 OA
HETATM   26  C14 UNL     1       9.120  42.019  39.956  1.00  0.00     0.210 C 
ENDBRANCH  16  25
BRANCH  21  27
HETATM   27  C23 UNL     1      12.732  37.578  37.639  1.00  0.00     0.080 C 
BRANCH  27  28
HETATM   28  C24 UNL     1      12.495  36.645  38.703  1.00  0.00    -0.078 C 
HETATM   29  C25 UNL     1      12.274  35.864  39.594  1.00  0.00    -0.102 C 
BRANCH  29  30
HETATM   30  C26 UNL     1      11.980  34.913  40.681  1.00  0.00     0.090 C 
HETATM   31  C27 UNL     1      12.010  35.636  42.030  1.00  0.00     0.018 C 
ENDBRANCH  29  30
ENDBRANCH  27  28
ENDBRANCH  21  27
ENDBRANCH   4   5
ENDBRANCH   3   4
BRANCH   3  32
HETATM   32  N1  UNL     1       3.870  38.977  30.029  1.00  0.00    -0.400 N 
ATOM     33  H1  UNL     1       3.538  39.522  30.824  1.00  0.00     0.155 HD
BRANCH  32  34
HETATM   34  C29 UNL     1       3.284  39.139  28.755  1.00  0.00     0.077 C 
HETATM   35  C30 UNL     1       3.899  40.163  27.873  1.00  0.00     0.032 C 
BRANCH  34  36
HETATM   36  C31 UNL     1       3.231  37.787  28.026  1.00  0.00     0.050 C 
BRANCH  36  37
HETATM   37  C32 UNL     1       3.647  38.003  26.619  1.00  0.00    -0.035 C 
HETATM   38  C33 UNL     1       2.924  37.541  25.618  1.00  0.00     0.007 C 
ENDBRANCH  36  37
ENDBRANCH  34  36
ENDBRANCH  32  34
ENDBRANCH   3  32
TORSDOF 10
ENDMDL
MODEL 4
REMARK VINA RESULT: -7.738015449      4.092      6.138
REMARK  10 active torsions:
REMARK  status: ('A' for Active; 'I' for Inactive)
REMARK    1  A    between atoms: C3_3  and  C4_4 
REMARK    2  A    between atoms: C3_3  and  N1_32 
REMARK    3  A    between atoms: C4_4  and  C5_5 
REMARK    4  A    between atoms: C13_13  and  O1_14 
REMARK    5  A    between atoms: C22_25  and  C23_26 
REMARK    6  A    between atoms: C23_26  and  C24_27 
REMARK    7  A    between atoms: C25_28  and  C26_29 
REMARK    8  A    between atoms: N1_32  and  C29_34 
REMARK    9  A    between atoms: C29_34  and  C31_36 
REMARK   10  A    between atoms: C31_36  and  C32_37 
ROOT
HETATM    1  C1  UNL     1       2.604  36.920  32.137  1.00  0.00     0.014 C 
HETATM    2  C2  UNL     1       3.655  37.199  31.648  1.00  0.00    -0.088 C 
HETATM    3  C3  UNL     1       4.936  37.558  31.026  1.00  0.00     0.180 C 
ENDROOT
BRANCH   3   4
HETATM    4  C4  UNL     1       5.566  38.758  31.510  1.00  0.00     0.022 C 
BRANCH   4   5
HETATM    5  C5  UNL     1       6.629  38.793  32.318  1.00  0.00    -0.036 A 
HETATM    6  C6  UNL     1       7.549  37.753  32.294  1.00  0.00     0.012 A 
HETATM    7  C7  UNL     1       8.662  37.709  33.106  1.00  0.00     0.013 A 
HETATM    8  C8  UNL     1       8.901  38.735  34.001  1.00  0.00    -0.021 A 
HETATM    9  C9  UNL     1      10.066  38.532  34.741  1.00  0.00     0.024 C 
HETATM   10  C19 UNL     1       7.997  39.776  34.040  1.00  0.00     0.026 A 
HETATM   11  C10 UNL     1      10.370  39.114  35.967  1.00  0.00    -0.022 A 
HETATM   12  C11 UNL     1       9.805  40.223  36.590  1.00  0.00     0.005 A 
HETATM   13  C28 UNL     1      11.359  38.413  36.520  1.00  0.00     0.028 A 
HETATM   14  C12 UNL     1      10.284  40.612  37.824  1.00  0.00     0.060 A 
HETATM   15  C17 UNL     1       8.766  41.000  36.063  1.00  0.00     0.027 A 
HETATM   16  C13 UNL     1       9.782  41.707  38.521  1.00  0.00     0.083 A 
HETATM   17  C21 UNL     1      11.368  39.898  38.498  1.00  0.00     0.196 A 
HETATM   18  C15 UNL     1       8.761  42.447  37.972  1.00  0.00     0.039 A 
HETATM   19  C16 UNL     1       8.263  42.080  36.742  1.00  0.00     0.019 A 
HETATM   20  O3  UNL     1      11.828  40.216  39.610  1.00  0.00    -0.286 OA
HETATM   21  C22 UNL     1      11.929  38.735  37.800  1.00  0.00     0.024 A 
HETATM   22  C18 UNL     1       8.078  40.880  34.869  1.00  0.00     0.194 C 
HETATM   23  O2  UNL     1       7.428  41.868  34.441  1.00  0.00    -0.287 OA
HETATM   24  C20 UNL     1       6.881  39.803  33.212  1.00  0.00     0.027 A 
BRANCH  16  25
HETATM   25  O1  UNL     1      10.276  42.077  39.755  1.00  0.00    -0.355 OA
HETATM   26  C14 UNL     1       9.427  42.728  40.672  1.00  0.00     0.210 C 
ENDBRANCH  16  25
BRANCH  21  27
HETATM   27  C23 UNL     1      12.911  38.023  38.324  1.00  0.00     0.080 C 
BRANCH  27  28
HETATM   28  C24 UNL     1      12.581  36.938  39.204  1.00  0.00    -0.078 C 
HETATM   29  C25 UNL     1      12.323  36.031  39.954  1.00  0.00    -0.102 C 
BRANCH  29  30
HETATM   30  C26 UNL     1      12.030  34.925  40.883  1.00  0.00     0.090 C 
HETATM   31  C27 UNL     1      11.764  35.478  42.285  1.00  0.00     0.018 C 
ENDBRANCH  29  30
ENDBRANCH  27  28
ENDBRANCH  21  27
ENDBRANCH   4   5
ENDBRANCH   3   4
BRANCH   3  32
HETATM   32  N1  UNL     1       4.788  37.451  29.627  1.00  0.00    -0.400 N 
ATOM     33  H1  UNL     1       5.253  36.703  29.114  1.00  0.00     0.155 HD
BRANCH  32  34
HETATM   34  C29 UNL     1       3.986  38.394  28.948  1.00  0.00     0.077 C 
HETATM   35  C30 UNL     1       4.703  39.518  28.295  1.00  0.00     0.032 C 
BRANCH  34  36
HETATM   36  C31 UNL     1       3.092  37.679  27.921  1.00  0.00     0.050 C 
BRANCH  36  37
HETATM   37  C32 UNL     1       3.491  38.131  26.566  1.00  0.00    -0.035 C 
HETATM   38  C33 UNL     1       3.109  37.472  25.490  1.00  0.00     0.007 C 
ENDBRANCH  36  37
ENDBRANCH  34  36
ENDBRANCH  32  34
ENDBRANCH   3  32
TORSDOF 10
ENDMDL
MODEL 5
REMARK VINA RESULT: -7.681130646      1.098      1.443
REMARK  10 active torsions:
REMARK  status: ('A' for Active; 'I' for Inactive)
REMARK    1  A    between atoms: C3_3  and  C4_4 
REMARK    2  A    between atoms: C3_3  and  N1_32 
REMARK    3  A    between atoms: C4_4  and  C5_5 
REMARK    4  A    between atoms: C13_13  and  O1_14 
REMARK    5  A    between atoms: C22_25  and  C23_26 
REMARK    6  A    between atoms: C23_26  and  C24_27 
REMARK    7  A    between atoms: C25_28  and  C26_29 
REMARK    8  A    between atoms: N1_32  and  C29_34 
REMARK    9  A    between atoms: C29_34  and  C31_36 
REMARK   10  A    between atoms: C31_36  and  C32_37 
ROOT
HETATM    1  C1  UNL     1       3.463  38.304  25.717  1.00  0.00     0.014 C 
HETATM    2  C2  UNL     1       3.493  38.391  26.906  1.00  0.00    -0.088 C 
HETATM    3  C3  UNL     1       3.505  38.492  28.371  1.00  0.00     0.180 C 
ENDROOT
BRANCH   3   4
HETATM    4  C4  UNL     1       3.830  37.288  29.090  1.00  0.00     0.022 C 
BRANCH   4   5
HETATM    5  C5  UNL     1       4.396  37.247  30.299  1.00  0.00    -0.036 A 
HETATM    6  C6  UNL     1       5.577  37.937  30.533  1.00  0.00     0.012 A 
HETATM    7  C7  UNL     1       6.229  37.932  31.748  1.00  0.00     0.013 A 
HETATM    8  C8  UNL     1       5.706  37.211  32.805  1.00  0.00    -0.021 A 
HETATM    9  C9  UNL     1       6.489  37.315  33.955  1.00  0.00     0.024 C 
HETATM   10  C19 UNL     1       4.534  36.517  32.591  1.00  0.00     0.026 A 
HETATM   11  C10 UNL     1       6.498  36.425  35.024  1.00  0.00    -0.022 A 
HETATM   12  C11 UNL     1       5.572  35.446  35.374  1.00  0.00     0.005 A 
HETATM   13  C28 UNL     1       7.604  36.645  35.733  1.00  0.00     0.028 A 
HETATM   14  C12 UNL     1       5.806  34.676  36.495  1.00  0.00     0.060 A 
HETATM   15  C17 UNL     1       4.393  35.165  34.673  1.00  0.00     0.027 A 
HETATM   16  C13 UNL     1       4.937  33.677  36.923  1.00  0.00     0.083 A 
HETATM   17  C21 UNL     1       6.995  34.856  37.328  1.00  0.00     0.196 A 
HETATM   18  C15 UNL     1       3.788  33.430  36.209  1.00  0.00     0.039 A 
HETATM   19  C16 UNL     1       3.530  34.183  35.086  1.00  0.00     0.019 A 
HETATM   20  O3  UNL     1       7.243  34.184  38.346  1.00  0.00    -0.286 OA
HETATM   21  C22 UNL     1       7.941  35.900  36.915  1.00  0.00     0.024 A 
HETATM   22  C18 UNL     1       3.873  35.746  33.530  1.00  0.00     0.194 C 
HETATM   23  O2  UNL     1       2.655  35.582  33.265  1.00  0.00    -0.287 OA
HETATM   24  C20 UNL     1       3.891  36.535  31.359  1.00  0.00     0.027 A 
BRANCH  16  25
HETATM   25  O1  UNL     1       5.192  32.919  38.048  1.00  0.00    -0.355 OA
HETATM   26  C14 UNL     1       4.246  31.961  38.464  1.00  0.00     0.210 C 
ENDBRANCH  16  25
BRANCH  21  27
HETATM   27  C23 UNL     1       9.044  36.141  37.600  1.00  0.00     0.080 C 
BRANCH  27  28
HETATM   28  C24 UNL     1       9.599  37.465  37.570  1.00  0.00    -0.078 C 
HETATM   29  C25 UNL     1      10.061  38.577  37.523  1.00  0.00    -0.102 C 
BRANCH  29  30
HETATM   30  C26 UNL     1      10.623  39.937  37.439  1.00  0.00     0.090 C 
HETATM   31  C27 UNL     1       9.684  40.842  36.638  1.00  0.00     0.018 C 
ENDBRANCH  29  30
ENDBRANCH  27  28
ENDBRANCH  21  27
ENDBRANCH   4   5
ENDBRANCH   3   4
BRANCH   3  32
HETATM   32  N1  UNL     1       2.330  39.160  28.772  1.00  0.00    -0.400 N 
ATOM     33  H1  UNL     1       1.434  38.932  28.343  1.00  0.00     0.155 HD
BRANCH  32  34
HETATM   34  C29 UNL     1       2.411  40.150  29.776  1.00  0.00     0.077 C 
HETATM   35  C30 UNL     1       1.678  41.414  29.514  1.00  0.00     0.032 C 
BRANCH  34  36
HETATM   36  C31 UNL     1       1.972  39.562  31.127  1.00  0.00     0.050 C 
BRANCH  36  37
HETATM   37  C32 UNL     1       2.876  40.090  32.178  1.00  0.00    -0.035 C 
HETATM   38  C33 UNL     1       2.848  39.607  33.404  1.00  0.00     0.007 C 
ENDBRANCH  36  37
ENDBRANCH  34  36
ENDBRANCH  32  34
ENDBRANCH   3  32
TORSDOF 10
ENDMDL
