MODEL 1
REMARK VINA RESULT: -7.921868372      0.000      0.000
REMARK  8 active torsions:
REMARK  status: ('A' for Active; 'I' for Inactive)
REMARK    1  A    between atoms: C2_2  and  N1_3 
REMARK    2  A    between atoms: N1_3  and  C3_4 
REMARK    3  A    between atoms: N1_3  and  C5_6 
REMARK    4  A    between atoms: C5_6  and  C7_8 
REMARK    5  A    between atoms: C7_8  and  N2_9 
REMARK       I    between atoms: N2_9  and  C8_11 
REMARK    6  A    between atoms: C8_11  and  C9_13 
REMARK    7  A    between atoms: N3_19  and  C15_20 
REMARK    8  A    between atoms: C15_20  and  C16_21 
ROOT
HETATM    1  C9  UNL     1       9.224  37.003  34.827  1.00  0.00     0.173 C 
HETATM    2  C10 UNL     1       9.332  37.973  33.676  1.00  0.00     0.038 C 
HETATM    3  C11 UNL     1      10.652  37.833  32.940  1.00  0.00     0.009 C 
HETATM    4  C12 UNL     1      10.357  38.449  31.602  1.00  0.00     0.002 C 
HETATM    5  C13 UNL     1       8.839  38.695  31.556  1.00  0.00     0.027 C 
HETATM    6  C14 UNL     1       8.374  37.671  32.553  1.00  0.00     0.108 C 
HETATM    7  N3  UNL     1       7.013  37.714  32.926  1.00  0.00    -0.272 N 
HETATM    8  S1  UNL     1       6.694  37.099  34.490  1.00  0.00     0.305 S 
HETATM    9  O2  UNL     1       5.454  37.621  35.120  1.00  0.00    -0.188 OA
HETATM   10  O3  UNL     1       6.585  35.604  34.382  1.00  0.00    -0.188 OA
HETATM   11  N4  UNL     1       8.051  37.370  35.575  1.00  0.00    -0.183 NA
HETATM   12  C26 UNL     1       7.858  36.492  36.731  1.00  0.00     0.132 C 
ENDROOT
BRANCH   1  13
HETATM   13  C8  UNL     1      10.489  37.066  35.646  1.00  0.00     0.240 C 
HETATM   14  N2  UNL     1      10.908  38.200  36.314  1.00  0.00    -0.337 N 
ATOM     15  H2  UNL     1      10.291  39.003  36.196  1.00  0.00     0.167 HD
HETATM   16  O1  UNL     1      11.142  35.997  35.671  1.00  0.00    -0.271 OA
BRANCH  14  17
HETATM   17  C7  UNL     1      12.028  38.454  37.126  1.00  0.00     0.099 C 
BRANCH  17  18
HETATM   18  C5  UNL     1      12.002  38.255  38.591  1.00  0.00     0.257 C 
HETATM   19  C6  UNL     1      10.688  38.086  39.272  1.00  0.00     0.049 C 
BRANCH  18  20
HETATM   20  N1  UNL     1      12.798  37.080  38.969  1.00  0.00     0.096 N 
BRANCH  20  21
HETATM   21  C2  UNL     1      12.051  35.891  39.160  1.00  0.00     0.269 C 
HETATM   22  C1  UNL     1      12.405  35.174  40.455  1.00  0.00     0.037 C 
ENDBRANCH  20  21
BRANCH  20  23
HETATM   23  C3  UNL     1      14.002  36.923  38.230  1.00  0.00     0.269 C 
HETATM   24  C4  UNL     1      15.000  37.988  38.594  1.00  0.00     0.037 C 
ENDBRANCH  20  23
ENDBRANCH  18  20
ENDBRANCH  17  18
ENDBRANCH  14  17
ENDBRANCH   1  13
BRANCH   7  25
HETATM   25  C15 UNL     1       6.193  38.756  32.483  1.00  0.00     0.087 C 
BRANCH  25  26
HETATM   26  C16 UNL     1       5.084  38.437  31.539  1.00  0.00    -0.006 C 
HETATM   27  C17 UNL     1       5.470  38.814  30.115  1.00  0.00     0.019 C 
HETATM   28  C18 UNL     1       4.299  38.639  29.176  1.00  0.00    -0.013 C 
HETATM   29  C19 UNL     1       3.116  39.483  29.569  1.00  0.00     0.009 C 
HETATM   30  C23 UNL     1       3.898  37.199  29.175  1.00  0.00     0.009 C 
HETATM   31  C20 UNL     1       2.731  39.104  30.975  1.00  0.00    -0.013 C 
HETATM   32  C21 UNL     1       2.308  37.656  30.999  1.00  0.00     0.009 C 
HETATM   33  C25 UNL     1       3.883  39.329  31.896  1.00  0.00     0.019 C 
HETATM   34  C22 UNL     1       3.488  36.829  30.579  1.00  0.00    -0.013 C 
HETATM   35  C24 UNL     1       4.590  37.019  31.591  1.00  0.00     0.019 C 
ENDBRANCH  25  26
ENDBRANCH   7  25
TORSDOF 8
ENDMDL
MODEL 2
REMARK VINA RESULT: -7.910390948      1.770      9.399
REMARK  8 active torsions:
REMARK  status: ('A' for Active; 'I' for Inactive)
REMARK    1  A    between atoms: C2_2  and  N1_3 
REMARK    2  A    between atoms: N1_3  and  C3_4 
REMARK    3  A    between atoms: N1_3  and  C5_6 
REMARK    4  A    between atoms: C5_6  and  C7_8 
REMARK    5  A    between atoms: C7_8  and  N2_9 
REMARK       I    between atoms: N2_9  and  C8_11 
REMARK    6  A    between atoms: C8_11  and  C9_13 
REMARK    7  A    between atoms: N3_19  and  C15_20 
REMARK    8  A    between atoms: C15_20  and  C16_21 
ROOT
HETATM    1  C9  UNL     1       7.222  38.525  33.732  1.00  0.00     0.173 C 
HETATM    2  C10 UNL     1       8.548  37.944  33.306  1.00  0.00     0.038 C 
HETATM    3  C11 UNL     1       9.163  38.721  32.157  1.00  0.00     0.009 C 
HETATM    4  C12 UNL     1      10.617  38.350  32.244  1.00  0.00     0.002 C 
HETATM    5  C13 UNL     1      10.797  37.578  33.562  1.00  0.00     0.027 C 
HETATM    6  C14 UNL     1       9.628  38.110  34.343  1.00  0.00     0.108 C 
HETATM    7  N3  UNL     1       9.348  37.486  35.577  1.00  0.00    -0.272 N 
HETATM    8  S1  UNL     1       7.707  37.578  36.054  1.00  0.00     0.305 S 
HETATM    9  O2  UNL     1       7.272  36.510  36.990  1.00  0.00    -0.188 OA
HETATM   10  O3  UNL     1       7.495  38.911  36.714  1.00  0.00    -0.188 OA
HETATM   11  N4  UNL     1       6.635  37.595  34.660  1.00  0.00    -0.183 NA
HETATM   12  C26 UNL     1       5.329  38.062  35.130  1.00  0.00     0.132 C 
ENDROOT
BRANCH   1  13
HETATM   13  C8  UNL     1       6.369  38.755  32.509  1.00  0.00     0.240 C 
HETATM   14  N2  UNL     1       6.326  37.887  31.437  1.00  0.00    -0.337 N 
ATOM     15  H2  UNL     1       6.935  37.075  31.535  1.00  0.00     0.167 HD
HETATM   16  O1  UNL     1       5.695  39.811  32.541  1.00  0.00    -0.271 OA
BRANCH  14  17
HETATM   17  C7  UNL     1       5.600  37.914  30.232  1.00  0.00     0.099 C 
BRANCH  17  18
HETATM   18  C5  UNL     1       4.259  37.302  30.105  1.00  0.00     0.257 C 
HETATM   19  C6  UNL     1       3.563  36.831  31.335  1.00  0.00     0.049 C 
BRANCH  18  20
HETATM   20  N1  UNL     1       3.327  38.229  29.451  1.00  0.00     0.096 N 
BRANCH  20  21
HETATM   21  C2  UNL     1       2.768  39.213  30.306  1.00  0.00     0.269 C 
HETATM   22  C1  UNL     1       2.650  40.575  29.638  1.00  0.00     0.037 C 
ENDBRANCH  20  21
BRANCH  20  23
HETATM   23  C3  UNL     1       3.763  38.708  28.187  1.00  0.00     0.269 C 
HETATM   24  C4  UNL     1       3.474  37.706  27.103  1.00  0.00     0.037 C 
ENDBRANCH  20  23
ENDBRANCH  18  20
ENDBRANCH  17  18
ENDBRANCH  14  17
ENDBRANCH   1  13
BRANCH   7  25
HETATM   25  C15 UNL     1      10.048  36.340  35.965  1.00  0.00     0.087 C 
BRANCH  25  26
HETATM   26  C16 UNL     1      11.043  36.453  37.070  1.00  0.00    -0.006 C 
HETATM   27  C17 UNL     1      10.400  36.102  38.405  1.00  0.00     0.019 C 
HETATM   28  C18 UNL     1      11.356  36.362  39.547  1.00  0.00    -0.013 C 
HETATM   29  C19 UNL     1      11.794  37.800  39.613  1.00  0.00     0.009 C 
HETATM   30  C23 UNL     1      12.555  35.488  39.373  1.00  0.00     0.009 C 
HETATM   31  C20 UNL     1      12.437  38.143  38.294  1.00  0.00    -0.013 C 
HETATM   32  C21 UNL     1      13.661  37.283  38.101  1.00  0.00     0.009 C 
HETATM   33  C25 UNL     1      11.464  37.927  37.184  1.00  0.00     0.019 C 
HETATM   34  C22 UNL     1      13.211  35.850  38.065  1.00  0.00    -0.013 C 
HETATM   35  C24 UNL     1      12.307  35.664  36.873  1.00  0.00     0.019 C 
ENDBRANCH  25  26
ENDBRANCH   7  25
TORSDOF 8
ENDMDL
MODEL 3
REMARK VINA RESULT: -7.877697686      1.768      9.414
REMARK  8 active torsions:
REMARK  status: ('A' for Active; 'I' for Inactive)
REMARK    1  A    between atoms: C2_2  and  N1_3 
REMARK    2  A    between atoms: N1_3  and  C3_4 
REMARK    3  A    between atoms: N1_3  and  C5_6 
REMARK    4  A    between atoms: C5_6  and  C7_8 
REMARK    5  A    between atoms: C7_8  and  N2_9 
REMARK       I    between atoms: N2_9  and  C8_11 
REMARK    6  A    between atoms: C8_11  and  C9_13 
REMARK    7  A    between atoms: N3_19  and  C15_20 
REMARK    8  A    between atoms: C15_20  and  C16_21 
ROOT
HETATM    1  C9  UNL     1       7.227  38.564  33.766  1.00  0.00     0.173 C 
HETATM    2  C10 UNL     1       8.555  37.975  33.359  1.00  0.00     0.038 C 
HETATM    3  C11 UNL     1       9.171  38.720  32.189  1.00  0.00     0.009 C 
HETATM    4  C12 UNL     1      10.625  38.355  32.289  1.00  0.00     0.002 C 
HETATM    5  C13 UNL     1      10.804  37.621  33.628  1.00  0.00     0.027 C 
HETATM    6  C14 UNL     1       9.634  38.173  34.392  1.00  0.00     0.108 C 
HETATM    7  N3  UNL     1       9.352  37.583  35.643  1.00  0.00    -0.272 N 
HETATM    8  S1  UNL     1       7.710  37.685  36.114  1.00  0.00     0.305 S 
HETATM    9  O2  UNL     1       7.276  36.643  37.080  1.00  0.00    -0.188 OA
HETATM   10  O3  UNL     1       7.494  39.036  36.736  1.00  0.00    -0.188 OA
HETATM   11  N4  UNL     1       6.640  37.660  34.719  1.00  0.00    -0.183 NA
HETATM   12  C26 UNL     1       5.333  38.137  35.173  1.00  0.00     0.132 C 
ENDROOT
BRANCH   1  13
HETATM   13  C8  UNL     1       6.376  38.757  32.535  1.00  0.00     0.240 C 
HETATM   14  N2  UNL     1       6.352  37.869  31.479  1.00  0.00    -0.337 N 
ATOM     15  H2  UNL     1       6.974  37.070  31.595  1.00  0.00     0.167 HD
HETATM   16  O1  UNL     1       5.684  39.803  32.545  1.00  0.00    -0.271 OA
BRANCH  14  17
HETATM   17  C7  UNL     1       5.631  37.862  30.271  1.00  0.00     0.099 C 
BRANCH  17  18
HETATM   18  C5  UNL     1       4.284  37.261  30.160  1.00  0.00     0.257 C 
HETATM   19  C6  UNL     1       3.598  36.797  31.398  1.00  0.00     0.049 C 
BRANCH  18  20
HETATM   20  N1  UNL     1       3.352  38.196  29.517  1.00  0.00     0.096 N 
BRANCH  20  21
HETATM   21  C2  UNL     1       2.792  39.169  30.382  1.00  0.00     0.269 C 
HETATM   22  C1  UNL     1       2.614  40.523  29.710  1.00  0.00     0.037 C 
ENDBRANCH  20  21
BRANCH  20  23
HETATM   23  C3  UNL     1       3.789  38.689  28.258  1.00  0.00     0.269 C 
HETATM   24  C4  UNL     1       3.487  37.707  27.160  1.00  0.00     0.037 C 
ENDBRANCH  20  23
ENDBRANCH  18  20
ENDBRANCH  17  18
ENDBRANCH  14  17
ENDBRANCH   1  13
BRANCH   7  25
HETATM   25  C15 UNL     1      10.055  36.451  36.064  1.00  0.00     0.087 C 
BRANCH  25  26
HETATM   26  C16 UNL     1      10.991  36.581  37.217  1.00  0.00    -0.006 C 
HETATM   27  C17 UNL     1      11.536  38.000  37.306  1.00  0.00     0.019 C 
HETATM   28  C18 UNL     1      12.600  38.102  38.375  1.00  0.00    -0.013 C 
HETATM   29  C19 UNL     1      13.762  37.180  38.118  1.00  0.00     0.009 C 
HETATM   30  C23 UNL     1      11.985  37.765  39.694  1.00  0.00     0.009 C 
HETATM   31  C20 UNL     1      13.222  35.775  38.038  1.00  0.00    -0.013 C 
HETATM   32  C21 UNL     1      12.607  35.405  39.365  1.00  0.00     0.009 C 
HETATM   33  C25 UNL     1      12.208  35.682  36.947  1.00  0.00     0.019 C 
HETATM   34  C22 UNL     1      11.468  36.350  39.621  1.00  0.00    -0.013 C 
HETATM   35  C24 UNL     1      10.431  36.150  38.544  1.00  0.00     0.019 C 
ENDBRANCH  25  26
ENDBRANCH   7  25
TORSDOF 8
ENDMDL
MODEL 4
REMARK VINA RESULT: -7.876731926      1.771      9.419
REMARK  8 active torsions:
REMARK  status: ('A' for Active; 'I' for Inactive)
REMARK    1  A    between atoms: C2_2  and  N1_3 
REMARK    2  A    between atoms: N1_3  and  C3_4 
REMARK    3  A    between atoms: N1_3  and  C5_6 
REMARK    4  A    between atoms: C5_6  and  C7_8 
REMARK    5  A    between atoms: C7_8  and  N2_9 
REMARK       I    between atoms: N2_9  and  C8_11 
REMARK    6  A    between atoms: C8_11  and  C9_13 
REMARK    7  A    between atoms: N3_19  and  C15_20 
REMARK    8  A    between atoms: C15_20  and  C16_21 
ROOT
HETATM    1  C9  UNL     1       7.224  38.573  33.773  1.00  0.00     0.173 C 
HETATM    2  C10 UNL     1       8.552  37.979  33.369  1.00  0.00     0.038 C 
HETATM    3  C11 UNL     1       9.168  38.717  32.196  1.00  0.00     0.009 C 
HETATM    4  C12 UNL     1      10.622  38.351  32.297  1.00  0.00     0.002 C 
HETATM    5  C13 UNL     1      10.801  37.625  33.641  1.00  0.00     0.027 C 
HETATM    6  C14 UNL     1       9.631  38.182  34.401  1.00  0.00     0.108 C 
HETATM    7  N3  UNL     1       9.349  37.600  35.656  1.00  0.00    -0.272 N 
HETATM    8  S1  UNL     1       7.707  37.706  36.127  1.00  0.00     0.305 S 
HETATM    9  O2  UNL     1       7.272  36.671  37.099  1.00  0.00    -0.188 OA
HETATM   10  O3  UNL     1       7.493  39.061  36.741  1.00  0.00    -0.188 OA
HETATM   11  N4  UNL     1       6.637  37.675  34.732  1.00  0.00    -0.183 NA
HETATM   12  C26 UNL     1       5.330  38.156  35.183  1.00  0.00     0.132 C 
ENDROOT
BRANCH   1  13
HETATM   13  C8  UNL     1       6.373  38.760  32.542  1.00  0.00     0.240 C 
HETATM   14  N2  UNL     1       6.350  37.867  31.489  1.00  0.00    -0.337 N 
ATOM     15  H2  UNL     1       6.973  37.069  31.609  1.00  0.00     0.167 HD
HETATM   16  O1  UNL     1       5.681  39.805  32.547  1.00  0.00    -0.271 OA
BRANCH  14  17
HETATM   17  C7  UNL     1       5.629  37.854  30.282  1.00  0.00     0.099 C 
BRANCH  17  18
HETATM   18  C5  UNL     1       4.276  37.266  30.177  1.00  0.00     0.257 C 
HETATM   19  C6  UNL     1       3.591  36.810  31.419  1.00  0.00     0.049 C 
BRANCH  18  20
HETATM   20  N1  UNL     1       3.350  38.208  29.535  1.00  0.00     0.096 N 
BRANCH  20  21
HETATM   21  C2  UNL     1       2.798  39.184  30.403  1.00  0.00     0.269 C 
HETATM   22  C1  UNL     1       2.589  40.528  29.721  1.00  0.00     0.037 C 
ENDBRANCH  20  21
BRANCH  20  23
HETATM   23  C3  UNL     1       3.790  38.700  28.277  1.00  0.00     0.269 C 
HETATM   24  C4  UNL     1       3.477  37.724  27.177  1.00  0.00     0.037 C 
ENDBRANCH  20  23
ENDBRANCH  18  20
ENDBRANCH  17  18
ENDBRANCH  14  17
ENDBRANCH   1  13
BRANCH   7  25
HETATM   25  C15 UNL     1      10.050  36.470  36.083  1.00  0.00     0.087 C 
BRANCH  25  26
HETATM   26  C16 UNL     1      11.085  36.632  37.145  1.00  0.00    -0.006 C 
HETATM   27  C17 UNL     1      12.243  35.670  36.914  1.00  0.00     0.019 C 
HETATM   28  C18 UNL     1      13.220  35.718  38.066  1.00  0.00    -0.013 C 
HETATM   29  C19 UNL     1      12.579  35.356  39.379  1.00  0.00     0.009 C 
HETATM   30  C23 UNL     1      13.784  37.099  38.157  1.00  0.00     0.009 C 
HETATM   31  C20 UNL     1      11.438  36.313  39.610  1.00  0.00    -0.013 C 
HETATM   32  C21 UNL     1      11.983  37.715  39.719  1.00  0.00     0.009 C 
HETATM   33  C25 UNL     1      10.460  36.217  38.487  1.00  0.00     0.019 C 
HETATM   34  C22 UNL     1      12.643  38.052  38.413  1.00  0.00    -0.013 C 
HETATM   35  C24 UNL     1      11.595  38.033  37.329  1.00  0.00     0.019 C 
ENDBRANCH  25  26
ENDBRANCH   7  25
TORSDOF 8
ENDMDL
MODEL 5
REMARK VINA RESULT: -7.832734088      0.855      1.542
REMARK  8 active torsions:
REMARK  status: ('A' for Active; 'I' for Inactive)
REMARK    1  A    between atoms: C2_2  and  N1_3 
REMARK    2  A    between atoms: N1_3  and  C3_4 
REMARK    3  A    between atoms: N1_3  and  C5_6 
REMARK    4  A    between atoms: C5_6  and  C7_8 
REMARK    5  A    between atoms: C7_8  and  N2_9 
REMARK       I    between atoms: N2_9  and  C8_11 
REMARK    6  A    between atoms: C8_11  and  C9_13 
REMARK    7  A    between atoms: N3_19  and  C15_20 
REMARK    8  A    between atoms: C15_20  and  C16_21 
ROOT
HETATM    1  C9  UNL     1       9.043  37.118  35.113  1.00  0.00     0.173 C 
HETATM    2  C10 UNL     1       9.288  37.999  33.913  1.00  0.00     0.038 C 
HETATM    3  C11 UNL     1      10.657  37.759  33.304  1.00  0.00     0.009 C 
HETATM    4  C12 UNL     1      10.500  38.290  31.908  1.00  0.00     0.002 C 
HETATM    5  C13 UNL     1       9.003  38.587  31.715  1.00  0.00     0.027 C 
HETATM    6  C14 UNL     1       8.414  37.655  32.735  1.00  0.00     0.108 C 
HETATM    7  N3  UNL     1       7.030  37.774  32.986  1.00  0.00    -0.272 N 
HETATM    8  S1  UNL     1       6.556  37.283  34.555  1.00  0.00     0.305 S 
HETATM    9  O2  UNL     1       5.291  37.893  35.040  1.00  0.00    -0.188 OA
HETATM   10  O3  UNL     1       6.393  35.789  34.538  1.00  0.00    -0.188 OA
HETATM   11  N4  UNL     1       7.828  37.579  35.732  1.00  0.00    -0.183 NA
HETATM   12  C26 UNL     1       7.503  36.792  36.923  1.00  0.00     0.132 C 
ENDROOT
BRANCH   1  13
HETATM   13  C8  UNL     1      10.237  37.191  36.031  1.00  0.00     0.240 C 
HETATM   14  N2  UNL     1      10.908  36.079  36.499  1.00  0.00    -0.337 N 
ATOM     15  H2  UNL     1      10.517  35.194  36.178  1.00  0.00     0.167 HD
HETATM   16  O1  UNL     1      10.576  38.356  36.345  1.00  0.00    -0.271 OA
BRANCH  14  17
HETATM   17  C7  UNL     1      12.030  35.939  37.335  1.00  0.00     0.099 C 
BRANCH  17  18
HETATM   18  C5  UNL     1      12.006  36.332  38.760  1.00  0.00     0.257 C 
HETATM   19  C6  UNL     1      12.473  35.357  39.785  1.00  0.00     0.049 C 
BRANCH  18  20
HETATM   20  N1  UNL     1      12.802  37.547  38.976  1.00  0.00     0.096 N 
BRANCH  20  21
HETATM   21  C2  UNL     1      13.721  37.848  37.939  1.00  0.00     0.269 C 
HETATM   22  C1  UNL     1      15.165  37.870  38.419  1.00  0.00     0.037 C 
ENDBRANCH  20  21
BRANCH  20  23
HETATM   23  C3  UNL     1      12.061  38.657  39.465  1.00  0.00     0.269 C 
HETATM   24  C4  UNL     1      12.631  39.154  40.765  1.00  0.00     0.037 C 
ENDBRANCH  20  23
ENDBRANCH  18  20
ENDBRANCH  17  18
ENDBRANCH  14  17
ENDBRANCH   1  13
BRANCH   7  25
HETATM   25  C15 UNL     1       6.295  38.812  32.406  1.00  0.00     0.087 C 
BRANCH  25  26
HETATM   26  C16 UNL     1       5.192  38.464  31.465  1.00  0.00    -0.006 C 
HETATM   27  C17 UNL     1       5.570  38.839  30.038  1.00  0.00     0.019 C 
HETATM   28  C18 UNL     1       4.402  38.633  29.101  1.00  0.00    -0.013 C 
HETATM   29  C19 UNL     1       3.202  39.455  29.488  1.00  0.00     0.009 C 
HETATM   30  C23 UNL     1       4.032  37.185  29.110  1.00  0.00     0.009 C 
HETATM   31  C20 UNL     1       2.825  39.077  30.897  1.00  0.00    -0.013 C 
HETATM   32  C21 UNL     1       2.433  37.621  30.931  1.00  0.00     0.009 C 
HETATM   33  C25 UNL     1       3.973  39.332  31.816  1.00  0.00     0.019 C 
HETATM   34  C22 UNL     1       3.630  36.815  30.516  1.00  0.00    -0.013 C 
HETATM   35  C24 UNL     1       4.728  37.035  31.526  1.00  0.00     0.019 C 
ENDBRANCH  25  26
ENDBRANCH   7  25
TORSDOF 8
ENDMDL
