MODEL 1
REMARK VINA RESULT: -8.271963492      0.000      0.000
REMARK  8 active torsions:
REMARK  status: ('A' for Active; 'I' for Inactive)
REMARK       I    between atoms: C2_2  and  N1_4 
REMARK    1  A    between atoms: C5_7  and  C6_8 
REMARK    2  A    between atoms: C6_8  and  C7_9 
REMARK    3  A    between atoms: C6_8  and  C14_20 
REMARK    4  A    between atoms: C7_9  and  C8_10 
REMARK    5  A    between atoms: C11_13  and  N2_14 
REMARK       I    between atoms: C14_20  and  N3_22 
REMARK    6  A    between atoms: C16_24  and  C17_25 
REMARK    7  A    between atoms: C21_29  and  C22_30 
REMARK       I    between atoms: C22_30  and  N4_32 
REMARK    8  A    between atoms: N4_32  and  C24_34 
ROOT
HETATM    1  C6  UNL     1       4.160  36.687  33.120  1.00  0.00     0.082 C 
ENDROOT
BRANCH   1   2
HETATM    2  C5  UNL     1       4.160  35.521  34.027  1.00  0.00     0.002 C 
HETATM    3  C4  UNL     1       5.400  35.037  34.649  1.00  0.00     0.025 C 
HETATM    4  C3  UNL     1       5.255  34.696  36.156  1.00  0.00     0.126 C 
HETATM    5  N1  UNL     1       4.146  33.793  36.257  1.00  0.00    -0.352 N 
HETATM    6  C2  UNL     1       4.255  32.504  36.784  1.00  0.00     0.215 C 
HETATM    7  C28 UNL     1       2.873  34.282  35.777  1.00  0.00     0.126 C 
HETATM    8  C1  UNL     1       3.084  31.594  36.873  1.00  0.00     0.117 C 
HETATM    9  O1  UNL     1       5.404  32.122  37.193  1.00  0.00    -0.274 OA
HETATM   10  C27 UNL     1       3.084  35.663  35.120  1.00  0.00     0.025 C 
ENDBRANCH   1   2
BRANCH   1  11
HETATM   11  C7  UNL     1       3.015  37.323  32.512  1.00  0.00     0.019 C 
BRANCH  11  12
HETATM   12  C8  UNL     1       2.759  37.617  31.099  1.00  0.00    -0.014 C 
HETATM   13  C9  UNL     1       4.043  37.164  30.292  1.00  0.00     0.007 C 
HETATM   14  C10 UNL     1       3.693  37.248  28.830  1.00  0.00     0.033 C 
HETATM   15  C11 UNL     1       3.136  38.625  28.502  1.00  0.00     0.183 C 
HETATM   16  C12 UNL     1       3.536  39.502  29.664  1.00  0.00     0.033 C 
HETATM   17  C13 UNL     1       2.667  39.104  30.852  1.00  0.00     0.007 C 
BRANCH  15  18
HETATM   18  N2  UNL     1       3.593  39.106  27.233  1.00  0.00    -0.075 N 
ATOM     19  H23 UNL     1       4.240  38.447  26.800  1.00  0.00     0.274 HD
ATOM     20  H22 UNL     1       2.846  39.080  26.539  1.00  0.00     0.274 HD
ATOM     21  H21 UNL     1       4.003  40.038  27.299  1.00  0.00     0.274 HD
ENDBRANCH  15  18
ENDBRANCH  11  12
ENDBRANCH   1  11
BRANCH   1  22
HETATM   22  C14 UNL     1       4.828  37.798  33.946  1.00  0.00     0.225 C 
HETATM   23  O2  UNL     1       4.175  38.152  34.942  1.00  0.00    -0.273 OA
HETATM   24  N3  UNL     1       6.066  38.360  33.599  1.00  0.00    -0.338 N 
HETATM   25  C15 UNL     1       6.929  38.036  32.477  1.00  0.00     0.132 C 
HETATM   26  C21 UNL     1       6.703  39.413  34.360  1.00  0.00     0.179 C 
HETATM   27  C16 UNL     1       8.324  38.404  32.959  1.00  0.00     0.009 C 
HETATM   28  C20 UNL     1       8.035  39.657  33.732  1.00  0.00     0.041 C 
BRANCH  27  29
HETATM   29  C17 UNL     1       9.254  38.675  31.802  1.00  0.00    -0.017 C 
HETATM   30  C18 UNL     1       8.768  37.885  30.621  1.00  0.00     0.010 C 
HETATM   31  C19 UNL     1      10.626  38.218  32.189  1.00  0.00     0.010 C 
ENDBRANCH  27  29
BRANCH  26  32
HETATM   32  C22 UNL     1       5.857  40.627  34.374  1.00  0.00     0.242 C 
HETATM   33  O3  UNL     1       5.176  40.905  33.368  1.00  0.00    -0.271 OA
HETATM   34  N4  UNL     1       5.820  41.462  35.515  1.00  0.00    -0.350 N 
HETATM   35  C23 UNL     1       6.599  41.175  36.711  1.00  0.00     0.153 C 
BRANCH  34  36
HETATM   36  C24 UNL     1       4.997  42.665  35.546  1.00  0.00     0.087 A 
HETATM   37  C25 UNL     1       5.134  43.649  36.655  1.00  0.00     0.027 A 
HETATM   38  C26 UNL     1       5.729  43.927  35.307  1.00  0.00     0.027 A 
ENDBRANCH  34  36
ENDBRANCH  26  32
ENDBRANCH   1  22
TORSDOF 8
ENDMDL
MODEL 2
REMARK VINA RESULT: -8.184580939      2.242      7.043
REMARK  8 active torsions:
REMARK  status: ('A' for Active; 'I' for Inactive)
REMARK       I    between atoms: C2_2  and  N1_4 
REMARK    1  A    between atoms: C5_7  and  C6_8 
REMARK    2  A    between atoms: C6_8  and  C7_9 
REMARK    3  A    between atoms: C6_8  and  C14_20 
REMARK    4  A    between atoms: C7_9  and  C8_10 
REMARK    5  A    between atoms: C11_13  and  N2_14 
REMARK       I    between atoms: C14_20  and  N3_22 
REMARK    6  A    between atoms: C16_24  and  C17_25 
REMARK    7  A    between atoms: C21_29  and  C22_30 
REMARK       I    between atoms: C22_30  and  N4_32 
REMARK    8  A    between atoms: N4_32  and  C24_34 
ROOT
HETATM    1  C6  UNL     1       5.102  39.466  34.095  1.00  0.00     0.082 C 
ENDROOT
BRANCH   1   2
HETATM    2  C5  UNL     1       5.683  40.784  34.427  1.00  0.00     0.002 C 
HETATM    3  C4  UNL     1       4.837  41.905  34.855  1.00  0.00     0.025 C 
HETATM    4  C3  UNL     1       5.402  42.690  36.069  1.00  0.00     0.126 C 
HETATM    5  N1  UNL     1       6.744  43.056  35.719  1.00  0.00    -0.352 N 
HETATM    6  C2  UNL     1       7.184  44.380  35.660  1.00  0.00     0.215 C 
HETATM    7  C28 UNL     1       7.648  41.970  35.419  1.00  0.00     0.126 C 
HETATM    8  C1  UNL     1       8.583  44.722  35.294  1.00  0.00     0.117 C 
HETATM    9  O1  UNL     1       6.342  45.302  35.935  1.00  0.00    -0.274 OA
HETATM   10  C27 UNL     1       6.855  40.645  35.417  1.00  0.00     0.025 C 
ENDBRANCH   1   2
BRANCH   1  11
HETATM   11  C7  UNL     1       3.759  39.009  34.364  1.00  0.00     0.019 C 
BRANCH  11  12
HETATM   12  C8  UNL     1       3.282  37.653  34.649  1.00  0.00    -0.014 C 
HETATM   13  C9  UNL     1       4.503  36.848  35.254  1.00  0.00     0.007 C 
HETATM   14  C10 UNL     1       3.959  35.539  35.760  1.00  0.00     0.033 C 
HETATM   15  C11 UNL     1       3.163  34.844  34.665  1.00  0.00     0.183 C 
HETATM   16  C12 UNL     1       3.574  35.525  33.382  1.00  0.00     0.033 C 
HETATM   17  C13 UNL     1       2.936  36.910  33.380  1.00  0.00     0.007 C 
BRANCH  15  18
HETATM   18  N2  UNL     1       3.374  33.427  34.658  1.00  0.00    -0.075 N 
ATOM     19  H23 UNL     1       3.980  33.149  33.886  1.00  0.00     0.274 HD
ATOM     20  H22 UNL     1       3.963  33.139  35.440  1.00  0.00     0.274 HD
ATOM     21  H21 UNL     1       2.497  32.907  34.645  1.00  0.00     0.274 HD
ENDBRANCH  15  18
ENDBRANCH  11  12
ENDBRANCH   1  11
BRANCH   1  22
HETATM   22  C14 UNL     1       5.246  39.372  32.568  1.00  0.00     0.225 C 
HETATM   23  O2  UNL     1       4.276  39.828  31.938  1.00  0.00    -0.273 OA
HETATM   24  N3  UNL     1       6.375  38.819  31.946  1.00  0.00    -0.338 N 
HETATM   25  C15 UNL     1       7.569  38.263  32.557  1.00  0.00     0.132 C 
HETATM   26  C21 UNL     1       6.520  38.714  30.509  1.00  0.00     0.179 C 
HETATM   27  C16 UNL     1       8.653  38.463  31.508  1.00  0.00     0.009 C 
HETATM   28  C20 UNL     1       7.887  38.172  30.251  1.00  0.00     0.041 C 
BRANCH  27  29
HETATM   29  C17 UNL     1       9.789  37.486  31.696  1.00  0.00    -0.017 C 
HETATM   30  C18 UNL     1       9.362  36.470  32.717  1.00  0.00     0.010 C 
HETATM   31  C19 UNL     1      10.978  38.244  32.200  1.00  0.00     0.010 C 
ENDBRANCH  27  29
BRANCH  26  32
HETATM   32  C22 UNL     1       5.458  37.854  29.942  1.00  0.00     0.242 C 
HETATM   33  O3  UNL     1       5.309  36.699  30.386  1.00  0.00    -0.271 OA
HETATM   34  N4  UNL     1       4.621  38.337  28.909  1.00  0.00    -0.350 N 
HETATM   35  C23 UNL     1       4.760  39.679  28.362  1.00  0.00     0.153 C 
BRANCH  34  36
HETATM   36  C24 UNL     1       3.572  37.503  28.334  1.00  0.00     0.087 A 
HETATM   37  C25 UNL     1       2.414  38.121  27.629  1.00  0.00     0.027 A 
HETATM   38  C26 UNL     1       3.532  37.485  26.856  1.00  0.00     0.027 A 
ENDBRANCH  34  36
ENDBRANCH  26  32
ENDBRANCH   1  22
TORSDOF 8
ENDMDL
MODEL 3
REMARK VINA RESULT: -8.140001158      1.436      1.973
REMARK  8 active torsions:
REMARK  status: ('A' for Active; 'I' for Inactive)
REMARK       I    between atoms: C2_2  and  N1_4 
REMARK    1  A    between atoms: C5_7  and  C6_8 
REMARK    2  A    between atoms: C6_8  and  C7_9 
REMARK    3  A    between atoms: C6_8  and  C14_20 
REMARK    4  A    between atoms: C7_9  and  C8_10 
REMARK    5  A    between atoms: C11_13  and  N2_14 
REMARK       I    between atoms: C14_20  and  N3_22 
REMARK    6  A    between atoms: C16_24  and  C17_25 
REMARK    7  A    between atoms: C21_29  and  C22_30 
REMARK       I    between atoms: C22_30  and  N4_32 
REMARK    8  A    between atoms: N4_32  and  C24_34 
ROOT
HETATM    1  C6  UNL     1       5.014  37.212  33.350  1.00  0.00     0.082 C 
ENDROOT
BRANCH   1   2
HETATM    2  C5  UNL     1       4.544  36.217  34.337  1.00  0.00     0.002 C 
HETATM    3  C4  UNL     1       3.245  35.548  34.187  1.00  0.00     0.025 C 
HETATM    4  C3  UNL     1       3.290  34.021  34.458  1.00  0.00     0.126 C 
HETATM    5  N1  UNL     1       3.899  33.860  35.747  1.00  0.00    -0.352 N 
HETATM    6  C2  UNL     1       3.261  33.234  36.820  1.00  0.00     0.215 C 
HETATM    7  C28 UNL     1       5.236  34.388  35.896  1.00  0.00     0.126 C 
HETATM    8  C1  UNL     1       3.923  33.085  38.142  1.00  0.00     0.117 C 
HETATM    9  O1  UNL     1       2.079  32.786  36.633  1.00  0.00    -0.274 OA
HETATM   10  C27 UNL     1       5.620  35.148  34.608  1.00  0.00     0.025 C 
ENDBRANCH   1   2
BRANCH   1  11
HETATM   11  C7  UNL     1       4.203  38.052  32.500  1.00  0.00     0.019 C 
BRANCH  11  12
HETATM   12  C8  UNL     1       4.389  38.395  31.088  1.00  0.00    -0.014 C 
HETATM   13  C9  UNL     1       3.086  39.163  30.622  1.00  0.00     0.007 C 
HETATM   14  C10 UNL     1       3.370  39.716  29.251  1.00  0.00     0.033 C 
HETATM   15  C11 UNL     1       3.873  38.612  28.333  1.00  0.00     0.183 C 
HETATM   16  C12 UNL     1       3.497  37.322  29.021  1.00  0.00     0.033 C 
HETATM   17  C13 UNL     1       4.427  37.161  30.219  1.00  0.00     0.007 C 
BRANCH  15  18
HETATM   18  N2  UNL     1       3.348  38.730  27.005  1.00  0.00    -0.075 N 
ATOM     19  H23 UNL     1       2.837  37.889  26.735  1.00  0.00     0.274 HD
ATOM     20  H22 UNL     1       2.583  39.404  26.970  1.00  0.00     0.274 HD
ATOM     21  H21 UNL     1       4.071  38.958  26.324  1.00  0.00     0.274 HD
ENDBRANCH  15  18
ENDBRANCH  11  12
ENDBRANCH   1  11
BRANCH   1  22
HETATM   22  C14 UNL     1       5.849  38.196  34.186  1.00  0.00     0.225 C 
HETATM   23  O2  UNL     1       5.176  38.910  34.950  1.00  0.00    -0.273 OA
HETATM   24  N3  UNL     1       7.246  38.276  34.089  1.00  0.00    -0.338 N 
HETATM   25  C15 UNL     1       8.145  37.504  33.251  1.00  0.00     0.132 C 
HETATM   26  C21 UNL     1       8.044  39.204  34.861  1.00  0.00     0.179 C 
HETATM   27  C16 UNL     1       9.462  37.507  34.014  1.00  0.00     0.009 C 
HETATM   28  C20 UNL     1       9.474  38.908  34.551  1.00  0.00     0.041 C 
BRANCH  27  29
HETATM   29  C17 UNL     1      10.633  37.262  33.093  1.00  0.00    -0.017 C 
HETATM   30  C18 UNL     1      10.655  38.361  32.069  1.00  0.00     0.010 C 
HETATM   31  C19 UNL     1      10.428  35.942  32.417  1.00  0.00     0.010 C 
ENDBRANCH  27  29
BRANCH  26  32
HETATM   32  C22 UNL     1       7.676  40.600  34.537  1.00  0.00     0.242 C 
HETATM   33  O3  UNL     1       7.490  40.918  33.346  1.00  0.00    -0.271 OA
HETATM   34  N4  UNL     1       7.536  41.561  35.565  1.00  0.00    -0.350 N 
HETATM   35  C23 UNL     1       7.744  41.233  36.968  1.00  0.00     0.153 C 
BRANCH  34  36
HETATM   36  C24 UNL     1       7.179  42.943  35.264  1.00  0.00     0.087 A 
HETATM   37  C25 UNL     1       7.267  43.995  36.315  1.00  0.00     0.027 A 
HETATM   38  C26 UNL     1       8.314  43.890  35.247  1.00  0.00     0.027 A 
ENDBRANCH  34  36
ENDBRANCH  26  32
ENDBRANCH   1  22
TORSDOF 8
ENDMDL
MODEL 4
REMARK VINA RESULT: -8.050123800      1.079      1.503
REMARK  8 active torsions:
REMARK  status: ('A' for Active; 'I' for Inactive)
REMARK       I    between atoms: C2_2  and  N1_4 
REMARK    1  A    between atoms: C5_7  and  C6_8 
REMARK    2  A    between atoms: C6_8  and  C7_9 
REMARK    3  A    between atoms: C6_8  and  C14_20 
REMARK    4  A    between atoms: C7_9  and  C8_10 
REMARK    5  A    between atoms: C11_13  and  N2_14 
REMARK       I    between atoms: C14_20  and  N3_22 
REMARK    6  A    between atoms: C16_24  and  C17_25 
REMARK    7  A    between atoms: C21_29  and  C22_30 
REMARK       I    between atoms: C22_30  and  N4_32 
REMARK    8  A    between atoms: N4_32  and  C24_34 
ROOT
HETATM    1  C6  UNL     1       4.444  36.982  33.653  1.00  0.00     0.082 C 
ENDROOT
BRANCH   1   2
HETATM    2  C5  UNL     1       4.205  35.934  34.667  1.00  0.00     0.002 C 
HETATM    3  C4  UNL     1       2.930  35.210  34.730  1.00  0.00     0.025 C 
HETATM    4  C3  UNL     1       3.086  33.678  34.925  1.00  0.00     0.126 C 
HETATM    5  N1  UNL     1       3.928  33.505  36.074  1.00  0.00    -0.352 N 
HETATM    6  C2  UNL     1       3.525  32.814  37.219  1.00  0.00     0.215 C 
HETATM    7  C28 UNL     1       5.247  34.091  35.998  1.00  0.00     0.126 C 
HETATM    8  C1  UNL     1       4.424  32.654  38.391  1.00  0.00     0.117 C 
HETATM    9  O1  UNL     1       2.348  32.316  37.233  1.00  0.00    -0.274 OA
HETATM   10  C27 UNL     1       5.356  34.910  34.694  1.00  0.00     0.025 C 
ENDBRANCH   1   2
BRANCH   1  11
HETATM   11  C7  UNL     1       3.462  37.837  33.030  1.00  0.00     0.019 C 
BRANCH  11  12
HETATM   12  C8  UNL     1       3.006  37.865  31.637  1.00  0.00    -0.014 C 
HETATM   13  C9  UNL     1       4.226  37.403  30.741  1.00  0.00     0.007 C 
HETATM   14  C10 UNL     1       3.696  37.208  29.346  1.00  0.00     0.033 C 
HETATM   15  C11 UNL     1       2.951  38.453  28.888  1.00  0.00     0.183 C 
HETATM   16  C12 UNL     1       3.387  39.546  29.835  1.00  0.00     0.033 C 
HETATM   17  C13 UNL     1       2.718  39.275  31.178  1.00  0.00     0.007 C 
BRANCH  15  18
HETATM   18  N2  UNL     1       3.195  38.755  27.510  1.00  0.00    -0.075 N 
ATOM     19  H23 UNL     1       3.722  38.007  27.057  1.00  0.00     0.274 HD
ATOM     20  H22 UNL     1       2.335  38.702  26.964  1.00  0.00     0.274 HD
ATOM     21  H21 UNL     1       3.656  39.656  27.388  1.00  0.00     0.274 HD
ENDBRANCH  15  18
ENDBRANCH  11  12
ENDBRANCH   1  11
BRANCH   1  22
HETATM   22  C14 UNL     1       5.420  37.949  34.343  1.00  0.00     0.225 C 
HETATM   23  O2  UNL     1       4.943  38.529  35.334  1.00  0.00    -0.273 OA
HETATM   24  N3  UNL     1       6.731  38.155  33.888  1.00  0.00    -0.338 N 
HETATM   25  C15 UNL     1       7.408  37.543  32.759  1.00  0.00     0.132 C 
HETATM   26  C21 UNL     1       7.657  39.070  34.520  1.00  0.00     0.179 C 
HETATM   27  C16 UNL     1       8.881  37.584  33.139  1.00  0.00     0.009 C 
HETATM   28  C20 UNL     1       8.962  38.925  33.810  1.00  0.00     0.041 C 
BRANCH  27  29
HETATM   29  C17 UNL     1       9.767  37.527  31.919  1.00  0.00    -0.017 C 
HETATM   30  C18 UNL     1      11.048  38.243  32.243  1.00  0.00     0.010 C 
HETATM   31  C19 UNL     1       9.064  38.225  30.797  1.00  0.00     0.010 C 
ENDBRANCH  27  29
BRANCH  26  32
HETATM   32  C22 UNL     1       7.138  40.454  34.466  1.00  0.00     0.242 C 
HETATM   33  O3  UNL     1       6.805  40.935  33.365  1.00  0.00    -0.271 OA
HETATM   34  N4  UNL     1       7.020  41.222  35.648  1.00  0.00    -0.350 N 
HETATM   35  C23 UNL     1       7.397  40.699  36.953  1.00  0.00     0.153 C 
BRANCH  34  36
HETATM   36  C24 UNL     1       6.515  42.590  35.613  1.00  0.00     0.087 A 
HETATM   37  C25 UNL     1       6.680  43.488  36.791  1.00  0.00     0.027 A 
HETATM   38  C26 UNL     1       7.558  43.637  35.585  1.00  0.00     0.027 A 
ENDBRANCH  34  36
ENDBRANCH  26  32
ENDBRANCH   1  22
TORSDOF 8
ENDMDL
MODEL 5
REMARK VINA RESULT: -7.924870015      1.319      1.951
REMARK  8 active torsions:
REMARK  status: ('A' for Active; 'I' for Inactive)
REMARK       I    between atoms: C2_2  and  N1_4 
REMARK    1  A    between atoms: C5_7  and  C6_8 
REMARK    2  A    between atoms: C6_8  and  C7_9 
REMARK    3  A    between atoms: C6_8  and  C14_20 
REMARK    4  A    between atoms: C7_9  and  C8_10 
REMARK    5  A    between atoms: C11_13  and  N2_14 
REMARK       I    between atoms: C14_20  and  N3_22 
REMARK    6  A    between atoms: C16_24  and  C17_25 
REMARK    7  A    between atoms: C21_29  and  C22_30 
REMARK       I    between atoms: C22_30  and  N4_32 
REMARK    8  A    between atoms: N4_32  and  C24_34 
ROOT
HETATM    1  C6  UNL     1       4.677  35.746  33.983  1.00  0.00     0.082 C 
ENDROOT
BRANCH   1   2
HETATM    2  C5  UNL     1       4.228  35.142  35.254  1.00  0.00     0.002 C 
HETATM    3  C4  UNL     1       2.981  34.372  35.335  1.00  0.00     0.025 C 
HETATM    4  C3  UNL     1       3.108  33.052  36.142  1.00  0.00     0.126 C 
HETATM    5  N1  UNL     1       3.671  33.411  37.411  1.00  0.00    -0.352 N 
HETATM    6  C2  UNL     1       3.028  33.169  38.627  1.00  0.00     0.215 C 
HETATM    7  C28 UNL     1       4.965  34.053  37.382  1.00  0.00     0.126 C 
HETATM    8  C1  UNL     1       3.641  33.555  39.925  1.00  0.00     0.117 C 
HETATM    9  O1  UNL     1       1.884  32.599  38.595  1.00  0.00    -0.274 OA
HETATM   10  C27 UNL     1       5.356  34.324  35.913  1.00  0.00     0.025 C 
ENDBRANCH   1   2
BRANCH   1  11
HETATM   11  C7  UNL     1       3.886  35.979  32.797  1.00  0.00     0.019 C 
BRANCH  11  12
HETATM   12  C8  UNL     1       3.793  37.183  31.966  1.00  0.00    -0.014 C 
HETATM   13  C9  UNL     1       2.260  37.565  31.875  1.00  0.00     0.007 C 
HETATM   14  C10 UNL     1       2.185  38.920  31.223  1.00  0.00     0.033 C 
HETATM   15  C11 UNL     1       2.963  38.918  29.916  1.00  0.00     0.183 C 
HETATM   16  C12 UNL     1       3.156  37.461  29.572  1.00  0.00     0.033 C 
HETATM   17  C13 UNL     1       4.194  36.901  30.538  1.00  0.00     0.007 C 
BRANCH  15  18
HETATM   18  N2  UNL     1       2.303  39.670  28.891  1.00  0.00    -0.075 N 
ATOM     19  H23 UNL     1       1.934  40.548  29.258  1.00  0.00     0.274 HD
ATOM     20  H22 UNL     1       2.973  40.043  28.219  1.00  0.00     0.274 HD
ATOM     21  H21 UNL     1       1.575  39.129  28.425  1.00  0.00     0.274 HD
ENDBRANCH  15  18
ENDBRANCH  11  12
ENDBRANCH   1  11
BRANCH   1  22
HETATM   22  C14 UNL     1       5.182  37.139  34.393  1.00  0.00     0.225 C 
HETATM   23  O2  UNL     1       4.471  37.707  35.240  1.00  0.00    -0.273 OA
HETATM   24  N3  UNL     1       6.343  37.713  33.853  1.00  0.00    -0.338 N 
HETATM   25  C15 UNL     1       7.259  37.160  32.872  1.00  0.00     0.132 C 
HETATM   26  C21 UNL     1       6.825  39.027  34.221  1.00  0.00     0.179 C 
HETATM   27  C16 UNL     1       8.587  37.837  33.177  1.00  0.00     0.009 C 
HETATM   28  C20 UNL     1       8.125  39.225  33.515  1.00  0.00     0.041 C 
BRANCH  27  29
HETATM   29  C17 UNL     1       9.494  37.840  31.971  1.00  0.00    -0.017 C 
HETATM   30  C18 UNL     1      10.874  38.216  32.430  1.00  0.00     0.010 C 
HETATM   31  C19 UNL     1       8.984  38.863  31.005  1.00  0.00     0.010 C 
ENDBRANCH  27  29
BRANCH  26  32
HETATM   32  C22 UNL     1       5.829  40.063  33.868  1.00  0.00     0.242 C 
HETATM   33  O3  UNL     1       5.275  40.016  32.753  1.00  0.00    -0.271 OA
HETATM   34  N4  UNL     1       5.510  41.092  34.783  1.00  0.00    -0.350 N 
HETATM   35  C23 UNL     1       6.134  41.184  36.096  1.00  0.00     0.153 C 
BRANCH  34  36
HETATM   36  C24 UNL     1       4.535  42.125  34.451  1.00  0.00     0.087 A 
HETATM   37  C25 UNL     1       3.827  42.872  35.526  1.00  0.00     0.027 A 
HETATM   38  C26 UNL     1       4.957  43.505  34.771  1.00  0.00     0.027 A 
ENDBRANCH  34  36
ENDBRANCH  26  32
ENDBRANCH   1  22
TORSDOF 8
ENDMDL
