MODEL 1
REMARK VINA RESULT: -7.548774815      0.000      0.000
REMARK  11 active torsions:
REMARK  status: ('A' for Active; 'I' for Inactive)
REMARK    1  A    between atoms: C2_3  and  C4_5 
REMARK    2  A    between atoms: C4_5  and  N2_7 
REMARK    3  A    between atoms: C4_5  and  C22_33 
REMARK       I    between atoms: N2_7  and  C6_9 
REMARK    4  A    between atoms: C6_9  and  C7_11 
REMARK    5  A    between atoms: C7_11  and  N3_13 
REMARK    6  A    between atoms: N3_13  and  C9_15 
REMARK    7  A    between atoms: C9_15  and  O2_16 
REMARK    8  A    between atoms: C9_15  and  C10_18 
REMARK    9  A    between atoms: C14_25  and  C15_26 
REMARK   10  A    between atoms: C15_26  and  C16_27 
REMARK   11  A    between atoms: C16_27  and  C19_30 
ROOT
HETATM    1  C1  UNL     1       4.293  39.195  34.326  1.00  0.00     0.221 C 
HETATM    2  N1  UNL     1       3.944  39.175  33.223  1.00  0.00    -0.464 NA
HETATM    3  C2  UNL     1       3.550  39.179  31.897  1.00  0.00     0.189 C 
HETATM    4  C3  UNL     1       2.094  39.083  31.640  1.00  0.00     0.050 C 
ENDROOT
BRANCH   3   5
HETATM    5  C4  UNL     1       4.409  38.221  31.015  1.00  0.00     0.088 C 
HETATM    6  C5  UNL     1       3.964  36.840  31.458  1.00  0.00     0.047 C 
BRANCH   5   7
HETATM    7  N2  UNL     1       5.745  38.399  31.411  1.00  0.00    -0.340 N 
HETATM    8  C6  UNL     1       7.035  38.294  30.966  1.00  0.00     0.264 C 
HETATM    9  O1  UNL     1       7.408  37.879  29.873  1.00  0.00    -0.266 OA
ATOM     10  H2  UNL     1       5.759  38.724  32.377  1.00  0.00     0.164 HD
BRANCH   8  11
HETATM   11  C7  UNL     1       8.172  38.721  31.883  1.00  0.00     0.075 C 
HETATM   12  C8  UNL     1       9.526  38.603  31.357  1.00  0.00     0.074 C 
BRANCH  11  13
HETATM   13  N3  UNL     1       7.887  39.146  32.979  1.00  0.00    -0.339 N 
ATOM     14  H3  UNL     1       6.868  39.124  33.013  1.00  0.00     0.167 HD
BRANCH  13  15
HETATM   15  C9  UNL     1       8.260  39.629  34.166  1.00  0.00     0.126 C 
BRANCH  15  16
HETATM   16  O2  UNL     1       7.452  40.581  34.620  1.00  0.00    -0.349 OA
ATOM     17  H2  UNL     1       7.163  40.433  35.512  1.00  0.00     0.219 HD
ENDBRANCH  15  16
BRANCH  15  18
HETATM   18  C10 UNL     1       9.383  39.316  35.068  1.00  0.00     0.134 C 
HETATM   19  C11 UNL     1       8.817  39.386  36.520  1.00  0.00     0.147 C 
HETATM   20  N4  UNL     1       8.311  38.066  36.222  1.00  0.00    -0.316 N 
HETATM   21  C12 UNL     1       7.593  36.855  36.072  1.00  0.00     0.246 C 
HETATM   22  C14 UNL     1       9.528  37.842  35.493  1.00  0.00     0.152 C 
HETATM   23  O3  UNL     1       6.633  36.412  36.764  1.00  0.00    -0.271 OA
HETATM   24  C13 UNL     1       8.197  36.164  34.891  1.00  0.00     0.273 C 
HETATM   25  O4  UNL     1       9.242  37.004  34.463  1.00  0.00    -0.351 OA
BRANCH  22  26
HETATM   26  C15 UNL     1      10.838  37.715  36.141  1.00  0.00     0.071 C 
BRANCH  26  27
HETATM   27  C16 UNL     1      11.312  36.461  36.753  1.00  0.00    -0.040 C 
HETATM   28  C17 UNL     1      11.567  35.305  35.860  1.00  0.00     0.015 C 
HETATM   29  C18 UNL     1      10.435  36.007  37.917  1.00  0.00     0.015 C 
BRANCH  27  30
HETATM   30  C19 UNL     1      12.666  36.831  37.407  1.00  0.00    -0.015 C 
HETATM   31  C20 UNL     1      13.210  35.745  38.269  1.00  0.00     0.010 C 
HETATM   32  C21 UNL     1      12.479  38.081  38.229  1.00  0.00     0.010 C 
ENDBRANCH  27  30
ENDBRANCH  26  27
ENDBRANCH  22  26
ENDBRANCH  15  18
ENDBRANCH  13  15
ENDBRANCH  11  13
ENDBRANCH   8  11
ENDBRANCH   5   7
BRANCH   5  33
HETATM   33  C22 UNL     1       4.135  38.368  29.586  1.00  0.00    -0.025 A 
HETATM   34  C23 UNL     1       4.333  39.551  28.950  1.00  0.00     0.027 A 
HETATM   35  C24 UNL     1       4.114  39.670  27.571  1.00  0.00     0.090 A 
HETATM   36  N5  UNL     1       3.692  38.579  26.864  1.00  0.00    -0.371 N 
HETATM   37  C25 UNL     1       3.504  38.712  25.439  1.00  0.00     0.154 C 
HETATM   38  C26 UNL     1       3.494  37.414  27.511  1.00  0.00     0.090 A 
HETATM   39  C27 UNL     1       3.705  37.276  28.868  1.00  0.00     0.027 A 
ENDBRANCH   5  33
ENDBRANCH   3   5
TORSDOF 11
ENDMDL
MODEL 2
REMARK VINA RESULT: -7.457531697      1.256      1.592
REMARK  11 active torsions:
REMARK  status: ('A' for Active; 'I' for Inactive)
REMARK    1  A    between atoms: C2_3  and  C4_5 
REMARK    2  A    between atoms: C4_5  and  N2_7 
REMARK    3  A    between atoms: C4_5  and  C22_33 
REMARK       I    between atoms: N2_7  and  C6_9 
REMARK    4  A    between atoms: C6_9  and  C7_11 
REMARK    5  A    between atoms: C7_11  and  N3_13 
REMARK    6  A    between atoms: N3_13  and  C9_15 
REMARK    7  A    between atoms: C9_15  and  O2_16 
REMARK    8  A    between atoms: C9_15  and  C10_18 
REMARK    9  A    between atoms: C14_25  and  C15_26 
REMARK   10  A    between atoms: C15_26  and  C16_27 
REMARK   11  A    between atoms: C16_27  and  C19_30 
ROOT
HETATM    1  C1  UNL     1       4.121  39.014  34.239  1.00  0.00     0.221 C 
HETATM    2  N1  UNL     1       3.910  39.134  33.107  1.00  0.00    -0.464 NA
HETATM    3  C2  UNL     1       3.685  39.303  31.754  1.00  0.00     0.189 C 
HETATM    4  C3  UNL     1       2.270  39.410  31.327  1.00  0.00     0.050 C 
ENDROOT
BRANCH   3   5
HETATM    5  C4  UNL     1       4.531  38.326  30.880  1.00  0.00     0.088 C 
HETATM    6  C5  UNL     1       4.126  36.955  31.389  1.00  0.00     0.047 C 
BRANCH   5   7
HETATM    7  N2  UNL     1       5.876  38.541  31.224  1.00  0.00    -0.340 N 
HETATM    8  C6  UNL     1       6.866  38.112  32.065  1.00  0.00     0.264 C 
HETATM    9  O1  UNL     1       6.768  37.271  32.954  1.00  0.00    -0.266 OA
ATOM     10  H2  UNL     1       6.250  39.284  30.634  1.00  0.00     0.164 HD
BRANCH   8  11
HETATM   11  C7  UNL     1       8.261  38.709  31.934  1.00  0.00     0.075 C 
HETATM   12  C8  UNL     1       8.615  39.286  30.645  1.00  0.00     0.074 C 
BRANCH  11  13
HETATM   13  N3  UNL     1       8.981  38.684  32.907  1.00  0.00    -0.339 N 
ATOM     14  H3  UNL     1       8.501  39.254  33.604  1.00  0.00     0.167 HD
BRANCH  13  15
HETATM   15  C9  UNL     1      10.099  38.273  33.509  1.00  0.00     0.126 C 
BRANCH  15  16
HETATM   16  O2  UNL     1      10.857  37.505  32.733  1.00  0.00    -0.349 OA
ATOM     17  H2  UNL     1      11.010  36.641  33.098  1.00  0.00     0.219 HD
ENDBRANCH  15  16
BRANCH  15  18
HETATM   18  C10 UNL     1      10.657  38.502  34.853  1.00  0.00     0.134 C 
HETATM   19  C11 UNL     1       9.450  38.843  35.782  1.00  0.00     0.147 C 
HETATM   20  N4  UNL     1       9.253  37.411  35.793  1.00  0.00    -0.316 N 
HETATM   21  C12 UNL     1       8.791  36.073  35.795  1.00  0.00     0.246 C 
HETATM   22  C14 UNL     1      10.683  37.286  35.800  1.00  0.00     0.152 C 
HETATM   23  O3  UNL     1       7.651  35.628  36.110  1.00  0.00    -0.271 OA
HETATM   24  C13 UNL     1       9.944  35.241  35.332  1.00  0.00     0.273 C 
HETATM   25  O4  UNL     1      10.999  36.148  35.128  1.00  0.00    -0.351 OA
BRANCH  22  26
HETATM   26  C15 UNL     1      11.515  37.661  36.949  1.00  0.00     0.071 C 
BRANCH  26  27
HETATM   27  C16 UNL     1      11.989  36.688  37.948  1.00  0.00    -0.040 C 
HETATM   28  C17 UNL     1      12.830  35.562  37.475  1.00  0.00     0.015 C 
HETATM   29  C18 UNL     1      10.859  36.137  38.814  1.00  0.00     0.015 C 
BRANCH  27  30
HETATM   30  C19 UNL     1      12.858  37.519  38.924  1.00  0.00    -0.015 C 
HETATM   31  C20 UNL     1      12.376  38.919  39.082  1.00  0.00     0.010 C 
HETATM   32  C21 UNL     1      14.278  37.529  38.416  1.00  0.00     0.010 C 
ENDBRANCH  27  30
ENDBRANCH  26  27
ENDBRANCH  22  26
ENDBRANCH  15  18
ENDBRANCH  13  15
ENDBRANCH  11  13
ENDBRANCH   8  11
ENDBRANCH   5   7
BRANCH   5  33
HETATM   33  C22 UNL     1       4.209  38.413  29.457  1.00  0.00    -0.025 A 
HETATM   34  C23 UNL     1       4.427  39.555  28.755  1.00  0.00     0.027 A 
HETATM   35  C24 UNL     1       4.160  39.614  27.380  1.00  0.00     0.090 A 
HETATM   36  N5  UNL     1       3.668  38.508  26.745  1.00  0.00    -0.371 N 
HETATM   37  C25 UNL     1       3.432  38.579  25.323  1.00  0.00     0.154 C 
HETATM   38  C26 UNL     1       3.451  37.385  27.457  1.00  0.00     0.090 A 
HETATM   39  C27 UNL     1       3.709  37.306  28.810  1.00  0.00     0.027 A 
ENDBRANCH   5  33
ENDBRANCH   3   5
TORSDOF 11
ENDMDL
MODEL 3
REMARK VINA RESULT: -7.428021335      1.146      1.956
REMARK  11 active torsions:
REMARK  status: ('A' for Active; 'I' for Inactive)
REMARK    1  A    between atoms: C2_3  and  C4_5 
REMARK    2  A    between atoms: C4_5  and  N2_7 
REMARK    3  A    between atoms: C4_5  and  C22_33 
REMARK       I    between atoms: N2_7  and  C6_9 
REMARK    4  A    between atoms: C6_9  and  C7_11 
REMARK    5  A    between atoms: C7_11  and  N3_13 
REMARK    6  A    between atoms: N3_13  and  C9_15 
REMARK    7  A    between atoms: C9_15  and  O2_16 
REMARK    8  A    between atoms: C9_15  and  C10_18 
REMARK    9  A    between atoms: C14_25  and  C15_26 
REMARK   10  A    between atoms: C15_26  and  C16_27 
REMARK   11  A    between atoms: C16_27  and  C19_30 
ROOT
HETATM    1  C1  UNL     1       4.439  40.424  33.824  1.00  0.00     0.221 C 
HETATM    2  N1  UNL     1       3.871  40.048  32.888  1.00  0.00    -0.464 NA
HETATM    3  C2  UNL     1       3.211  39.623  31.750  1.00  0.00     0.189 C 
HETATM    4  C3  UNL     1       1.752  39.402  31.876  1.00  0.00     0.050 C 
ENDROOT
BRANCH   3   5
HETATM    5  C4  UNL     1       3.961  38.466  31.020  1.00  0.00     0.088 C 
HETATM    6  C5  UNL     1       3.264  37.218  31.528  1.00  0.00     0.047 C 
BRANCH   5   7
HETATM    7  N2  UNL     1       5.277  38.465  31.514  1.00  0.00    -0.340 N 
HETATM    8  C6  UNL     1       6.578  38.258  31.144  1.00  0.00     0.264 C 
HETATM    9  O1  UNL     1       6.985  37.898  30.043  1.00  0.00    -0.266 OA
ATOM     10  H2  UNL     1       5.254  38.704  32.505  1.00  0.00     0.164 HD
BRANCH   8  11
HETATM   11  C7  UNL     1       7.684  38.482  32.166  1.00  0.00     0.075 C 
HETATM   12  C8  UNL     1       7.978  39.861  32.531  1.00  0.00     0.074 C 
BRANCH  11  13
HETATM   13  N3  UNL     1       8.237  37.508  32.623  1.00  0.00    -0.339 N 
ATOM     14  H3  UNL     1       8.555  36.980  31.811  1.00  0.00     0.167 HD
BRANCH  13  15
HETATM   15  C9  UNL     1       8.633  36.790  33.677  1.00  0.00     0.126 C 
BRANCH  15  16
HETATM   16  O2  UNL     1       7.648  36.091  34.232  1.00  0.00    -0.349 OA
ATOM     17  H2  UNL     1       6.785  36.408  33.994  1.00  0.00     0.219 HD
ENDBRANCH  15  16
BRANCH  15  18
HETATM   18  C10 UNL     1       9.937  36.618  34.340  1.00  0.00     0.134 C 
HETATM   19  C11 UNL     1      10.770  37.898  34.020  1.00  0.00     0.147 C 
HETATM   20  N4  UNL     1       9.984  38.487  35.080  1.00  0.00    -0.316 N 
HETATM   21  C12 UNL     1       9.213  39.288  35.957  1.00  0.00     0.246 C 
HETATM   22  C14 UNL     1      10.072  37.221  35.752  1.00  0.00     0.152 C 
HETATM   23  O3  UNL     1       9.115  40.547  36.000  1.00  0.00    -0.271 OA
HETATM   24  C13 UNL     1       8.497  38.335  36.860  1.00  0.00     0.273 C 
HETATM   25  O4  UNL     1       8.929  37.055  36.467  1.00  0.00    -0.351 OA
BRANCH  22  26
HETATM   26  C15 UNL     1      11.321  36.700  36.318  1.00  0.00     0.071 C 
BRANCH  26  27
HETATM   27  C16 UNL     1      11.698  36.879  37.731  1.00  0.00    -0.040 C 
HETATM   28  C17 UNL     1      10.866  36.211  38.761  1.00  0.00     0.015 C 
HETATM   29  C18 UNL     1      11.876  38.347  38.110  1.00  0.00     0.015 C 
BRANCH  27  30
HETATM   30  C19 UNL     1      13.118  36.273  37.839  1.00  0.00    -0.015 C 
HETATM   31  C20 UNL     1      13.247  35.288  38.948  1.00  0.00     0.010 C 
HETATM   32  C21 UNL     1      14.107  37.394  38.043  1.00  0.00     0.010 C 
ENDBRANCH  27  30
ENDBRANCH  26  27
ENDBRANCH  22  26
ENDBRANCH  15  18
ENDBRANCH  13  15
ENDBRANCH  11  13
ENDBRANCH   8  11
ENDBRANCH   5   7
BRANCH   5  33
HETATM   33  C22 UNL     1       3.820  38.526  29.566  1.00  0.00    -0.025 A 
HETATM   34  C23 UNL     1       4.017  39.686  28.888  1.00  0.00     0.027 A 
HETATM   35  C24 UNL     1       3.926  39.723  27.489  1.00  0.00     0.090 A 
HETATM   36  N5  UNL     1       3.630  38.576  26.807  1.00  0.00    -0.371 N 
HETATM   37  C25 UNL     1       3.574  38.628  25.366  1.00  0.00     0.154 C 
HETATM   38  C26 UNL     1       3.430  37.435  27.495  1.00  0.00     0.090 A 
HETATM   39  C27 UNL     1       3.517  37.378  28.872  1.00  0.00     0.027 A 
ENDBRANCH   5  33
ENDBRANCH   3   5
TORSDOF 11
ENDMDL
MODEL 4
REMARK VINA RESULT: -7.421938888      1.456      2.173
REMARK  11 active torsions:
REMARK  status: ('A' for Active; 'I' for Inactive)
REMARK    1  A    between atoms: C2_3  and  C4_5 
REMARK    2  A    between atoms: C4_5  and  N2_7 
REMARK    3  A    between atoms: C4_5  and  C22_33 
REMARK       I    between atoms: N2_7  and  C6_9 
REMARK    4  A    between atoms: C6_9  and  C7_11 
REMARK    5  A    between atoms: C7_11  and  N3_13 
REMARK    6  A    between atoms: N3_13  and  C9_15 
REMARK    7  A    between atoms: C9_15  and  O2_16 
REMARK    8  A    between atoms: C9_15  and  C10_18 
REMARK    9  A    between atoms: C14_25  and  C15_26 
REMARK   10  A    between atoms: C15_26  and  C16_27 
REMARK   11  A    between atoms: C16_27  and  C19_30 
ROOT
HETATM    1  C1  UNL     1       4.263  40.569  33.664  1.00  0.00     0.221 C 
HETATM    2  N1  UNL     1       3.714  40.177  32.724  1.00  0.00    -0.464 NA
HETATM    3  C2  UNL     1       3.075  39.734  31.581  1.00  0.00     0.189 C 
HETATM    4  C3  UNL     1       1.615  39.502  31.686  1.00  0.00     0.050 C 
ENDROOT
BRANCH   3   5
HETATM    5  C4  UNL     1       3.845  38.574  30.877  1.00  0.00     0.088 C 
HETATM    6  C5  UNL     1       3.157  37.326  31.397  1.00  0.00     0.047 C 
BRANCH   5   7
HETATM    7  N2  UNL     1       5.156  38.596  31.384  1.00  0.00    -0.340 N 
HETATM    8  C6  UNL     1       6.455  38.323  31.053  1.00  0.00     0.264 C 
HETATM    9  O1  UNL     1       6.864  37.840  30.001  1.00  0.00    -0.266 OA
ATOM     10  H2  UNL     1       5.130  38.939  32.344  1.00  0.00     0.164 HD
BRANCH   8  11
HETATM   11  C7  UNL     1       7.556  38.628  32.058  1.00  0.00     0.075 C 
HETATM   12  C8  UNL     1       8.717  39.358  31.567  1.00  0.00     0.074 C 
BRANCH  11  13
HETATM   13  N3  UNL     1       7.396  38.264  33.202  1.00  0.00    -0.339 N 
ATOM     14  H3  UNL     1       7.528  39.103  33.766  1.00  0.00     0.167 HD
BRANCH  13  15
HETATM   15  C9  UNL     1       7.130  37.296  34.081  1.00  0.00     0.126 C 
BRANCH  15  16
HETATM   16  O2  UNL     1       6.050  36.588  33.767  1.00  0.00    -0.349 OA
ATOM     17  H2  UNL     1       6.036  35.728  34.170  1.00  0.00     0.219 HD
ENDBRANCH  15  16
BRANCH  15  18
HETATM   18  C10 UNL     1       7.795  36.857  35.320  1.00  0.00     0.134 C 
HETATM   19  C11 UNL     1       8.079  35.332  35.155  1.00  0.00     0.147 C 
HETATM   20  N4  UNL     1       9.205  35.783  34.370  1.00  0.00    -0.316 N 
HETATM   21  C12 UNL     1      10.246  36.010  33.438  1.00  0.00     0.246 C 
HETATM   22  C14 UNL     1       9.336  36.861  35.308  1.00  0.00     0.152 C 
HETATM   23  O3  UNL     1      10.766  35.201  32.618  1.00  0.00    -0.271 OA
HETATM   24  C13 UNL     1      10.635  37.445  33.599  1.00  0.00     0.273 C 
HETATM   25  O4  UNL     1       9.818  37.937  34.634  1.00  0.00    -0.351 OA
BRANCH  22  26
HETATM   26  C15 UNL     1       9.772  36.667  36.696  1.00  0.00     0.071 C 
BRANCH  26  27
HETATM   27  C16 UNL     1      11.164  36.861  37.135  1.00  0.00    -0.040 C 
HETATM   28  C17 UNL     1      11.768  38.204  36.953  1.00  0.00     0.015 C 
HETATM   29  C18 UNL     1      12.112  35.808  36.567  1.00  0.00     0.015 C 
BRANCH  27  30
HETATM   30  C19 UNL     1      11.139  36.582  38.657  1.00  0.00    -0.015 C 
HETATM   31  C20 UNL     1      12.222  35.659  39.097  1.00  0.00     0.010 C 
HETATM   32  C21 UNL     1       9.798  35.993  39.018  1.00  0.00     0.010 C 
ENDBRANCH  27  30
ENDBRANCH  26  27
ENDBRANCH  22  26
ENDBRANCH  15  18
ENDBRANCH  13  15
ENDBRANCH  11  13
ENDBRANCH   8  11
ENDBRANCH   5   7
BRANCH   5  33
HETATM   33  C22 UNL     1       3.718  38.610  29.421  1.00  0.00    -0.025 A 
HETATM   34  C23 UNL     1       4.003  39.736  28.718  1.00  0.00     0.027 A 
HETATM   35  C24 UNL     1       3.923  39.747  27.318  1.00  0.00     0.090 A 
HETATM   36  N5  UNL     1       3.550  38.609  26.659  1.00  0.00    -0.371 N 
HETATM   37  C25 UNL     1       3.507  38.630  25.217  1.00  0.00     0.154 C 
HETATM   38  C26 UNL     1       3.264  37.502  27.373  1.00  0.00     0.090 A 
HETATM   39  C27 UNL     1       3.338  37.470  28.751  1.00  0.00     0.027 A 
ENDBRANCH   5  33
ENDBRANCH   3   5
TORSDOF 11
ENDMDL
MODEL 5
REMARK VINA RESULT: -7.333243027      2.001      8.881
REMARK  11 active torsions:
REMARK  status: ('A' for Active; 'I' for Inactive)
REMARK    1  A    between atoms: C2_3  and  C4_5 
REMARK    2  A    between atoms: C4_5  and  N2_7 
REMARK    3  A    between atoms: C4_5  and  C22_33 
REMARK       I    between atoms: N2_7  and  C6_9 
REMARK    4  A    between atoms: C6_9  and  C7_11 
REMARK    5  A    between atoms: C7_11  and  N3_13 
REMARK    6  A    between atoms: N3_13  and  C9_15 
REMARK    7  A    between atoms: C9_15  and  O2_16 
REMARK    8  A    between atoms: C9_15  and  C10_18 
REMARK    9  A    between atoms: C14_25  and  C15_26 
REMARK   10  A    between atoms: C15_26  and  C16_27 
REMARK   11  A    between atoms: C16_27  and  C19_30 
ROOT
HETATM    1  C1  UNL     1       8.017  40.091  34.599  1.00  0.00     0.221 C 
HETATM    2  N1  UNL     1       8.710  39.372  34.014  1.00  0.00    -0.464 NA
HETATM    3  C2  UNL     1       9.564  38.519  33.339  1.00  0.00     0.189 C 
HETATM    4  C3  UNL     1       9.580  38.632  31.862  1.00  0.00     0.050 C 
ENDROOT
BRANCH   3   5
HETATM    5  C4  UNL     1       9.474  37.049  33.856  1.00  0.00     0.088 C 
HETATM    6  C5  UNL     1       9.885  36.226  32.651  1.00  0.00     0.047 C 
BRANCH   5   7
HETATM    7  N2  UNL     1       8.116  36.797  34.116  1.00  0.00    -0.340 N 
HETATM    8  C6  UNL     1       7.254  35.830  34.553  1.00  0.00     0.264 C 
HETATM    9  O1  UNL     1       7.531  34.670  34.846  1.00  0.00    -0.266 OA
ATOM     10  H2  UNL     1       7.580  37.639  33.903  1.00  0.00     0.164 HD
BRANCH   8  11
HETATM   11  C7  UNL     1       5.778  36.168  34.712  1.00  0.00     0.075 C 
HETATM   12  C8  UNL     1       5.396  36.927  35.895  1.00  0.00     0.074 C 
BRANCH  11  13
HETATM   13  N3  UNL     1       5.017  35.804  33.844  1.00  0.00    -0.339 N 
ATOM     14  H3  UNL     1       5.524  35.078  33.338  1.00  0.00     0.167 HD
BRANCH  13  15
HETATM   15  C9  UNL     1       3.836  35.893  33.229  1.00  0.00     0.126 C 
BRANCH  15  16
HETATM   16  O2  UNL     1       2.810  35.608  34.024  1.00  0.00    -0.349 OA
ATOM     17  H2  UNL     1       3.017  34.952  34.680  1.00  0.00     0.219 HD
ENDBRANCH  15  16
BRANCH  15  18
HETATM   18  C10 UNL     1       3.447  36.246  31.852  1.00  0.00     0.134 C 
HETATM   19  C11 UNL     1       2.329  37.329  31.971  1.00  0.00     0.147 C 
HETATM   20  N4  UNL     1       3.438  38.228  32.196  1.00  0.00    -0.316 N 
HETATM   21  C12 UNL     1       4.356  39.227  32.601  1.00  0.00     0.246 C 
HETATM   22  C14 UNL     1       4.166  37.458  31.227  1.00  0.00     0.152 C 
HETATM   23  O3  UNL     1       4.127  40.328  33.178  1.00  0.00    -0.271 OA
HETATM   24  C13 UNL     1       5.709  38.721  32.213  1.00  0.00     0.273 C 
HETATM   25  O4  UNL     1       5.477  37.486  31.581  1.00  0.00    -0.351 OA
BRANCH  22  26
HETATM   26  C15 UNL     1       3.839  37.454  29.797  1.00  0.00     0.071 C 
BRANCH  26  27
HETATM   27  C16 UNL     1       4.009  38.634  28.931  1.00  0.00    -0.040 C 
HETATM   28  C17 UNL     1       5.350  39.266  28.874  1.00  0.00     0.015 C 
HETATM   29  C18 UNL     1       2.961  39.713  29.196  1.00  0.00     0.015 C 
BRANCH  27  30
HETATM   30  C19 UNL     1       3.691  38.124  27.505  1.00  0.00    -0.015 C 
HETATM   31  C20 UNL     1       3.916  39.156  26.455  1.00  0.00     0.010 C 
HETATM   32  C21 UNL     1       2.253  37.669  27.464  1.00  0.00     0.010 C 
ENDBRANCH  27  30
ENDBRANCH  26  27
ENDBRANCH  22  26
ENDBRANCH  15  18
ENDBRANCH  13  15
ENDBRANCH  11  13
ENDBRANCH   8  11
ENDBRANCH   5   7
BRANCH   5  33
HETATM   33  C22 UNL     1      10.401  36.776  34.953  1.00  0.00    -0.025 A 
HETATM   34  C23 UNL     1      10.664  37.711  35.902  1.00  0.00     0.027 A 
HETATM   35  C24 UNL     1      11.517  37.422  36.976  1.00  0.00     0.090 A 
HETATM   36  N5  UNL     1      12.092  36.185  37.061  1.00  0.00    -0.371 N 
HETATM   37  C25 UNL     1      12.941  35.897  38.192  1.00  0.00     0.154 C 
HETATM   38  C26 UNL     1      11.827  35.271  36.107  1.00  0.00     0.090 A 
HETATM   39  C27 UNL     1      10.988  35.535  35.043  1.00  0.00     0.027 A 
ENDBRANCH   5  33
ENDBRANCH   3   5
TORSDOF 11
ENDMDL
