MODEL 1
REMARK VINA RESULT: -6.955673901      0.000      0.000
REMARK  15 active torsions:
REMARK  status: ('A' for Active; 'I' for Inactive)
REMARK    1  A    between atoms: C2_2  and  C3_3 
REMARK    2  A    between atoms: C3_3  and  C4_4 
REMARK    3  A    between atoms: C4_4  and  O1_5 
REMARK    4  A    between atoms: C4_4  and  C15_32 
REMARK    5  A    between atoms: O1_5  and  C5_6 
REMARK    6  A    between atoms: C8_15  and  O2_16 
REMARK    7  A    between atoms: O2_16  and  C9_17 
REMARK    8  A    between atoms: C10_19  and  C11_20 
REMARK    9  A    between atoms: C11_20  and  O4_21 
REMARK   10  A    between atoms: C13_24  and  O5_25 
REMARK   11  A    between atoms: C14_27  and  N3_28 
REMARK   12  A    between atoms: C16_34  and  N4_35 
REMARK   13  A    between atoms: N4_35  and  C17_37 
REMARK   14  A    between atoms: C18_40  and  N6_41 
REMARK   15  A    between atoms: C19_51  and  O6_52 
ROOT
HETATM    1  O1  UNL     1      29.494  26.722 -44.946  1.00  0.00    -0.346 OA
ENDROOT
BRANCH   1   2
HETATM    2  C4  UNL     1      29.469  27.671 -43.934  1.00  0.00     0.168 C 
BRANCH   2   3
HETATM    3  C3  UNL     1      29.288  29.056 -44.456  1.00  0.00     0.037 C 
BRANCH   3   4
HETATM    4  C2  UNL     1      30.445  29.932 -44.729  1.00  0.00    -0.002 C 
HETATM    5  C1  UNL     1      30.871  29.776 -46.223  1.00  0.00     0.005 C 
ENDBRANCH   3   4
ENDBRANCH   2   3
BRANCH   2   6
HETATM    6  C15 UNL     1      28.480  27.317 -42.922  1.00  0.00     0.066 A 
HETATM    7  S1  UNL     1      28.012  28.163 -41.472  1.00  0.00    -0.051 SA
HETATM    8  C16 UNL     1      26.908  27.061 -40.839  1.00  0.00     0.166 A 
HETATM    9  N10 UNL     1      26.921  26.078 -41.749  1.00  0.00    -0.316 N 
HETATM   10  C19 UNL     1      27.694  26.197 -42.781  1.00  0.00     0.158 A 
ATOM     11  H10 UNL     1      26.334  25.253 -41.632  1.00  0.00     0.170 HD
BRANCH   8  12
HETATM   12  N4  UNL     1      26.226  27.145 -39.745  1.00  0.00    -0.169 N 
ATOM     13  H4  UNL     1      25.271  27.492 -39.828  1.00  0.00     0.186 HD
BRANCH  12  14
HETATM   14  C17 UNL     1      26.660  26.812 -38.464  1.00  0.00     0.695 C 
HETATM   15  N5  UNL     1      27.762  27.217 -37.908  1.00  0.00    -0.181 N 
HETATM   16  C18 UNL     1      28.073  26.779 -36.565  1.00  0.00     0.409 C 
ATOM     17  H5  UNL     1      28.398  27.835 -38.411  1.00  0.00     0.181 HD
HETATM   18  N7  UNL     1      27.753  25.364 -36.486  1.00  0.00    -0.071 NA
HETATM   19  N8  UNL     1      26.391  25.116 -36.688  1.00  0.00    -0.013 NA
HETATM   20  N9  UNL     1      25.845  25.953 -37.667  1.00  0.00    -0.119 N 
ATOM     21  H9  UNL     1      24.836  25.951 -37.815  1.00  0.00     0.202 HD
BRANCH  16  22
HETATM   22  N6  UNL     1      29.492  26.932 -36.373  1.00  0.00    -0.042 N 
ATOM     23  H63 UNL     1      29.911  27.595 -37.025  1.00  0.00     0.278 HD
ATOM     24  H62 UNL     1      29.724  27.426 -35.511  1.00  0.00     0.278 HD
ATOM     25  H61 UNL     1      29.913  26.005 -36.424  1.00  0.00     0.278 HD
ENDBRANCH  16  22
ENDBRANCH  12  14
ENDBRANCH   8  12
BRANCH  10  26
HETATM   26  O6  UNL     1      27.726  25.166 -43.775  1.00  0.00    -0.345 OA
ATOM     27  H6  UNL     1      28.531  24.687 -43.940  1.00  0.00     0.219 HD
ENDBRANCH  10  26
ENDBRANCH   2   6
ENDBRANCH   1   2
BRANCH   1  28
HETATM   28  C5  UNL     1      30.707  26.085 -45.082  1.00  0.00     0.354 C 
HETATM   29  N1  UNL     1      30.883  24.822 -44.420  1.00  0.00    -0.022 N 
HETATM   30  C6  UNL     1      32.285  24.426 -44.392  1.00  0.00     0.466 C 
ATOM     31  H12 UNL     1      30.478  24.831 -43.484  1.00  0.00     0.282 HD
ATOM     32  H11 UNL     1      30.298  24.098 -44.837  1.00  0.00     0.282 HD
HETATM   33  N2  UNL     1      32.797  24.293 -45.744  1.00  0.00    -0.049 N 
HETATM   34  C7  UNL     1      31.756  24.577 -46.713  1.00  0.00     0.270 C 
ATOM     35  H22 UNL     1      33.623  24.871 -45.894  1.00  0.00     0.279 HD
ATOM     36  H21 UNL     1      33.220  23.378 -45.900  1.00  0.00     0.279 HD
HETATM   37  C8  UNL     1      31.242  25.989 -46.473  1.00  0.00     0.206 C 
BRANCH  37  38
HETATM   38  O2  UNL     1      30.300  26.315 -47.465  1.00  0.00    -0.348 OA
BRANCH  38  39
HETATM   39  C9  UNL     1      30.411  25.574 -48.613  1.00  0.00     0.293 C 
HETATM   40  O3  UNL     1      31.244  26.165 -49.505  1.00  0.00    -0.352 OA
HETATM   41  C10 UNL     1      30.770  27.185 -50.272  1.00  0.00     0.150 C 
HETATM   42  C12 UNL     1      29.706  26.672 -51.205  1.00  0.00     0.068 C 
HETATM   43  C13 UNL     1      29.256  25.323 -50.747  1.00  0.00     0.156 C 
HETATM   44  C14 UNL     1      29.061  25.278 -49.245  1.00  0.00     0.266 C 
BRANCH  41  45
HETATM   45  C11 UNL     1      31.966  27.702 -51.097  1.00  0.00     0.196 C 
BRANCH  45  46
HETATM   46  O4  UNL     1      32.454  26.571 -51.779  1.00  0.00    -0.398 OA
ATOM     47  H4  UNL     1      32.752  26.901 -52.618  1.00  0.00     0.209 HD
ENDBRANCH  45  46
ENDBRANCH  41  45
BRANCH  43  48
HETATM   48  O5  UNL     1      30.244  24.365 -51.076  1.00  0.00    -0.393 OA
ATOM     49  H5  UNL     1      30.257  23.687 -50.410  1.00  0.00     0.210 HD
ENDBRANCH  43  48
BRANCH  44  50
HETATM   50  N3  UNL     1      28.596  23.941 -48.922  1.00  0.00    -0.068 N 
ATOM     51  H33 UNL     1      28.538  23.356 -49.756  1.00  0.00     0.275 HD
ATOM     52  H32 UNL     1      29.303  23.416 -48.408  1.00  0.00     0.275 HD
ATOM     53  H31 UNL     1      27.709  23.960 -48.420  1.00  0.00     0.275 HD
ENDBRANCH  44  50
ENDBRANCH  38  39
ENDBRANCH  37  38
ENDBRANCH   1  28
TORSDOF 15
ENDMDL
MODEL 2
REMARK VINA RESULT: -6.851836075      1.235      1.327
REMARK  15 active torsions:
REMARK  status: ('A' for Active; 'I' for Inactive)
REMARK    1  A    between atoms: C2_2  and  C3_3 
REMARK    2  A    between atoms: C3_3  and  C4_4 
REMARK    3  A    between atoms: C4_4  and  O1_5 
REMARK    4  A    between atoms: C4_4  and  C15_32 
REMARK    5  A    between atoms: O1_5  and  C5_6 
REMARK    6  A    between atoms: C8_15  and  O2_16 
REMARK    7  A    between atoms: O2_16  and  C9_17 
REMARK    8  A    between atoms: C10_19  and  C11_20 
REMARK    9  A    between atoms: C11_20  and  O4_21 
REMARK   10  A    between atoms: C13_24  and  O5_25 
REMARK   11  A    between atoms: C14_27  and  N3_28 
REMARK   12  A    between atoms: C16_34  and  N4_35 
REMARK   13  A    between atoms: N4_35  and  C17_37 
REMARK   14  A    between atoms: C18_40  and  N6_41 
REMARK   15  A    between atoms: C19_51  and  O6_52 
ROOT
HETATM    1  O1  UNL     1      29.472  26.440 -44.178  1.00  0.00    -0.346 OA
ENDROOT
BRANCH   1   2
HETATM    2  C4  UNL     1      29.262  27.555 -43.380  1.00  0.00     0.168 C 
BRANCH   2   3
HETATM    3  C3  UNL     1      29.029  28.793 -44.179  1.00  0.00     0.037 C 
BRANCH   3   4
HETATM    4  C2  UNL     1      30.151  29.534 -44.791  1.00  0.00    -0.002 C 
HETATM    5  C1  UNL     1      29.669  30.965 -45.188  1.00  0.00     0.005 C 
ENDBRANCH   3   4
ENDBRANCH   2   3
BRANCH   2   6
HETATM    6  C15 UNL     1      28.199  27.301 -42.413  1.00  0.00     0.066 A 
HETATM    7  S1  UNL     1      27.595  28.309 -41.126  1.00  0.00    -0.051 SA
HETATM    8  C16 UNL     1      26.464  27.263 -40.447  1.00  0.00     0.166 A 
HETATM    9  N10 UNL     1      26.574  26.174 -41.219  1.00  0.00    -0.316 N 
HETATM   10  C19 UNL     1      27.427  26.185 -42.192  1.00  0.00     0.158 A 
ATOM     11  H10 UNL     1      25.996  25.353 -41.044  1.00  0.00     0.170 HD
BRANCH   8  12
HETATM   12  N4  UNL     1      25.693  27.464 -39.431  1.00  0.00    -0.169 N 
ATOM     13  H4  UNL     1      24.761  27.827 -39.630  1.00  0.00     0.186 HD
BRANCH  12  14
HETATM   14  C17 UNL     1      26.001  27.237 -38.092  1.00  0.00     0.695 C 
HETATM   15  N5  UNL     1      26.158  28.153 -37.184  1.00  0.00    -0.181 N 
HETATM   16  C18 UNL     1      26.480  27.754 -35.831  1.00  0.00     0.409 C 
ATOM     17  H5  UNL     1      26.057  29.139 -37.422  1.00  0.00     0.181 HD
HETATM   18  N7  UNL     1      27.480  26.703 -35.916  1.00  0.00    -0.071 NA
HETATM   19  N8  UNL     1      26.999  25.564 -36.571  1.00  0.00    -0.013 NA
HETATM   20  N9  UNL     1      26.164  25.891 -37.645  1.00  0.00    -0.119 N 
ATOM     21  H9  UNL     1      25.657  25.146 -38.122  1.00  0.00     0.202 HD
BRANCH  16  22
HETATM   22  N6  UNL     1      27.071  28.887 -35.170  1.00  0.00    -0.042 N 
ATOM     23  H63 UNL     1      28.065  28.992 -35.376  1.00  0.00     0.278 HD
ATOM     24  H62 UNL     1      26.759  29.779 -35.555  1.00  0.00     0.278 HD
ATOM     25  H61 UNL     1      26.880  28.798 -34.172  1.00  0.00     0.278 HD
ENDBRANCH  16  22
ENDBRANCH  12  14
ENDBRANCH   8  12
BRANCH  10  26
HETATM   26  O6  UNL     1      27.563  25.038 -43.041  1.00  0.00    -0.345 OA
ATOM     27  H6  UNL     1      26.880  24.377 -43.063  1.00  0.00     0.219 HD
ENDBRANCH  10  26
ENDBRANCH   2   6
ENDBRANCH   1   2
BRANCH   1  28
HETATM   28  C5  UNL     1      30.722  25.882 -44.037  1.00  0.00     0.354 C 
HETATM   29  N1  UNL     1      30.809  24.542 -43.524  1.00  0.00    -0.022 N 
HETATM   30  C6  UNL     1      32.173  24.206 -43.140  1.00  0.00     0.466 C 
ATOM     31  H12 UNL     1      30.156  24.395 -42.754  1.00  0.00     0.282 HD
ATOM     32  H11 UNL     1      30.428  23.865 -44.185  1.00  0.00     0.282 HD
HETATM   33  N2  UNL     1      33.056  24.298 -44.289  1.00  0.00    -0.049 N 
HETATM   34  C7  UNL     1      32.312  24.680 -45.474  1.00  0.00     0.270 C 
ATOM     35  H22 UNL     1      33.840  24.926 -44.115  1.00  0.00     0.279 HD
ATOM     36  H21 UNL     1      33.581  23.435 -44.433  1.00  0.00     0.279 HD
HETATM   37  C8  UNL     1      31.635  26.017 -45.211  1.00  0.00     0.206 C 
BRANCH  37  38
HETATM   38  O2  UNL     1      30.988  26.448 -46.384  1.00  0.00    -0.348 OA
BRANCH  38  39
HETATM   39  C9  UNL     1      30.871  25.483 -47.350  1.00  0.00     0.293 C 
HETATM   40  O3  UNL     1      31.502  25.849 -48.494  1.00  0.00    -0.352 OA
HETATM   41  C10 UNL     1      30.873  26.704 -49.347  1.00  0.00     0.150 C 
HETATM   42  C12 UNL     1      29.646  26.047 -49.921  1.00  0.00     0.068 C 
HETATM   43  C13 UNL     1      29.310  24.837 -49.111  1.00  0.00     0.156 C 
HETATM   44  C14 UNL     1      29.424  25.110 -47.625  1.00  0.00     0.266 C 
BRANCH  41  45
HETATM   45  C11 UNL     1      31.873  27.001 -50.483  1.00  0.00     0.196 C 
BRANCH  45  46
HETATM   46  O4  UNL     1      32.152  25.745 -51.057  1.00  0.00    -0.398 OA
ATOM     47  H4  UNL     1      31.744  25.773 -51.914  1.00  0.00     0.209 HD
ENDBRANCH  45  46
ENDBRANCH  41  45
BRANCH  43  48
HETATM   48  O5  UNL     1      30.219  23.799 -49.423  1.00  0.00    -0.393 OA
ATOM     49  H5  UNL     1      29.777  23.142 -49.948  1.00  0.00     0.210 HD
ENDBRANCH  43  48
BRANCH  44  50
HETATM   50  N3  UNL     1      29.046  23.884 -46.944  1.00  0.00    -0.068 N 
ATOM     51  H33 UNL     1      29.100  23.080 -47.569  1.00  0.00     0.275 HD
ATOM     52  H32 UNL     1      29.751  23.604 -46.262  1.00  0.00     0.275 HD
ATOM     53  H31 UNL     1      28.124  23.959 -46.514  1.00  0.00     0.275 HD
ENDBRANCH  44  50
ENDBRANCH  38  39
ENDBRANCH  37  38
ENDBRANCH   1  28
TORSDOF 15
ENDMDL
MODEL 3
REMARK VINA RESULT: -6.806718454      1.549      2.097
REMARK  15 active torsions:
REMARK  status: ('A' for Active; 'I' for Inactive)
REMARK    1  A    between atoms: C2_2  and  C3_3 
REMARK    2  A    between atoms: C3_3  and  C4_4 
REMARK    3  A    between atoms: C4_4  and  O1_5 
REMARK    4  A    between atoms: C4_4  and  C15_32 
REMARK    5  A    between atoms: O1_5  and  C5_6 
REMARK    6  A    between atoms: C8_15  and  O2_16 
REMARK    7  A    between atoms: O2_16  and  C9_17 
REMARK    8  A    between atoms: C10_19  and  C11_20 
REMARK    9  A    between atoms: C11_20  and  O4_21 
REMARK   10  A    between atoms: C13_24  and  O5_25 
REMARK   11  A    between atoms: C14_27  and  N3_28 
REMARK   12  A    between atoms: C16_34  and  N4_35 
REMARK   13  A    between atoms: N4_35  and  C17_37 
REMARK   14  A    between atoms: C18_40  and  N6_41 
REMARK   15  A    between atoms: C19_51  and  O6_52 
ROOT
HETATM    1  O1  UNL     1      30.423  26.934 -46.008  1.00  0.00    -0.346 OA
ENDROOT
BRANCH   1   2
HETATM    2  C4  UNL     1      30.216  27.648 -44.836  1.00  0.00     0.168 C 
BRANCH   2   3
HETATM    3  C3  UNL     1      30.002  29.102 -45.084  1.00  0.00     0.037 C 
BRANCH   3   4
HETATM    4  C2  UNL     1      31.120  29.990 -45.461  1.00  0.00    -0.002 C 
HETATM    5  C1  UNL     1      31.093  30.229 -47.003  1.00  0.00     0.005 C 
ENDBRANCH   3   4
ENDBRANCH   2   3
BRANCH   2   6
HETATM    6  C15 UNL     1      29.142  27.046 -44.052  1.00  0.00     0.066 A 
HETATM    7  S1  UNL     1      28.531  27.477 -42.478  1.00  0.00    -0.051 SA
HETATM    8  C16 UNL     1      27.388  26.258 -42.269  1.00  0.00     0.166 A 
HETATM    9  N10 UNL     1      27.499  25.556 -43.404  1.00  0.00    -0.316 N 
HETATM   10  C19 UNL     1      28.362  25.938 -44.290  1.00  0.00     0.158 A 
ATOM     11  H10 UNL     1      26.915  24.737 -43.567  1.00  0.00     0.170 HD
BRANCH   8  12
HETATM   12  N4  UNL     1      26.607  26.054 -41.260  1.00  0.00    -0.169 N 
ATOM     13  H4  UNL     1      26.232  25.112 -41.157  1.00  0.00     0.186 HD
BRANCH  12  14
HETATM   14  C17 UNL     1      26.226  26.987 -40.299  1.00  0.00     0.695 C 
HETATM   15  N5  UNL     1      26.210  26.789 -39.015  1.00  0.00    -0.181 N 
HETATM   16  C18 UNL     1      25.784  27.863 -38.144  1.00  0.00     0.409 C 
ATOM     17  H5  UNL     1      26.494  25.890 -38.627  1.00  0.00     0.181 HD
HETATM   18  N7  UNL     1      24.613  28.475 -38.752  1.00  0.00    -0.071 NA
HETATM   19  N8  UNL     1      24.900  29.050 -39.994  1.00  0.00    -0.013 NA
HETATM   20  N9  UNL     1      25.811  28.283 -40.729  1.00  0.00    -0.119 N 
ATOM     21  H9  UNL     1      26.190  28.662 -41.597  1.00  0.00     0.202 HD
BRANCH  16  22
HETATM   22  N6  UNL     1      25.387  27.278 -36.890  1.00  0.00    -0.042 N 
ATOM     23  H63 UNL     1      25.105  27.973 -36.200  1.00  0.00     0.278 HD
ATOM     24  H62 UNL     1      24.499  26.778 -36.949  1.00  0.00     0.278 HD
ATOM     25  H61 UNL     1      26.153  26.687 -36.568  1.00  0.00     0.278 HD
ENDBRANCH  16  22
ENDBRANCH  12  14
ENDBRANCH   8  12
BRANCH  10  26
HETATM   26  O6  UNL     1      28.500  25.212 -45.517  1.00  0.00    -0.345 OA
ATOM     27  H6  UNL     1      28.205  25.596 -46.335  1.00  0.00     0.219 HD
ENDBRANCH  10  26
ENDBRANCH   2   6
ENDBRANCH   1   2
BRANCH   1  28
HETATM   28  C5  UNL     1      31.645  26.304 -46.067  1.00  0.00     0.354 C 
HETATM   29  N1  UNL     1      31.721  24.938 -45.629  1.00  0.00    -0.022 N 
HETATM   30  C6  UNL     1      33.103  24.510 -45.455  1.00  0.00     0.466 C 
ATOM     31  H12 UNL     1      31.173  24.786 -44.782  1.00  0.00     0.282 HD
ATOM     32  H11 UNL     1      31.213  24.315 -46.257  1.00  0.00     0.282 HD
HETATM   33  N2  UNL     1      33.823  24.612 -46.711  1.00  0.00    -0.049 N 
HETATM   34  C7  UNL     1      32.947  25.093 -47.763  1.00  0.00     0.270 C 
ATOM     35  H22 UNL     1      34.660  25.188 -46.622  1.00  0.00     0.279 HD
ATOM     36  H21 UNL     1      34.270  23.731 -46.964  1.00  0.00     0.279 HD
HETATM   37  C8  UNL     1      32.393  26.449 -47.351  1.00  0.00     0.206 C 
BRANCH  37  38
HETATM   38  O2  UNL     1      31.619  26.972 -48.402  1.00  0.00    -0.348 OA
BRANCH  38  39
HETATM   39  C9  UNL     1      31.224  26.043 -49.329  1.00  0.00     0.293 C 
HETATM   40  O3  UNL     1      31.628  26.387 -50.577  1.00  0.00    -0.352 OA
HETATM   41  C10 UNL     1      30.906  27.308 -51.272  1.00  0.00     0.150 C 
HETATM   42  C12 UNL     1      29.537  26.761 -51.579  1.00  0.00     0.068 C 
HETATM   43  C13 UNL     1      29.282  25.561 -50.725  1.00  0.00     0.156 C 
HETATM   44  C14 UNL     1      29.727  25.789 -49.294  1.00  0.00     0.266 C 
BRANCH  41  45
HETATM   45  C11 UNL     1      31.665  27.553 -52.591  1.00  0.00     0.196 C 
BRANCH  45  46
HETATM   46  O4  UNL     1      30.818  27.050 -53.597  1.00  0.00    -0.398 OA
ATOM     47  H4  UNL     1      30.891  26.106 -53.528  1.00  0.00     0.209 HD
ENDBRANCH  45  46
ENDBRANCH  41  45
BRANCH  43  48
HETATM   48  O5  UNL     1      30.020  24.464 -51.230  1.00  0.00    -0.393 OA
ATOM     49  H5  UNL     1      30.114  23.809 -50.547  1.00  0.00     0.210 HD
ENDBRANCH  43  48
BRANCH  44  50
HETATM   50  N3  UNL     1      29.402  24.580 -48.558  1.00  0.00    -0.068 N 
ATOM     51  H33 UNL     1      30.151  23.890 -48.628  1.00  0.00     0.275 HD
ATOM     52  H32 UNL     1      29.427  24.740 -47.551  1.00  0.00     0.275 HD
ATOM     53  H31 UNL     1      28.508  24.187 -48.850  1.00  0.00     0.275 HD
ENDBRANCH  44  50
ENDBRANCH  38  39
ENDBRANCH  37  38
ENDBRANCH   1  28
TORSDOF 15
ENDMDL
MODEL 4
REMARK VINA RESULT: -6.647599278      2.960      4.783
REMARK  15 active torsions:
REMARK  status: ('A' for Active; 'I' for Inactive)
REMARK    1  A    between atoms: C2_2  and  C3_3 
REMARK    2  A    between atoms: C3_3  and  C4_4 
REMARK    3  A    between atoms: C4_4  and  O1_5 
REMARK    4  A    between atoms: C4_4  and  C15_32 
REMARK    5  A    between atoms: O1_5  and  C5_6 
REMARK    6  A    between atoms: C8_15  and  O2_16 
REMARK    7  A    between atoms: O2_16  and  C9_17 
REMARK    8  A    between atoms: C10_19  and  C11_20 
REMARK    9  A    between atoms: C11_20  and  O4_21 
REMARK   10  A    between atoms: C13_24  and  O5_25 
REMARK   11  A    between atoms: C14_27  and  N3_28 
REMARK   12  A    between atoms: C16_34  and  N4_35 
REMARK   13  A    between atoms: N4_35  and  C17_37 
REMARK   14  A    between atoms: C18_40  and  N6_41 
REMARK   15  A    between atoms: C19_51  and  O6_52 
ROOT
HETATM    1  O1  UNL     1      31.410  24.221 -48.686  1.00  0.00    -0.346 OA
ENDROOT
BRANCH   1   2
HETATM    2  C4  UNL     1      31.571  23.933 -47.338  1.00  0.00     0.168 C 
BRANCH   2   3
HETATM    3  C3  UNL     1      32.770  24.598 -46.753  1.00  0.00     0.037 C 
BRANCH   3   4
HETATM    4  C2  UNL     1      32.943  26.063 -46.814  1.00  0.00    -0.002 C 
HETATM    5  C1  UNL     1      33.323  26.599 -45.398  1.00  0.00     0.005 C 
ENDBRANCH   3   4
ENDBRANCH   2   3
BRANCH   2   6
HETATM    6  C15 UNL     1      30.347  24.228 -46.600  1.00  0.00     0.066 A 
HETATM    7  S1  UNL     1      30.088  24.390 -44.884  1.00  0.00    -0.051 SA
HETATM    8  C16 UNL     1      28.422  24.635 -44.866  1.00  0.00     0.166 A 
HETATM    9  N10 UNL     1      28.107  24.589 -46.167  1.00  0.00    -0.316 N 
HETATM   10  C19 UNL     1      29.051  24.390 -47.030  1.00  0.00     0.158 A 
ATOM     11  H10 UNL     1      27.141  24.710 -46.472  1.00  0.00     0.170 HD
BRANCH   8  12
HETATM   12  N4  UNL     1      27.648  24.814 -43.848  1.00  0.00    -0.169 N 
ATOM     13  H4  UNL     1      26.945  24.094 -43.677  1.00  0.00     0.186 HD
BRANCH  12  14
HETATM   14  C17 UNL     1      27.673  25.886 -42.960  1.00  0.00     0.695 C 
HETATM   15  N5  UNL     1      27.247  25.864 -41.733  1.00  0.00    -0.181 N 
HETATM   16  C18 UNL     1      27.341  27.067 -40.935  1.00  0.00     0.409 C 
ATOM     17  H5  UNL     1      26.852  25.011 -41.338  1.00  0.00     0.181 HD
HETATM   18  N7  UNL     1      26.930  28.178 -41.777  1.00  0.00    -0.071 NA
HETATM   19  N8  UNL     1      27.778  28.353 -42.875  1.00  0.00    -0.013 NA
HETATM   20  N9  UNL     1      28.208  27.132 -43.405  1.00  0.00    -0.119 N 
ATOM     21  H9  UNL     1      28.926  27.132 -44.130  1.00  0.00     0.202 HD
BRANCH  16  22
HETATM   22  N6  UNL     1      26.398  26.948 -39.853  1.00  0.00    -0.042 N 
ATOM     23  H63 UNL     1      25.433  27.087 -40.151  1.00  0.00     0.278 HD
ATOM     24  H62 UNL     1      26.299  25.990 -39.516  1.00  0.00     0.278 HD
ATOM     25  H61 UNL     1      26.684  27.598 -39.120  1.00  0.00     0.278 HD
ENDBRANCH  16  22
ENDBRANCH  12  14
ENDBRANCH   8  12
BRANCH  10  26
HETATM   26  O6  UNL     1      28.746  24.343 -48.429  1.00  0.00    -0.345 OA
ATOM     27  H6  UNL     1      27.887  24.605 -48.739  1.00  0.00     0.219 HD
ENDBRANCH  10  26
ENDBRANCH   2   6
ENDBRANCH   1   2
BRANCH   1  28
HETATM   28  C5  UNL     1      32.296  23.560 -49.506  1.00  0.00     0.354 C 
HETATM   29  N1  UNL     1      31.793  22.484 -50.314  1.00  0.00    -0.022 N 
HETATM   30  C6  UNL     1      32.877  21.691 -50.880  1.00  0.00     0.466 C 
ATOM     31  H12 UNL     1      31.136  21.902 -49.794  1.00  0.00     0.282 HD
ATOM     32  H11 UNL     1      31.162  22.824 -51.039  1.00  0.00     0.282 HD
HETATM   33  N2  UNL     1      33.719  22.520 -51.722  1.00  0.00    -0.049 N 
HETATM   34  C7  UNL     1      33.220  23.882 -51.760  1.00  0.00     0.270 C 
ATOM     35  H22 UNL     1      34.697  22.483 -51.433  1.00  0.00     0.279 HD
ATOM     36  H21 UNL     1      33.822  22.128 -52.658  1.00  0.00     0.279 HD
HETATM   37  C8  UNL     1      33.184  24.424 -50.338  1.00  0.00     0.206 C 
BRANCH  37  38
HETATM   38  O2  UNL     1      32.794  25.775 -50.368  1.00  0.00    -0.348 OA
BRANCH  38  39
HETATM   39  C9  UNL     1      32.048  26.123 -51.463  1.00  0.00     0.293 C 
HETATM   40  O3  UNL     1      32.562  27.213 -52.086  1.00  0.00    -0.352 OA
HETATM   41  C10 UNL     1      32.295  28.448 -51.579  1.00  0.00     0.150 C 
HETATM   42  C12 UNL     1      30.824  28.745 -51.699  1.00  0.00     0.068 C 
HETATM   43  C13 UNL     1      30.087  27.477 -51.987  1.00  0.00     0.156 C 
HETATM   44  C14 UNL     1      30.582  26.334 -51.124  1.00  0.00     0.266 C 
BRANCH  41  45
HETATM   45  C11 UNL     1      33.091  29.453 -52.436  1.00  0.00     0.196 C 
BRANCH  45  46
HETATM   46  O4  UNL     1      32.877  29.045 -53.766  1.00  0.00    -0.398 OA
ATOM     47  H4  UNL     1      31.937  29.100 -53.891  1.00  0.00     0.209 HD
ENDBRANCH  45  46
ENDBRANCH  41  45
BRANCH  43  48
HETATM   48  O5  UNL     1      30.296  27.111 -53.337  1.00  0.00    -0.393 OA
ATOM     49  H5  UNL     1      29.741  27.644 -53.896  1.00  0.00     0.210 HD
ENDBRANCH  43  48
BRANCH  44  50
HETATM   50  N3  UNL     1      29.778  25.174 -51.464  1.00  0.00    -0.068 N 
ATOM     51  H33 UNL     1      28.802  25.429 -51.616  1.00  0.00     0.275 HD
ATOM     52  H32 UNL     1      30.000  24.829 -52.398  1.00  0.00     0.275 HD
ATOM     53  H31 UNL     1      29.864  24.436 -50.766  1.00  0.00     0.275 HD
ENDBRANCH  44  50
ENDBRANCH  38  39
ENDBRANCH  37  38
ENDBRANCH   1  28
TORSDOF 15
ENDMDL
MODEL 5
REMARK VINA RESULT: -6.631106955      1.582      2.131
REMARK  15 active torsions:
REMARK  status: ('A' for Active; 'I' for Inactive)
REMARK    1  A    between atoms: C2_2  and  C3_3 
REMARK    2  A    between atoms: C3_3  and  C4_4 
REMARK    3  A    between atoms: C4_4  and  O1_5 
REMARK    4  A    between atoms: C4_4  and  C15_32 
REMARK    5  A    between atoms: O1_5  and  C5_6 
REMARK    6  A    between atoms: C8_15  and  O2_16 
REMARK    7  A    between atoms: O2_16  and  C9_17 
REMARK    8  A    between atoms: C10_19  and  C11_20 
REMARK    9  A    between atoms: C11_20  and  O4_21 
REMARK   10  A    between atoms: C13_24  and  O5_25 
REMARK   11  A    between atoms: C14_27  and  N3_28 
REMARK   12  A    between atoms: C16_34  and  N4_35 
REMARK   13  A    between atoms: N4_35  and  C17_37 
REMARK   14  A    between atoms: C18_40  and  N6_41 
REMARK   15  A    between atoms: C19_51  and  O6_52 
ROOT
HETATM    1  O1  UNL     1      30.138  27.039 -45.290  1.00  0.00    -0.346 OA
ENDROOT
BRANCH   1   2
HETATM    2  C4  UNL     1      29.904  27.920 -44.245  1.00  0.00     0.168 C 
BRANCH   2   3
HETATM    3  C3  UNL     1      29.594  29.299 -44.720  1.00  0.00     0.037 C 
BRANCH   3   4
HETATM    4  C2  UNL     1      30.546  30.054 -45.560  1.00  0.00    -0.002 C 
HETATM    5  C1  UNL     1      29.908  31.420 -45.964  1.00  0.00     0.005 C 
ENDBRANCH   3   4
ENDBRANCH   2   3
BRANCH   2   6
HETATM    6  C15 UNL     1      28.883  27.392 -43.346  1.00  0.00     0.066 A 
HETATM    7  S1  UNL     1      28.478  27.860 -41.717  1.00  0.00    -0.051 SA
HETATM    8  C16 UNL     1      27.283  26.722 -41.379  1.00  0.00     0.166 A 
HETATM    9  N10 UNL     1      27.222  26.017 -42.517  1.00  0.00    -0.316 N 
HETATM   10  C19 UNL     1      28.008  26.341 -43.492  1.00  0.00     0.158 A 
ATOM     11  H10 UNL     1      26.568  25.240 -42.611  1.00  0.00     0.170 HD
BRANCH   8  12
HETATM   12  N4  UNL     1      26.605  26.570 -40.291  1.00  0.00    -0.169 N 
ATOM     13  H4  UNL     1      26.515  25.616 -39.939  1.00  0.00     0.186 HD
BRANCH  12  14
HETATM   14  C17 UNL     1      25.983  27.570 -39.549  1.00  0.00     0.695 C 
HETATM   15  N5  UNL     1      25.517  27.441 -38.343  1.00  0.00    -0.181 N 
HETATM   16  C18 UNL     1      24.894  28.580 -37.705  1.00  0.00     0.409 C 
ATOM     17  H5  UNL     1      25.589  26.550 -37.854  1.00  0.00     0.181 HD
HETATM   18  N7  UNL     1      24.046  29.222 -38.696  1.00  0.00    -0.071 NA
HETATM   19  N8  UNL     1      24.778  29.715 -39.781  1.00  0.00    -0.013 NA
HETATM   20  N9  UNL     1      25.830  28.863 -40.135  1.00  0.00    -0.119 N 
ATOM     21  H9  UNL     1      26.506  29.174 -40.831  1.00  0.00     0.202 HD
BRANCH  16  22
HETATM   22  N6  UNL     1      24.054  28.084 -36.646  1.00  0.00    -0.042 N 
ATOM     23  H63 UNL     1      23.307  27.477 -36.985  1.00  0.00     0.278 HD
ATOM     24  H62 UNL     1      24.525  27.399 -36.055  1.00  0.00     0.278 HD
ATOM     25  H61 UNL     1      23.707  28.887 -36.123  1.00  0.00     0.278 HD
ENDBRANCH  16  22
ENDBRANCH  12  14
ENDBRANCH   8  12
BRANCH  10  26
HETATM   26  O6  UNL     1      27.961  25.610 -44.724  1.00  0.00    -0.345 OA
ATOM     27  H6  UNL     1      28.370  25.966 -45.505  1.00  0.00     0.219 HD
ENDBRANCH  10  26
ENDBRANCH   2   6
ENDBRANCH   1   2
BRANCH   1  28
HETATM   28  C5  UNL     1      31.322  26.346 -45.181  1.00  0.00     0.354 C 
HETATM   29  N1  UNL     1      31.294  25.060 -44.541  1.00  0.00    -0.022 N 
HETATM   30  C6  UNL     1      32.638  24.595 -44.221  1.00  0.00     0.466 C 
ATOM     31  H12 UNL     1      30.694  25.066 -43.716  1.00  0.00     0.282 HD
ATOM     32  H11 UNL     1      30.785  24.376 -45.100  1.00  0.00     0.282 HD
HETATM   33  N2  UNL     1      33.428  24.470 -45.432  1.00  0.00    -0.049 N 
HETATM   34  C7  UNL     1      32.639  24.828 -46.595  1.00  0.00     0.270 C 
ATOM     35  H22 UNL     1      34.291  25.010 -45.378  1.00  0.00     0.279 HD
ATOM     36  H21 UNL     1      33.836  23.539 -45.523  1.00  0.00     0.279 HD
HETATM   37  C8  UNL     1      32.145  26.258 -46.424  1.00  0.00     0.206 C 
BRANCH  37  38
HETATM   38  O2  UNL     1      31.459  26.653 -47.586  1.00  0.00    -0.348 OA
BRANCH  38  39
HETATM   39  C9  UNL     1      31.033  25.614 -48.371  1.00  0.00     0.293 C 
HETATM   40  O3  UNL     1      31.444  25.763 -49.655  1.00  0.00    -0.352 OA
HETATM   41  C10 UNL     1      30.749  26.598 -50.475  1.00  0.00     0.150 C 
HETATM   42  C12 UNL     1      29.363  26.056 -50.704  1.00  0.00     0.068 C 
HETATM   43  C13 UNL     1      29.073  24.999 -49.688  1.00  0.00     0.156 C 
HETATM   44  C14 UNL     1      29.528  25.415 -48.303  1.00  0.00     0.266 C 
BRANCH  41  45
HETATM   45  C11 UNL     1      31.513  26.629 -51.815  1.00  0.00     0.196 C 
BRANCH  45  46
HETATM   46  O4  UNL     1      30.987  25.553 -52.557  1.00  0.00    -0.398 OA
ATOM     47  H4  UNL     1      30.544  25.009 -51.918  1.00  0.00     0.209 HD
ENDBRANCH  45  46
ENDBRANCH  41  45
BRANCH  43  48
HETATM   48  O5  UNL     1      29.774  23.819 -50.029  1.00  0.00    -0.393 OA
ATOM     49  H5  UNL     1      29.218  23.066 -49.865  1.00  0.00     0.210 HD
ENDBRANCH  43  48
BRANCH  44  50
HETATM   50  N3  UNL     1      29.168  24.334 -47.403  1.00  0.00    -0.068 N 
ATOM     51  H33 UNL     1      28.454  23.732 -47.812  1.00  0.00     0.275 HD
ATOM     52  H32 UNL     1      29.923  23.652 -47.319  1.00  0.00     0.275 HD
ATOM     53  H31 UNL     1      28.881  24.684 -46.489  1.00  0.00     0.275 HD
ENDBRANCH  44  50
ENDBRANCH  38  39
ENDBRANCH  37  38
ENDBRANCH   1  28
TORSDOF 15
ENDMDL
