MODEL 1
REMARK VINA RESULT: -3.222097795      0.000      0.000
REMARK  4 active torsions:
REMARK  status: ('A' for Active; 'I' for Inactive)
REMARK    1  A    between atoms: C2_2  and  C3_3 
REMARK    2  A    between atoms: C4_4  and  N1_5 
REMARK    3  A    between atoms: C8_17  and  N6_18 
REMARK    4  A    between atoms: N8_26  and  N9_27 
ROOT
HETATM    1  N1  UNL     1      -5.495  23.201 -11.327  1.00  0.00    -0.201 N 
HETATM    2  N2  UNL     1      -5.097  23.214 -10.037  1.00  0.00    -0.118 N 
ATOM      3  H2  UNL     1      -5.615  23.651  -9.275  1.00  0.00     0.206 HD
HETATM    4  C5  UNL     1      -3.928  22.576  -9.894  1.00  0.00     0.741 A 
HETATM    5  N3  UNL     1      -3.602  22.166 -11.108  1.00  0.00    -0.025 N 
HETATM    6  C6  UNL     1      -4.561  22.545 -12.004  1.00  0.00     0.382 A 
HETATM    7  O1  UNL     1      -4.520  22.296 -13.226  1.00  0.00    -0.242 OA
HETATM    8  N4  UNL     1      -2.408  21.459 -11.256  1.00  0.00    -0.257 N 
ATOM      9  H4  UNL     1      -2.140  21.136 -12.186  1.00  0.00     0.190 HD
HETATM   10  C7  UNL     1      -1.549  21.173 -10.159  1.00  0.00     0.171 A 
HETATM   11  N5  UNL     1      -0.395  20.494 -10.277  1.00  0.00    -0.173 N 
ATOM     12  H5  UNL     1      -0.121  20.167 -11.204  1.00  0.00     0.186 HD
HETATM   13  C8  UNL     1       0.420  20.223  -9.241  1.00  0.00     0.680 A 
HETATM   14  N7  UNL     1       0.052  20.658  -8.022  1.00  0.00    -0.154 N 
ATOM     15  H7  UNL     1       0.653  20.464  -7.220  1.00  0.00     0.187 HD
HETATM   16  C9  UNL     1      -1.092  21.343  -7.837  1.00  0.00     0.292 A 
HETATM   17  O2  UNL     1      -1.441  21.752  -6.701  1.00  0.00    -0.265 OA
HETATM   18  C10 UNL     1      -1.924  21.620  -8.899  1.00  0.00     0.183 A 
HETATM   19  N8  UNL     1      -3.150  22.353  -8.707  1.00  0.00    -0.094 N 
ENDROOT
BRANCH   1  20
HETATM   20  C4  UNL     1      -6.695  23.801 -11.779  1.00  0.00     0.118 C 
HETATM   21  C3  UNL     1      -6.715  24.755 -12.654  1.00  0.00    -0.008 C 
BRANCH  21  22
HETATM   22  C2  UNL     1      -8.048  25.319 -13.063  1.00  0.00     0.024 C 
HETATM   23  C1  UNL     1      -7.826  26.057 -14.358  1.00  0.00     0.009 C 
ENDBRANCH  21  22
ENDBRANCH   1  20
BRANCH  19  24
HETATM   24  N9  UNL     1      -3.527  22.780  -7.566  1.00  0.00    -0.206 NA
HETATM   25  C11 UNL     1      -4.680  21.917  -7.067  1.00  0.00     0.131 A 
HETATM   26  C12 UNL     1      -3.973  22.911  -6.344  1.00  0.00     0.131 A 
ENDBRANCH  19  24
BRANCH  13  27
HETATM   27  N6  UNL     1       1.534  19.558  -9.407  1.00  0.00    -0.234 N 
ATOM     28  H62 UNL     1       2.271  19.917 -10.015  1.00  0.00     0.174 HD
ATOM     29  H61 UNL     1       1.696  18.669  -8.936  1.00  0.00     0.174 HD
ENDBRANCH  13  27
TORSDOF 4
ENDMDL
MODEL 2
REMARK VINA RESULT: -1.480859863      2.182      6.662
REMARK  4 active torsions:
REMARK  status: ('A' for Active; 'I' for Inactive)
REMARK    1  A    between atoms: C2_2  and  C3_3 
REMARK    2  A    between atoms: C4_4  and  N1_5 
REMARK    3  A    between atoms: C8_17  and  N6_18 
REMARK    4  A    between atoms: N8_26  and  N9_27 
ROOT
HETATM    1  N1  UNL     1      -0.760  21.061  -9.318  1.00  0.00    -0.201 N 
HETATM    2  N2  UNL     1      -1.302  22.215  -8.874  1.00  0.00    -0.118 N 
ATOM      3  H2  UNL     1      -0.927  22.776  -8.110  1.00  0.00     0.206 HD
HETATM    4  C5  UNL     1      -2.401  22.524  -9.575  1.00  0.00     0.741 A 
HETATM    5  N3  UNL     1      -2.538  21.550 -10.459  1.00  0.00    -0.025 N 
HETATM    6  C6  UNL     1      -1.531  20.638 -10.312  1.00  0.00     0.382 A 
HETATM    7  O1  UNL     1      -1.403  19.612 -11.010  1.00  0.00    -0.242 OA
HETATM    8  N4  UNL     1      -3.621  21.617 -11.337  1.00  0.00    -0.257 N 
ATOM      9  H4  UNL     1      -3.742  20.873 -12.025  1.00  0.00     0.190 HD
HETATM   10  C7  UNL     1      -4.563  22.682 -11.308  1.00  0.00     0.171 A 
HETATM   11  N5  UNL     1      -5.613  22.767 -12.143  1.00  0.00    -0.173 N 
ATOM     12  H5  UNL     1      -5.740  22.028 -12.834  1.00  0.00     0.186 HD
HETATM   13  C8  UNL     1      -6.505  23.774 -12.117  1.00  0.00     0.680 A 
HETATM   14  N7  UNL     1      -6.330  24.746 -11.202  1.00  0.00    -0.154 N 
ATOM     15  H7  UNL     1      -6.994  25.520 -11.163  1.00  0.00     0.187 HD
HETATM   16  C9  UNL     1      -5.299  24.718 -10.338  1.00  0.00     0.292 A 
HETATM   17  O2  UNL     1      -5.131  25.622  -9.481  1.00  0.00    -0.265 OA
HETATM   18  C10 UNL     1      -4.387  23.687 -10.366  1.00  0.00     0.183 A 
HETATM   19  N8  UNL     1      -3.280  23.652  -9.443  1.00  0.00    -0.094 N 
ENDROOT
BRANCH   1  20
HETATM   20  C4  UNL     1       0.410  20.486  -8.765  1.00  0.00     0.118 C 
HETATM   21  C3  UNL     1       1.555  20.509  -9.369  1.00  0.00    -0.008 C 
BRANCH  21  22
HETATM   22  C2  UNL     1       2.732  19.867  -8.689  1.00  0.00     0.024 C 
HETATM   23  C1  UNL     1       3.667  20.984  -8.300  1.00  0.00     0.009 C 
ENDBRANCH  21  22
ENDBRANCH   1  20
BRANCH  19  24
HETATM   24  N9  UNL     1      -3.087  24.555  -8.563  1.00  0.00    -0.206 NA
HETATM   25  C11 UNL     1      -3.375  23.976  -7.183  1.00  0.00     0.131 A 
HETATM   26  C12 UNL     1      -2.795  25.234  -7.484  1.00  0.00     0.131 A 
ENDBRANCH  19  24
BRANCH  13  27
HETATM   27  N6  UNL     1      -7.512  23.813 -12.951  1.00  0.00    -0.234 N 
ATOM     28  H62 UNL     1      -7.952  22.952 -13.279  1.00  0.00     0.174 HD
ATOM     29  H61 UNL     1      -7.882  24.699 -13.295  1.00  0.00     0.174 HD
ENDBRANCH  13  27
TORSDOF 4
ENDMDL
MODEL 3
REMARK VINA RESULT: -0.830127605      2.041      6.575
REMARK  4 active torsions:
REMARK  status: ('A' for Active; 'I' for Inactive)
REMARK    1  A    between atoms: C2_2  and  C3_3 
REMARK    2  A    between atoms: C4_4  and  N1_5 
REMARK    3  A    between atoms: C8_17  and  N6_18 
REMARK    4  A    between atoms: N8_26  and  N9_27 
ROOT
HETATM    1  N1  UNL     1      -0.882  21.198  -9.242  1.00  0.00    -0.201 N 
HETATM    2  N2  UNL     1      -2.020  21.322  -8.525  1.00  0.00    -0.118 N 
ATOM      3  H2  UNL     1      -2.114  21.074  -7.541  1.00  0.00     0.206 HD
HETATM    4  C5  UNL     1      -3.008  21.815  -9.283  1.00  0.00     0.741 A 
HETATM    5  N3  UNL     1      -2.476  21.995 -10.479  1.00  0.00    -0.025 N 
HETATM    6  C6  UNL     1      -1.162  21.619 -10.470  1.00  0.00     0.382 A 
HETATM    7  O1  UNL     1      -0.406  21.678 -11.460  1.00  0.00    -0.242 OA
HETATM    8  N4  UNL     1      -3.296  22.509 -11.485  1.00  0.00    -0.257 N 
ATOM      9  H4  UNL     1      -2.901  22.654 -12.414  1.00  0.00     0.190 HD
HETATM   10  C7  UNL     1      -4.661  22.837 -11.263  1.00  0.00     0.171 A 
HETATM   11  N5  UNL     1      -5.470  23.333 -12.215  1.00  0.00    -0.173 N 
ATOM     12  H5  UNL     1      -5.083  23.481 -13.146  1.00  0.00     0.186 HD
HETATM   13  C8  UNL     1      -6.763  23.643 -12.007  1.00  0.00     0.680 A 
HETATM   14  N7  UNL     1      -7.267  23.445 -10.775  1.00  0.00    -0.154 N 
ATOM     15  H7  UNL     1      -8.245  23.673 -10.593  1.00  0.00     0.187 HD
HETATM   16  C9  UNL     1      -6.509  22.951  -9.779  1.00  0.00     0.292 A 
HETATM   17  O2  UNL     1      -6.974  22.763  -8.626  1.00  0.00    -0.265 OA
HETATM   18  C10 UNL     1      -5.187  22.634  -9.994  1.00  0.00     0.183 A 
HETATM   19  N8  UNL     1      -4.370  22.105  -8.929  1.00  0.00    -0.094 N 
ENDROOT
BRANCH   1  20
HETATM   20  C4  UNL     1       0.329  20.702  -8.704  1.00  0.00     0.118 C 
HETATM   21  C3  UNL     1       1.346  20.386  -9.441  1.00  0.00    -0.008 C 
BRANCH  21  22
HETATM   22  C2  UNL     1       2.584  19.870  -8.762  1.00  0.00     0.024 C 
HETATM   23  C1  UNL     1       3.419  21.074  -8.410  1.00  0.00     0.009 C 
ENDBRANCH  21  22
ENDBRANCH   1  20
BRANCH  19  24
HETATM   24  N9  UNL     1      -4.816  21.903  -7.752  1.00  0.00    -0.206 NA
HETATM   25  C11 UNL     1      -4.120  22.854  -6.786  1.00  0.00     0.131 A 
HETATM   26  C12 UNL     1      -5.226  22.009  -6.515  1.00  0.00     0.131 A 
ENDBRANCH  19  24
BRANCH  13  27
HETATM   27  N6  UNL     1      -7.510  24.124 -12.968  1.00  0.00    -0.234 N 
ATOM     28  H62 UNL     1      -7.112  24.340 -13.881  1.00  0.00     0.174 HD
ATOM     29  H61 UNL     1      -8.507  24.293 -12.830  1.00  0.00     0.174 HD
ENDBRANCH  13  27
TORSDOF 4
ENDMDL
MODEL 4
REMARK VINA RESULT: -0.235191729      2.564      4.180
REMARK  4 active torsions:
REMARK  status: ('A' for Active; 'I' for Inactive)
REMARK    1  A    between atoms: C2_2  and  C3_3 
REMARK    2  A    between atoms: C4_4  and  N1_5 
REMARK    3  A    between atoms: C8_17  and  N6_18 
REMARK    4  A    between atoms: N8_26  and  N9_27 
ROOT
HETATM    1  N1  UNL     1      -6.439  22.397 -11.742  1.00  0.00    -0.201 N 
HETATM    2  N2  UNL     1      -5.283  21.802 -11.374  1.00  0.00    -0.118 N 
ATOM      3  H2  UNL     1      -4.951  20.909 -11.736  1.00  0.00     0.206 HD
HETATM    4  C5  UNL     1      -4.633  22.546 -10.470  1.00  0.00     0.741 A 
HETATM    5  N3  UNL     1      -5.394  23.608 -10.277  1.00  0.00    -0.025 N 
HETATM    6  C6  UNL     1      -6.514  23.531 -11.056  1.00  0.00     0.382 A 
HETATM    7  O1  UNL     1      -7.414  24.394 -11.083  1.00  0.00    -0.242 OA
HETATM    8  N4  UNL     1      -4.951  24.569  -9.366  1.00  0.00    -0.257 N 
ATOM      9  H4  UNL     1      -5.527  25.395  -9.205  1.00  0.00     0.190 HD
HETATM   10  C7  UNL     1      -3.727  24.439  -8.655  1.00  0.00     0.171 A 
HETATM   11  N5  UNL     1      -3.280  25.350  -7.774  1.00  0.00    -0.173 N 
ATOM     12  H5  UNL     1      -3.849  26.179  -7.608  1.00  0.00     0.186 HD
HETATM   13  C8  UNL     1      -2.122  25.228  -7.099  1.00  0.00     0.680 A 
HETATM   14  N7  UNL     1      -1.375  24.131  -7.324  1.00  0.00    -0.154 N 
ATOM     15  H7  UNL     1      -0.493  24.017  -6.824  1.00  0.00     0.187 HD
HETATM   16  C9  UNL     1      -1.768  23.182  -8.193  1.00  0.00     0.292 A 
HETATM   17  O2  UNL     1      -1.076  22.155  -8.407  1.00  0.00    -0.265 OA
HETATM   18  C10 UNL     1      -2.953  23.308  -8.883  1.00  0.00     0.183 A 
HETATM   19  N8  UNL     1      -3.378  22.295  -9.816  1.00  0.00    -0.094 N 
ENDROOT
BRANCH   1  20
HETATM   20  C4  UNL     1      -7.336  21.842 -12.685  1.00  0.00     0.118 C 
HETATM   21  C3  UNL     1      -8.125  20.853 -12.404  1.00  0.00    -0.008 C 
BRANCH  21  22
HETATM   22  C2  UNL     1      -9.038  20.343 -13.483  1.00  0.00     0.024 C 
HETATM   23  C1  UNL     1      -9.854  19.233 -12.870  1.00  0.00     0.009 C 
ENDBRANCH  21  22
ENDBRANCH   1  20
BRANCH  19  24
HETATM   24  N9  UNL     1      -2.696  21.243 -10.051  1.00  0.00    -0.206 NA
HETATM   25  C11 UNL     1      -1.751  21.513 -11.216  1.00  0.00     0.131 A 
HETATM   26  C12 UNL     1      -1.772  20.375 -10.370  1.00  0.00     0.131 A 
ENDBRANCH  19  24
BRANCH  13  27
HETATM   27  N6  UNL     1      -1.729  26.143  -6.251  1.00  0.00    -0.234 N 
ATOM     28  H62 UNL     1      -2.287  26.983  -6.092  1.00  0.00     0.174 HD
ATOM     29  H61 UNL     1      -0.860  26.043  -5.727  1.00  0.00     0.174 HD
ENDBRANCH  13  27
TORSDOF 4
ENDMDL
