MODEL 1
REMARK VINA RESULT: -8.537841552      0.000      0.000
REMARK  4 active torsions:
REMARK  status: ('A' for Active; 'I' for Inactive)
REMARK    1  A    between atoms: N3_10  and  N4_12 
REMARK    2  A    between atoms: C5_14  and  C6_15 
REMARK    3  A    between atoms: C5_14  and  C7_24 
REMARK    4  A    between atoms: C10_28  and  O2_29 
ROOT
HETATM    1  N4  UNL     1      -4.193  22.855  -9.366  1.00  0.00    -0.294 N 
ATOM      2  H4  UNL     1      -4.801  23.433  -8.787  1.00  0.00     0.187 HD
HETATM    3  C5  UNL     1      -3.172  22.656  -8.666  1.00  0.00     0.108 C 
ENDROOT
BRANCH   3   4
HETATM    4  C6  UNL     1      -3.224  23.298  -7.334  1.00  0.00     0.166 A 
HETATM    5  N5  UNL     1      -3.824  23.008  -6.220  1.00  0.00    -0.267 N 
HETATM    6  N6  UNL     1      -3.579  23.871  -5.292  1.00  0.00    -0.227 N 
ATOM      7  H5  UNL     1      -4.421  22.191  -6.092  1.00  0.00     0.190 HD
HETATM    8  N7  UNL     1      -2.781  24.781  -5.803  1.00  0.00    -0.227 N 
ATOM      9  H6  UNL     1      -3.938  23.851  -4.337  1.00  0.00     0.210 HD
HETATM   10  N8  UNL     1      -2.543  24.458  -7.056  1.00  0.00    -0.267 N 
ATOM     11  H7  UNL     1      -2.410  25.595  -5.314  1.00  0.00     0.210 HD
ATOM     12  H8  UNL     1      -1.956  24.978  -7.707  1.00  0.00     0.190 HD
ENDBRANCH   3   4
BRANCH   3  13
HETATM   13  C7  UNL     1      -2.011  21.846  -9.140  1.00  0.00     0.036 A 
HETATM   14  C8  UNL     1      -1.312  21.140  -8.147  1.00  0.00     0.066 A 
HETATM   15  S1  UNL     1      -0.084  20.333  -8.996  1.00  0.00    -0.110 SA
HETATM   16  C9  UNL     1      -0.431  20.864 -10.555  1.00  0.00     0.087 A 
HETATM   17  C10 UNL     1      -1.530  21.683 -10.384  1.00  0.00     0.085 A 
BRANCH  17  18
HETATM   18  O2  UNL     1      -2.055  22.288 -11.561  1.00  0.00    -0.359 OA
ATOM     19  H2  UNL     1      -1.560  22.494 -12.346  1.00  0.00     0.217 HD
ENDBRANCH  17  18
ENDBRANCH   3  13
BRANCH   1  20
HETATM   20  N3  UNL     1      -4.846  22.681 -10.467  1.00  0.00    -0.280 N 
HETATM   21  C4  UNL     1      -5.510  23.519 -11.189  1.00  0.00     0.189 A 
HETATM   22  C1  UNL     1      -5.630  24.853 -10.860  1.00  0.00     0.290 A 
HETATM   23  N2  UNL     1      -6.136  23.132 -12.328  1.00  0.00    -0.345 N 
HETATM   24  O1  UNL     1      -5.073  25.276  -9.814  1.00  0.00    -0.264 OA
HETATM   25  N1  UNL     1      -6.329  25.728 -11.623  1.00  0.00    -0.329 N 
HETATM   26  C2  UNL     1      -6.933  25.306 -12.743  1.00  0.00     0.108 A 
ATOM     27  H1  UNL     1      -6.397  26.707 -11.345  1.00  0.00     0.168 HD
HETATM   28  C3  UNL     1      -6.831  23.978 -13.099  1.00  0.00     0.107 A 
ATOM     29  H2  UNL     1      -6.074  22.154 -12.611  1.00  0.00     0.167 HD
ATOM     30  H3  UNL     1      -4.835  21.725 -10.824  1.00  0.00     0.188 HD
ENDBRANCH   1  20
TORSDOF 4
ENDMDL
MODEL 2
REMARK VINA RESULT: -8.192253572      1.256      1.311
REMARK  4 active torsions:
REMARK  status: ('A' for Active; 'I' for Inactive)
REMARK    1  A    between atoms: N3_10  and  N4_12 
REMARK    2  A    between atoms: C5_14  and  C6_15 
REMARK    3  A    between atoms: C5_14  and  C7_24 
REMARK    4  A    between atoms: C10_28  and  O2_29 
ROOT
HETATM    1  N4  UNL     1      -3.668  22.622  -9.366  1.00  0.00    -0.294 N 
ATOM      2  H4  UNL     1      -4.234  23.259  -8.807  1.00  0.00     0.187 HD
HETATM    3  C5  UNL     1      -2.705  22.309  -8.627  1.00  0.00     0.108 C 
ENDROOT
BRANCH   3   4
HETATM    4  C6  UNL     1      -2.743  22.946  -7.292  1.00  0.00     0.166 A 
HETATM    5  N5  UNL     1      -2.554  22.511  -6.084  1.00  0.00    -0.267 N 
HETATM    6  N6  UNL     1      -2.689  23.443  -5.201  1.00  0.00    -0.227 N 
ATOM      7  H5  UNL     1      -2.324  21.543  -5.858  1.00  0.00     0.190 HD
HETATM    8  N7  UNL     1      -2.982  24.551  -5.842  1.00  0.00    -0.227 N 
ATOM      9  H6  UNL     1      -2.587  23.338  -4.191  1.00  0.00     0.210 HD
HETATM   10  N8  UNL     1      -3.023  24.281  -7.128  1.00  0.00    -0.267 N 
ATOM     11  H7  UNL     1      -3.149  25.463  -5.416  1.00  0.00     0.210 HD
ATOM     12  H8  UNL     1      -3.226  24.946  -7.874  1.00  0.00     0.190 HD
ENDBRANCH   3   4
BRANCH   3  13
HETATM   13  C7  UNL     1      -1.620  21.381  -9.062  1.00  0.00     0.036 A 
HETATM   14  C8  UNL     1      -0.413  21.988  -9.445  1.00  0.00     0.066 A 
HETATM   15  S1  UNL     1       0.593  20.689  -9.866  1.00  0.00    -0.110 SA
HETATM   16  C9  UNL     1      -0.465  19.413  -9.573  1.00  0.00     0.087 A 
HETATM   17  C10 UNL     1      -1.618  20.039  -9.138  1.00  0.00     0.085 A 
BRANCH  17  18
HETATM   18  O2  UNL     1      -2.712  19.189  -8.808  1.00  0.00    -0.359 OA
ATOM     19  H2  UNL     1      -2.683  18.465  -8.194  1.00  0.00     0.217 HD
ENDBRANCH  17  18
ENDBRANCH   3  13
BRANCH   1  20
HETATM   20  N3  UNL     1      -4.290  22.525 -10.495  1.00  0.00    -0.280 N 
HETATM   21  C4  UNL     1      -5.044  23.372 -11.111  1.00  0.00     0.189 A 
HETATM   22  C1  UNL     1      -5.323  24.625 -10.607  1.00  0.00     0.290 A 
HETATM   23  N2  UNL     1      -5.613  23.075 -12.306  1.00  0.00    -0.345 N 
HETATM   24  O1  UNL     1      -4.826  24.962  -9.501  1.00  0.00    -0.264 OA
HETATM   25  N1  UNL     1      -6.117  25.508 -11.259  1.00  0.00    -0.329 N 
HETATM   26  C2  UNL     1      -6.660  25.178 -12.438  1.00  0.00     0.108 A 
ATOM     27  H1  UNL     1      -6.302  26.426 -10.852  1.00  0.00     0.168 HD
HETATM   28  C3  UNL     1      -6.399  23.931 -12.969  1.00  0.00     0.107 A 
ATOM     29  H2  UNL     1      -5.434  22.159 -12.718  1.00  0.00     0.167 HD
ATOM     30  H3  UNL     1      -4.163  21.636 -10.978  1.00  0.00     0.188 HD
ENDBRANCH   1  20
TORSDOF 4
ENDMDL
MODEL 3
REMARK VINA RESULT: -7.323651204      1.279      1.757
REMARK  4 active torsions:
REMARK  status: ('A' for Active; 'I' for Inactive)
REMARK    1  A    between atoms: N3_10  and  N4_12 
REMARK    2  A    between atoms: C5_14  and  C6_15 
REMARK    3  A    between atoms: C5_14  and  C7_24 
REMARK    4  A    between atoms: C10_28  and  O2_29 
ROOT
HETATM    1  N4  UNL     1      -4.120  24.510  -9.077  1.00  0.00    -0.294 N 
ATOM      2  H4  UNL     1      -4.677  24.888  -8.312  1.00  0.00     0.187 HD
HETATM    3  C5  UNL     1      -3.328  23.704  -8.534  1.00  0.00     0.108 C 
ENDROOT
BRANCH   3   4
HETATM    4  C6  UNL     1      -3.486  23.606  -7.066  1.00  0.00     0.166 A 
HETATM    5  N5  UNL     1      -3.136  24.365  -6.072  1.00  0.00    -0.267 N 
HETATM    6  N6  UNL     1      -3.492  23.874  -4.932  1.00  0.00    -0.227 N 
ATOM      7  H5  UNL     1      -2.636  25.248  -6.180  1.00  0.00     0.190 HD
HETATM    8  N7  UNL     1      -4.107  22.738  -5.168  1.00  0.00    -0.227 N 
ATOM      9  H6  UNL     1      -3.326  24.293  -4.017  1.00  0.00     0.210 HD
HETATM   10  N8  UNL     1      -4.121  22.544  -6.469  1.00  0.00    -0.267 N 
ATOM     11  H7  UNL     1      -4.504  22.116  -4.466  1.00  0.00     0.210 HD
ATOM     12  H8  UNL     1      -4.532  21.745  -6.950  1.00  0.00     0.190 HD
ENDBRANCH   3   4
BRANCH   3  13
HETATM   13  C7  UNL     1      -2.317  22.920  -9.303  1.00  0.00     0.036 A 
HETATM   14  C8  UNL     1      -1.055  22.791  -8.699  1.00  0.00     0.066 A 
HETATM   15  S1  UNL     1      -0.160  21.860  -9.799  1.00  0.00    -0.110 SA
HETATM   16  C9  UNL     1      -1.330  21.635 -10.988  1.00  0.00     0.087 A 
HETATM   17  C10 UNL     1      -2.431  22.308 -10.494  1.00  0.00     0.085 A 
BRANCH  17  18
HETATM   18  O2  UNL     1      -3.600  22.289 -11.307  1.00  0.00    -0.359 OA
ATOM     19  H2  UNL     1      -4.492  22.207 -10.991  1.00  0.00     0.217 HD
ENDBRANCH  17  18
ENDBRANCH   3  13
BRANCH   1  20
HETATM   20  N3  UNL     1      -4.570  25.093 -10.139  1.00  0.00    -0.280 N 
HETATM   21  C4  UNL     1      -5.511  24.746 -10.950  1.00  0.00     0.189 A 
HETATM   22  C1  UNL     1      -6.247  23.590 -10.786  1.00  0.00     0.290 A 
HETATM   23  N2  UNL     1      -5.836  25.507 -12.024  1.00  0.00    -0.345 N 
HETATM   24  O1  UNL     1      -5.994  22.840  -9.809  1.00  0.00    -0.264 OA
HETATM   25  N1  UNL     1      -7.234  23.232 -11.643  1.00  0.00    -0.329 N 
HETATM   26  C2  UNL     1      -7.525  24.012 -12.693  1.00  0.00     0.108 A 
ATOM     27  H1  UNL     1      -7.755  22.369 -11.489  1.00  0.00     0.168 HD
HETATM   28  C3  UNL     1      -6.807  25.174 -12.884  1.00  0.00     0.107 A 
ATOM     29  H2  UNL     1      -5.318  26.371 -12.185  1.00  0.00     0.167 HD
ATOM     30  H3  UNL     1      -4.105  25.970 -10.374  1.00  0.00     0.188 HD
ENDBRANCH   1  20
TORSDOF 4
ENDMDL
MODEL 4
REMARK VINA RESULT: -6.829407377      2.887      5.650
REMARK  4 active torsions:
REMARK  status: ('A' for Active; 'I' for Inactive)
REMARK    1  A    between atoms: N3_10  and  N4_12 
REMARK    2  A    between atoms: C5_14  and  C6_15 
REMARK    3  A    between atoms: C5_14  and  C7_24 
REMARK    4  A    between atoms: C10_28  and  O2_29 
ROOT
HETATM    1  N4  UNL     1      -2.736  23.325 -10.248  1.00  0.00    -0.294 N 
ATOM      2  H4  UNL     1      -3.043  23.554 -11.192  1.00  0.00     0.187 HD
HETATM    3  C5  UNL     1      -3.695  23.648  -9.508  1.00  0.00     0.108 C 
ENDROOT
BRANCH   3   4
HETATM    4  C6  UNL     1      -4.851  24.213 -10.238  1.00  0.00     0.166 A 
HETATM    5  N5  UNL     1      -5.866  23.690 -10.856  1.00  0.00    -0.267 N 
HETATM    6  N6  UNL     1      -6.648  24.585 -11.359  1.00  0.00    -0.227 N 
ATOM      7  H5  UNL     1      -6.027  22.686 -10.935  1.00  0.00     0.190 HD
HETATM    8  N7  UNL     1      -6.139  25.760 -11.068  1.00  0.00    -0.227 N 
ATOM      9  H6  UNL     1      -7.505  24.412 -11.885  1.00  0.00     0.210 HD
HETATM   10  N8  UNL     1      -5.035  25.567 -10.379  1.00  0.00    -0.267 N 
ATOM     11  H7  UNL     1      -6.531  26.664 -11.329  1.00  0.00     0.210 HD
ATOM     12  H8  UNL     1      -4.423  26.296 -10.013  1.00  0.00     0.190 HD
ENDBRANCH   3   4
BRANCH   3  13
HETATM   13  C7  UNL     1      -3.665  23.480  -8.025  1.00  0.00     0.036 A 
HETATM   14  C8  UNL     1      -2.698  24.237  -7.343  1.00  0.00     0.066 A 
HETATM   15  S1  UNL     1      -2.927  23.834  -5.711  1.00  0.00    -0.110 SA
HETATM   16  C9  UNL     1      -4.199  22.743  -5.871  1.00  0.00     0.087 A 
HETATM   17  C10 UNL     1      -4.432  22.712  -7.233  1.00  0.00     0.085 A 
BRANCH  17  18
HETATM   18  O2  UNL     1      -5.479  21.853  -7.674  1.00  0.00    -0.359 OA
ATOM     19  H2  UNL     1      -5.463  20.903  -7.647  1.00  0.00     0.217 HD
ENDBRANCH  17  18
ENDBRANCH   3  13
BRANCH   1  20
HETATM   20  N3  UNL     1      -1.547  22.840 -10.391  1.00  0.00    -0.280 N 
HETATM   21  C4  UNL     1      -1.077  21.674 -10.101  1.00  0.00     0.189 A 
HETATM   22  C1  UNL     1      -1.850  20.677  -9.542  1.00  0.00     0.290 A 
HETATM   23  N2  UNL     1       0.222  21.357 -10.331  1.00  0.00    -0.345 N 
HETATM   24  O1  UNL     1      -3.063  20.909  -9.303  1.00  0.00    -0.264 OA
HETATM   25  N1  UNL     1      -1.348  19.455  -9.240  1.00  0.00    -0.329 N 
HETATM   26  C2  UNL     1      -0.060  19.180  -9.484  1.00  0.00     0.108 A 
ATOM     27  H1  UNL     1      -1.951  18.744  -8.826  1.00  0.00     0.168 HD
HETATM   28  C3  UNL     1       0.739  20.157 -10.042  1.00  0.00     0.107 A 
ATOM     29  H2  UNL     1       0.831  22.064 -10.743  1.00  0.00     0.167 HD
ATOM     30  H3  UNL     1      -0.870  23.484 -10.800  1.00  0.00     0.188 HD
ENDBRANCH   1  20
TORSDOF 4
ENDMDL
MODEL 5
REMARK VINA RESULT: -6.703789627      2.611      3.890
REMARK  4 active torsions:
REMARK  status: ('A' for Active; 'I' for Inactive)
REMARK    1  A    between atoms: N3_10  and  N4_12 
REMARK    2  A    between atoms: C5_14  and  C6_15 
REMARK    3  A    between atoms: C5_14  and  C7_24 
REMARK    4  A    between atoms: C10_28  and  O2_29 
ROOT
HETATM    1  N4  UNL     1      -3.329  23.721  -9.947  1.00  0.00    -0.294 N 
ATOM      2  H4  UNL     1      -2.794  23.559 -10.800  1.00  0.00     0.187 HD
HETATM    3  C5  UNL     1      -2.763  23.023  -9.072  1.00  0.00     0.108 C 
ENDROOT
BRANCH   3   4
HETATM    4  C6  UNL     1      -1.596  22.263  -9.574  1.00  0.00     0.166 A 
HETATM    5  N5  UNL     1      -1.258  21.804 -10.740  1.00  0.00    -0.267 N 
HETATM    6  N6  UNL     1      -0.123  21.190 -10.713  1.00  0.00    -0.227 N 
ATOM      7  H5  UNL     1      -1.823  21.917 -11.581  1.00  0.00     0.190 HD
HETATM    8  N7  UNL     1       0.320  21.236  -9.478  1.00  0.00    -0.227 N 
ATOM      9  H6  UNL     1       0.344  20.749 -11.506  1.00  0.00     0.210 HD
HETATM   10  N8  UNL     1      -0.561  21.889  -8.753  1.00  0.00    -0.267 N 
ATOM     11  H7  UNL     1       1.195  20.836  -9.140  1.00  0.00     0.210 HD
ATOM     12  H8  UNL     1      -0.488  22.084  -7.754  1.00  0.00     0.190 HD
ENDBRANCH   3   4
BRANCH   3  13
HETATM   13  C7  UNL     1      -3.233  22.964  -7.657  1.00  0.00     0.036 A 
HETATM   14  C8  UNL     1      -3.968  21.820  -7.304  1.00  0.00     0.066 A 
HETATM   15  S1  UNL     1      -4.337  22.052  -5.664  1.00  0.00    -0.110 SA
HETATM   16  C9  UNL     1      -3.594  23.543  -5.421  1.00  0.00     0.087 A 
HETATM   17  C10 UNL     1      -3.054  23.843  -6.656  1.00  0.00     0.085 A 
BRANCH  17  18
HETATM   18  O2  UNL     1      -2.349  25.076  -6.754  1.00  0.00    -0.359 OA
ATOM     19  H2  UNL     1      -2.088  25.623  -6.022  1.00  0.00     0.217 HD
ENDBRANCH  17  18
ENDBRANCH   3  13
BRANCH   1  20
HETATM   20  N3  UNL     1      -4.262  24.547 -10.289  1.00  0.00    -0.280 N 
HETATM   21  C4  UNL     1      -5.319  24.366 -11.006  1.00  0.00     0.189 A 
HETATM   22  C1  UNL     1      -5.640  23.147 -11.565  1.00  0.00     0.290 A 
HETATM   23  N2  UNL     1      -6.188  25.378 -11.254  1.00  0.00    -0.345 N 
HETATM   24  O1  UNL     1      -4.874  22.167 -11.373  1.00  0.00    -0.264 OA
HETATM   25  N1  UNL     1      -6.752  22.965 -12.317  1.00  0.00    -0.329 N 
HETATM   26  C2  UNL     1      -7.587  23.990 -12.539  1.00  0.00     0.108 A 
ATOM     27  H1  UNL     1      -6.955  22.048 -12.716  1.00  0.00     0.168 HD
HETATM   28  C3  UNL     1      -7.293  25.222 -11.993  1.00  0.00     0.107 A 
ATOM     29  H2  UNL     1      -5.990  26.298 -10.860  1.00  0.00     0.167 HD
ATOM     30  H3  UNL     1      -4.143  25.496  -9.934  1.00  0.00     0.188 HD
ENDBRANCH   1  20
TORSDOF 4
ENDMDL
