MODEL 1
REMARK VINA RESULT: -7.869148639      0.000      0.000
REMARK  5 active torsions:
REMARK  status: ('A' for Active; 'I' for Inactive)
REMARK    1  A    between atoms: O1_2  and  C2_3 
REMARK    2  A    between atoms: C2_3  and  C3_5 
REMARK    3  A    between atoms: C5_8  and  C6_9 
REMARK    4  A    between atoms: C6_9  and  C7_10 
REMARK    5  A    between atoms: N4_22  and  N5_24 
ROOT
HETATM    1  C3  UNL     1      -2.742  22.146  -8.495  1.00  0.00     0.219 C 
HETATM    2  C4  UNL     1      -3.672  22.507  -9.633  1.00  0.00     0.186 C 
HETATM    3  O3  UNL     1      -3.188  22.718 -10.806  1.00  0.00    -0.290 OA
HETATM    4  C5  UNL     1      -5.040  22.568  -9.236  1.00  0.00     0.055 C 
HETATM    5  S2  UNL     1      -5.033  22.462  -7.419  1.00  0.00    -0.070 SA
HETATM    6  C10 UNL     1      -3.283  22.703  -7.255  1.00  0.00     0.087 C 
HETATM    7  N4  UNL     1      -2.667  23.225  -6.304  1.00  0.00    -0.303 N 
ATOM      8  H4  UNL     1      -1.655  23.261  -6.424  1.00  0.00     0.186 HD
ENDROOT
BRANCH   4   9
HETATM    9  C6  UNL     1      -6.135  22.692  -9.902  1.00  0.00     0.045 C 
BRANCH   9  10
HETATM   10  C7  UNL     1      -6.424  23.514 -11.072  1.00  0.00     0.051 A 
HETATM   11  S1  UNL     1      -6.002  25.168 -11.302  1.00  0.00    -0.051 SA
HETATM   12  C8  UNL     1      -6.593  25.363 -12.892  1.00  0.00     0.144 A 
HETATM   13  N1  UNL     1      -6.587  26.418 -13.675  1.00  0.00    -0.380 N 
HETATM   14  N2  UNL     1      -7.084  24.151 -13.172  1.00  0.00    -0.324 N 
ATOM     15  H12 UNL     1      -6.214  27.343 -13.462  1.00  0.00     0.158 HD
ATOM     16  H11 UNL     1      -6.940  26.535 -14.625  1.00  0.00     0.158 HD
HETATM   17  C9  UNL     1      -7.004  23.216 -12.266  1.00  0.00     0.135 A 
ATOM     18  H2  UNL     1      -7.513  23.961 -14.077  1.00  0.00     0.169 HD
HETATM   19  N3  UNL     1      -7.477  21.856 -12.527  1.00  0.00    -0.081 NA
ENDBRANCH   9  10
ENDBRANCH   4   9
BRANCH   1  20
HETATM   20  C2  UNL     1      -1.373  22.600  -8.768  1.00  0.00     0.276 C 
HETATM   21  O2  UNL     1      -1.089  23.805  -8.636  1.00  0.00    -0.264 OA
BRANCH  20  22
HETATM   22  O1  UNL     1      -0.378  21.730  -9.169  1.00  0.00    -0.326 OA
HETATM   23  C1  UNL     1      -0.630  20.318  -9.214  1.00  0.00     0.213 C 
ENDBRANCH  20  22
ENDBRANCH   1  20
BRANCH   7  24
HETATM   24  N5  UNL     1      -3.119  23.758  -5.127  1.00  0.00    -0.344 N 
ATOM     25  H52 UNL     1      -4.104  23.563  -4.948  1.00  0.00     0.176 HD
ATOM     26  H51 UNL     1      -2.639  24.307  -4.413  1.00  0.00     0.176 HD
ENDBRANCH   7  24
TORSDOF 5
ENDMDL
MODEL 2
REMARK VINA RESULT: -7.781340937      1.276      1.538
REMARK  5 active torsions:
REMARK  status: ('A' for Active; 'I' for Inactive)
REMARK    1  A    between atoms: O1_2  and  C2_3 
REMARK    2  A    between atoms: C2_3  and  C3_5 
REMARK    3  A    between atoms: C5_8  and  C6_9 
REMARK    4  A    between atoms: C6_9  and  C7_10 
REMARK    5  A    between atoms: N4_22  and  N5_24 
ROOT
HETATM    1  C3  UNL     1      -2.588  21.762  -8.474  1.00  0.00     0.219 C 
HETATM    2  C4  UNL     1      -3.450  22.213  -9.632  1.00  0.00     0.186 C 
HETATM    3  O3  UNL     1      -2.924  22.364 -10.796  1.00  0.00    -0.290 OA
HETATM    4  C5  UNL     1      -4.812  22.422  -9.264  1.00  0.00     0.055 C 
HETATM    5  S2  UNL     1      -4.852  22.328  -7.447  1.00  0.00    -0.070 SA
HETATM    6  C10 UNL     1      -3.090  22.382  -7.248  1.00  0.00     0.087 C 
HETATM    7  N4  UNL     1      -2.442  22.842  -6.287  1.00  0.00    -0.303 N 
ATOM      8  H4  UNL     1      -1.429  22.768  -6.386  1.00  0.00     0.186 HD
ENDROOT
BRANCH   4   9
HETATM    9  C6  UNL     1      -5.874  22.659  -9.953  1.00  0.00     0.045 C 
BRANCH   9  10
HETATM   10  C7  UNL     1      -6.124  23.692 -10.951  1.00  0.00     0.051 A 
HETATM   11  S1  UNL     1      -7.102  23.551 -12.361  1.00  0.00    -0.051 SA
HETATM   12  C8  UNL     1      -6.958  25.153 -12.933  1.00  0.00     0.144 A 
HETATM   13  N1  UNL     1      -7.475  25.724 -13.999  1.00  0.00    -0.380 N 
HETATM   14  N2  UNL     1      -6.168  25.721 -12.015  1.00  0.00    -0.324 N 
ATOM     15  H12 UNL     1      -8.076  25.291 -14.699  1.00  0.00     0.158 HD
ATOM     16  H11 UNL     1      -7.389  26.680 -14.340  1.00  0.00     0.158 HD
HETATM   17  C9  UNL     1      -5.744  24.997 -11.017  1.00  0.00     0.135 A 
ATOM     18  H2  UNL     1      -5.902  26.703 -12.094  1.00  0.00     0.169 HD
HETATM   19  N3  UNL     1      -4.918  25.570  -9.953  1.00  0.00    -0.081 NA
ENDBRANCH   9  10
ENDBRANCH   4   9
BRANCH   1  20
HETATM   20  C2  UNL     1      -1.173  22.065  -8.721  1.00  0.00     0.276 C 
HETATM   21  O2  UNL     1      -0.783  23.247  -8.676  1.00  0.00    -0.264 OA
BRANCH  20  22
HETATM   22  O1  UNL     1      -0.250  21.078  -9.003  1.00  0.00    -0.326 OA
HETATM   23  C1  UNL     1      -0.690  19.764  -9.376  1.00  0.00     0.213 C 
ENDBRANCH  20  22
ENDBRANCH   1  20
BRANCH   7  24
HETATM   24  N5  UNL     1      -2.857  23.427  -5.121  1.00  0.00    -0.344 N 
ATOM     25  H52 UNL     1      -3.482  22.836  -4.574  1.00  0.00     0.176 HD
ATOM     26  H51 UNL     1      -2.646  24.341  -4.719  1.00  0.00     0.176 HD
ENDBRANCH   7  24
TORSDOF 5
ENDMDL
MODEL 3
REMARK VINA RESULT: -6.556491087      1.355      1.910
REMARK  5 active torsions:
REMARK  status: ('A' for Active; 'I' for Inactive)
REMARK    1  A    between atoms: O1_2  and  C2_3 
REMARK    2  A    between atoms: C2_3  and  C3_5 
REMARK    3  A    between atoms: C5_8  and  C6_9 
REMARK    4  A    between atoms: C6_9  and  C7_10 
REMARK    5  A    between atoms: N4_22  and  N5_24 
ROOT
HETATM    1  C3  UNL     1      -2.823  21.601  -8.346  1.00  0.00     0.219 C 
HETATM    2  C4  UNL     1      -3.636  22.054  -9.538  1.00  0.00     0.186 C 
HETATM    3  O3  UNL     1      -3.089  22.096 -10.701  1.00  0.00    -0.290 OA
HETATM    4  C5  UNL     1      -4.978  22.395  -9.199  1.00  0.00     0.055 C 
HETATM    5  S2  UNL     1      -5.042  22.407  -7.381  1.00  0.00    -0.070 SA
HETATM    6  C10 UNL     1      -3.283  22.328  -7.162  1.00  0.00     0.087 C 
HETATM    7  N4  UNL     1      -2.607  22.786  -6.220  1.00  0.00    -0.303 N 
ATOM      8  H4  UNL     1      -1.603  22.625  -6.302  1.00  0.00     0.186 HD
ENDROOT
BRANCH   4   9
HETATM    9  C6  UNL     1      -6.011  22.678  -9.915  1.00  0.00     0.045 C 
BRANCH   9  10
HETATM   10  C7  UNL     1      -6.187  23.715 -10.925  1.00  0.00     0.051 A 
HETATM   11  S1  UNL     1      -7.141  23.613 -12.355  1.00  0.00    -0.051 SA
HETATM   12  C8  UNL     1      -6.904  25.201 -12.934  1.00  0.00     0.144 A 
HETATM   13  N1  UNL     1      -7.368  25.789 -14.014  1.00  0.00    -0.380 N 
HETATM   14  N2  UNL     1      -6.107  25.736 -12.002  1.00  0.00    -0.324 N 
ATOM     15  H12 UNL     1      -7.975  25.382 -14.725  1.00  0.00     0.158 HD
ATOM     16  H11 UNL     1      -7.227  26.738 -14.360  1.00  0.00     0.158 HD
HETATM   17  C9  UNL     1      -5.741  24.999 -10.990  1.00  0.00     0.135 A 
ATOM     18  H2  UNL     1      -5.790  26.702 -12.082  1.00  0.00     0.169 HD
HETATM   19  N3  UNL     1      -4.911  25.538  -9.912  1.00  0.00    -0.081 NA
ENDBRANCH   9  10
ENDBRANCH   4   9
BRANCH   1  20
HETATM   20  C2  UNL     1      -1.385  21.773  -8.590  1.00  0.00     0.276 C 
HETATM   21  O2  UNL     1      -0.713  20.807  -8.997  1.00  0.00    -0.264 OA
BRANCH  20  22
HETATM   22  O1  UNL     1      -0.746  22.979  -8.383  1.00  0.00    -0.326 OA
HETATM   23  C1  UNL     1      -1.111  24.131  -9.157  1.00  0.00     0.213 C 
ENDBRANCH  20  22
ENDBRANCH   1  20
BRANCH   7  24
HETATM   24  N5  UNL     1      -2.982  23.469  -5.094  1.00  0.00    -0.344 N 
ATOM     25  H52 UNL     1      -3.700  24.172  -5.270  1.00  0.00     0.176 HD
ATOM     26  H51 UNL     1      -2.667  23.390  -4.127  1.00  0.00     0.176 HD
ENDBRANCH   7  24
TORSDOF 5
ENDMDL
MODEL 4
REMARK VINA RESULT: -6.305247667      2.279      2.710
REMARK  5 active torsions:
REMARK  status: ('A' for Active; 'I' for Inactive)
REMARK    1  A    between atoms: O1_2  and  C2_3 
REMARK    2  A    between atoms: C2_3  and  C3_5 
REMARK    3  A    between atoms: C5_8  and  C6_9 
REMARK    4  A    between atoms: C6_9  and  C7_10 
REMARK    5  A    between atoms: N4_22  and  N5_24 
ROOT
HETATM    1  C3  UNL     1      -2.521  23.540  -8.816  1.00  0.00     0.219 C 
HETATM    2  C4  UNL     1      -3.848  23.321  -9.508  1.00  0.00     0.186 C 
HETATM    3  O3  UNL     1      -4.924  23.788  -8.981  1.00  0.00    -0.290 OA
HETATM    4  C5  UNL     1      -3.727  22.586 -10.724  1.00  0.00     0.055 C 
HETATM    5  S2  UNL     1      -2.015  21.971 -10.761  1.00  0.00    -0.070 SA
HETATM    6  C10 UNL     1      -1.664  22.382  -9.072  1.00  0.00     0.087 C 
HETATM    7  N4  UNL     1      -0.872  21.814  -8.294  1.00  0.00    -0.303 N 
ATOM      8  H4  UNL     1      -0.830  22.222  -7.360  1.00  0.00     0.186 HD
ENDROOT
BRANCH   4   9
HETATM    9  C6  UNL     1      -4.564  22.318 -11.665  1.00  0.00     0.045 C 
BRANCH   9  10
HETATM   10  C7  UNL     1      -5.698  23.095 -12.153  1.00  0.00     0.051 A 
HETATM   11  S1  UNL     1      -5.643  24.652 -12.888  1.00  0.00    -0.051 SA
HETATM   12  C8  UNL     1      -7.305  24.827 -13.237  1.00  0.00     0.144 A 
HETATM   13  N1  UNL     1      -7.952  25.817 -13.811  1.00  0.00    -0.380 N 
HETATM   14  N2  UNL     1      -7.823  23.684 -12.775  1.00  0.00    -0.324 N 
ATOM     15  H12 UNL     1      -7.558  26.689 -14.163  1.00  0.00     0.158 HD
ATOM     16  H11 UNL     1      -8.944  25.922 -14.020  1.00  0.00     0.158 HD
HETATM   17  C9  UNL     1      -7.025  22.808 -12.229  1.00  0.00     0.135 A 
ATOM     18  H2  UNL     1      -8.824  23.500 -12.848  1.00  0.00     0.169 HD
HETATM   19  N3  UNL     1      -7.521  21.517 -11.748  1.00  0.00    -0.081 NA
ENDBRANCH   9  10
ENDBRANCH   4   9
BRANCH   1  20
HETATM   20  C2  UNL     1      -2.709  23.796  -7.382  1.00  0.00     0.276 C 
HETATM   21  O2  UNL     1      -2.831  24.968  -6.981  1.00  0.00    -0.264 OA
BRANCH  20  22
HETATM   22  O1  UNL     1      -2.757  22.775  -6.455  1.00  0.00    -0.326 OA
HETATM   23  C1  UNL     1      -4.021  22.238  -6.038  1.00  0.00     0.213 C 
ENDBRANCH  20  22
ENDBRANCH   1  20
BRANCH   7  24
HETATM   24  N5  UNL     1      -0.049  20.736  -8.480  1.00  0.00    -0.344 N 
ATOM     25  H52 UNL     1      -0.461  20.011  -9.068  1.00  0.00     0.176 HD
ATOM     26  H51 UNL     1       0.891  20.543  -8.132  1.00  0.00     0.176 HD
ENDBRANCH   7  24
TORSDOF 5
ENDMDL
MODEL 5
REMARK VINA RESULT: -6.283390376      2.666      3.285
REMARK  5 active torsions:
REMARK  status: ('A' for Active; 'I' for Inactive)
REMARK    1  A    between atoms: O1_2  and  C2_3 
REMARK    2  A    between atoms: C2_3  and  C3_5 
REMARK    3  A    between atoms: C5_8  and  C6_9 
REMARK    4  A    between atoms: C6_9  and  C7_10 
REMARK    5  A    between atoms: N4_22  and  N5_24 
ROOT
HETATM    1  C3  UNL     1      -2.189  22.663  -8.633  1.00  0.00     0.219 C 
HETATM    2  C4  UNL     1      -3.610  22.449  -9.105  1.00  0.00     0.186 C 
HETATM    3  O3  UNL     1      -4.540  22.233  -8.243  1.00  0.00    -0.290 OA
HETATM    4  C5  UNL     1      -3.743  22.519 -10.523  1.00  0.00     0.055 C 
HETATM    5  S2  UNL     1      -2.045  22.552 -11.177  1.00  0.00    -0.070 SA
HETATM    6  C10 UNL     1      -1.276  22.119  -9.639  1.00  0.00     0.087 C 
HETATM    7  N4  UNL     1      -0.209  21.497  -9.465  1.00  0.00    -0.303 N 
ATOM      8  H4  UNL     1       0.044  21.357  -8.486  1.00  0.00     0.186 HD
ENDROOT
BRANCH   4   9
HETATM    9  C6  UNL     1      -4.769  22.539 -11.301  1.00  0.00     0.045 C 
BRANCH   9  10
HETATM   10  C7  UNL     1      -5.503  23.677 -11.844  1.00  0.00     0.051 A 
HETATM   11  S1  UNL     1      -6.379  23.729 -13.326  1.00  0.00    -0.051 SA
HETATM   12  C8  UNL     1      -6.996  25.316 -13.202  1.00  0.00     0.144 A 
HETATM   13  N1  UNL     1      -7.763  25.995 -14.025  1.00  0.00    -0.380 N 
HETATM   14  N2  UNL     1      -6.502  25.730 -12.030  1.00  0.00    -0.324 N 
ATOM     15  H12 UNL     1      -8.139  25.680 -14.919  1.00  0.00     0.158 HD
ATOM     16  H11 UNL     1      -8.131  26.943 -13.951  1.00  0.00     0.158 HD
HETATM   17  C9  UNL     1      -5.752  24.916 -11.340  1.00  0.00     0.135 A 
ATOM     18  H2  UNL     1      -6.709  26.667 -11.681  1.00  0.00     0.169 HD
HETATM   19  N3  UNL     1      -5.222  25.290 -10.028  1.00  0.00    -0.081 NA
ENDBRANCH   9  10
ENDBRANCH   4   9
BRANCH   1  20
HETATM   20  C2  UNL     1      -1.979  22.076  -7.304  1.00  0.00     0.276 C 
HETATM   21  O2  UNL     1      -1.464  20.947  -7.208  1.00  0.00    -0.264 OA
BRANCH  20  22
HETATM   22  O1  UNL     1      -2.336  22.737  -6.146  1.00  0.00    -0.326 OA
HETATM   23  C1  UNL     1      -2.785  24.099  -6.203  1.00  0.00     0.213 C 
ENDBRANCH  20  22
ENDBRANCH   1  20
BRANCH   7  24
HETATM   24  N5  UNL     1       0.680  20.969 -10.363  1.00  0.00    -0.344 N 
ATOM     25  H52 UNL     1       1.244  21.677 -10.833  1.00  0.00     0.176 HD
ATOM     26  H51 UNL     1       0.866  20.003 -10.632  1.00  0.00     0.176 HD
ENDBRANCH   7  24
TORSDOF 5
ENDMDL
