MODEL 1
REMARK VINA RESULT: -6.395211483      0.000      0.000
REMARK  9 active torsions:
REMARK  status: ('A' for Active; 'I' for Inactive)
REMARK    1  A    between atoms: C3_3  and  C5_5 
REMARK    2  A    between atoms: C5_5  and  C6_6 
REMARK    3  A    between atoms: C6_6  and  C8_8 
REMARK    4  A    between atoms: C15_15  and  O1_16 
REMARK    5  A    between atoms: C19_21  and  O2_22 
REMARK    6  A    between atoms: O2_22  and  C20_23 
REMARK    7  A    between atoms: C20_23  and  C21_25 
REMARK    8  A    between atoms: C26_30  and  C27_31 
REMARK    9  A    between atoms: C26_30  and  C29_33 
ROOT
HETATM    1  C1  UNL     1      48.847  30.263  36.050  1.00  0.00     0.012 C 
HETATM    2  C2  UNL     1      50.017  30.569  36.006  1.00  0.00    -0.113 C 
HETATM    3  C3  UNL     1      51.439  30.967  35.953  1.00  0.00     0.064 C 
HETATM    4  C4  UNL     1      52.190  29.827  36.619  1.00  0.00     0.023 C 
ENDROOT
BRANCH   3   5
HETATM    5  C5  UNL     1      51.695  32.182  36.807  1.00  0.00     0.051 C 
BRANCH   5   6
HETATM    6  C6  UNL     1      51.599  33.476  36.058  1.00  0.00    -0.075 C 
HETATM    7  C7  UNL     1      52.915  34.069  35.695  1.00  0.00     0.044 C 
BRANCH   6   8
HETATM    8  C8  UNL     1      50.501  34.377  36.465  1.00  0.00    -0.046 C 
HETATM    9  C9  UNL     1      49.440  34.778  35.516  1.00  0.00    -0.066 C 
HETATM   10  C10 UNL     1      49.864  35.717  34.412  1.00  0.00     0.035 C 
HETATM   11  C14 UNL     1      48.429  33.768  35.109  1.00  0.00     0.044 C 
HETATM   12  C11 UNL     1      48.551  36.356  33.906  1.00  0.00     0.004 C 
HETATM   13  C12 UNL     1      47.696  35.310  33.234  1.00  0.00     0.001 C 
HETATM   14  C13 UNL     1      47.962  33.920  33.676  1.00  0.00     0.011 C 
HETATM   15  C15 UNL     1      47.165  33.783  35.949  1.00  0.00     0.126 C 
HETATM   16  C16 UNL     1      47.494  34.124  37.387  1.00  0.00     0.039 C 
HETATM   17  C17 UNL     1      48.649  33.407  37.944  1.00  0.00     0.022 C 
HETATM   18  C18 UNL     1      49.985  34.021  37.830  1.00  0.00     0.054 C 
HETATM   19  C26 UNL     1      48.580  33.293  39.478  1.00  0.00     0.072 C 
HETATM   20  C19 UNL     1      50.003  35.159  38.827  1.00  0.00     0.142 C 
HETATM   21  C25 UNL     1      49.181  34.603  39.968  1.00  0.00     0.058 C 
BRANCH  15  22
HETATM   22  O1  UNL     1      46.246  34.732  35.514  1.00  0.00    -0.395 OA
ATOM     23  H1  UNL     1      45.418  34.678  35.977  1.00  0.00     0.210 HD
ENDBRANCH  15  22
BRANCH  20  24
HETATM   24  O2  UNL     1      49.524  36.360  38.332  1.00  0.00    -0.311 OA
BRANCH  24  25
HETATM   25  C20 UNL     1      50.263  37.506  38.404  1.00  0.00     0.289 C 
HETATM   26  O3  UNL     1      49.962  38.431  39.212  1.00  0.00    -0.260 OA
BRANCH  25  27
HETATM   27  C21 UNL     1      51.428  37.718  37.558  1.00  0.00     0.009 C 
HETATM   28  C22 UNL     1      51.284  38.556  36.346  1.00  0.00     0.054 C 
HETATM   29  C23 UNL     1      52.604  37.191  37.832  1.00  0.00    -0.018 C 
HETATM   30  C24 UNL     1      53.778  37.422  36.954  1.00  0.00     0.036 C 
ENDBRANCH  25  27
ENDBRANCH  24  25
ENDBRANCH  20  24
BRANCH  19  31
HETATM   31  C27 UNL     1      47.249  33.029  39.998  1.00  0.00    -0.016 C 
HETATM   32  C28 UNL     1      47.004  32.854  41.289  1.00  0.00     0.008 C 
ENDBRANCH  19  31
BRANCH  19  33
HETATM   33  C29 UNL     1      49.552  32.216  39.859  1.00  0.00     0.186 C 
HETATM   34  O4  UNL     1      49.468  31.043  39.417  1.00  0.00    -0.647 OA
HETATM   35  O5  UNL     1      50.583  32.502  40.725  1.00  0.00    -0.647 OA
ENDBRANCH  19  33
ENDBRANCH   6   8
ENDBRANCH   5   6
ENDBRANCH   3   5
TORSDOF 9
ENDMDL
MODEL 2
REMARK VINA RESULT: -6.136245805      2.706      6.124
REMARK  9 active torsions:
REMARK  status: ('A' for Active; 'I' for Inactive)
REMARK    1  A    between atoms: C3_3  and  C5_5 
REMARK    2  A    between atoms: C5_5  and  C6_6 
REMARK    3  A    between atoms: C6_6  and  C8_8 
REMARK    4  A    between atoms: C15_15  and  O1_16 
REMARK    5  A    between atoms: C19_21  and  O2_22 
REMARK    6  A    between atoms: O2_22  and  C20_23 
REMARK    7  A    between atoms: C20_23  and  C21_25 
REMARK    8  A    between atoms: C26_30  and  C27_31 
REMARK    9  A    between atoms: C26_30  and  C29_33 
ROOT
HETATM    1  C1  UNL     1      49.366  24.252  38.125  1.00  0.00     0.012 C 
HETATM    2  C2  UNL     1      48.814  25.328  38.048  1.00  0.00    -0.113 C 
HETATM    3  C3  UNL     1      48.151  26.645  37.978  1.00  0.00     0.064 C 
HETATM    4  C4  UNL     1      48.093  26.976  36.496  1.00  0.00     0.023 C 
ENDROOT
BRANCH   3   5
HETATM    5  C5  UNL     1      49.005  27.717  38.604  1.00  0.00     0.051 C 
BRANCH   5   6
HETATM    6  C6  UNL     1      48.250  28.629  39.523  1.00  0.00    -0.075 C 
HETATM    7  C7  UNL     1      47.053  28.007  40.152  1.00  0.00     0.044 C 
BRANCH   6   8
HETATM    8  C8  UNL     1      48.180  30.046  39.111  1.00  0.00    -0.046 C 
HETATM    9  C9  UNL     1      48.178  31.139  40.108  1.00  0.00    -0.066 C 
HETATM   10  C10 UNL     1      46.925  31.271  40.939  1.00  0.00     0.035 C 
HETATM   11  C14 UNL     1      49.436  31.437  40.840  1.00  0.00     0.044 C 
HETATM   12  C11 UNL     1      46.965  32.712  41.496  1.00  0.00     0.004 C 
HETATM   13  C12 UNL     1      48.108  32.855  42.470  1.00  0.00     0.001 C 
HETATM   14  C13 UNL     1      49.214  31.889  42.270  1.00  0.00     0.011 C 
HETATM   15  C15 UNL     1      50.283  32.524  40.202  1.00  0.00     0.126 C 
HETATM   16  C16 UNL     1      50.174  32.456  38.693  1.00  0.00     0.039 C 
HETATM   17  C17 UNL     1      50.292  31.107  38.126  1.00  0.00     0.022 C 
HETATM   18  C18 UNL     1      49.066  30.312  37.928  1.00  0.00     0.054 C 
HETATM   19  C26 UNL     1      50.787  31.130  36.667  1.00  0.00     0.072 C 
HETATM   20  C19 UNL     1      48.362  30.928  36.740  1.00  0.00     0.142 C 
HETATM   21  C25 UNL     1      49.517  31.340  35.855  1.00  0.00     0.058 C 
BRANCH  15  22
HETATM   22  O1  UNL     1      49.880  33.802  40.574  1.00  0.00    -0.395 OA
ATOM     23  H1  UNL     1      49.190  34.144  40.018  1.00  0.00     0.210 HD
ENDBRANCH  15  22
BRANCH  20  24
HETATM   24  O2  UNL     1      47.509  31.971  37.058  1.00  0.00    -0.311 OA
BRANCH  24  25
HETATM   25  C20 UNL     1      47.416  33.083  36.270  1.00  0.00     0.289 C 
HETATM   26  O3  UNL     1      46.648  33.113  35.266  1.00  0.00    -0.260 OA
BRANCH  25  27
HETATM   27  C21 UNL     1      48.193  34.281  36.545  1.00  0.00     0.009 C 
HETATM   28  C22 UNL     1      47.975  34.993  37.824  1.00  0.00     0.054 C 
HETATM   29  C23 UNL     1      49.083  34.756  35.696  1.00  0.00    -0.018 C 
HETATM   30  C24 UNL     1      49.864  35.981  35.999  1.00  0.00     0.036 C 
ENDBRANCH  25  27
ENDBRANCH  24  25
ENDBRANCH  20  24
BRANCH  19  31
HETATM   31  C27 UNL     1      51.822  32.115  36.403  1.00  0.00    -0.016 C 
HETATM   32  C28 UNL     1      52.109  32.545  35.183  1.00  0.00     0.008 C 
ENDBRANCH  19  31
BRANCH  19  33
HETATM   33  C29 UNL     1      51.254  29.737  36.365  1.00  0.00     0.186 C 
HETATM   34  O4  UNL     1      52.120  29.149  37.060  1.00  0.00    -0.647 OA
HETATM   35  O5  UNL     1      50.728  29.058  35.289  1.00  0.00    -0.647 OA
ENDBRANCH  19  33
ENDBRANCH   6   8
ENDBRANCH   5   6
ENDBRANCH   3   5
TORSDOF 9
ENDMDL
MODEL 3
REMARK VINA RESULT: -5.971616292      1.802      4.871
REMARK  9 active torsions:
REMARK  status: ('A' for Active; 'I' for Inactive)
REMARK    1  A    between atoms: C3_3  and  C5_5 
REMARK    2  A    between atoms: C5_5  and  C6_6 
REMARK    3  A    between atoms: C6_6  and  C8_8 
REMARK    4  A    between atoms: C15_15  and  O1_16 
REMARK    5  A    between atoms: C19_21  and  O2_22 
REMARK    6  A    between atoms: O2_22  and  C20_23 
REMARK    7  A    between atoms: C20_23  and  C21_25 
REMARK    8  A    between atoms: C26_30  and  C27_31 
REMARK    9  A    between atoms: C26_30  and  C29_33 
ROOT
HETATM    1  C1  UNL     1      50.669  35.657  37.437  1.00  0.00     0.012 C 
HETATM    2  C2  UNL     1      51.443  35.080  36.706  1.00  0.00    -0.113 C 
HETATM    3  C3  UNL     1      52.381  34.354  35.825  1.00  0.00     0.064 C 
HETATM    4  C4  UNL     1      52.465  35.197  34.564  1.00  0.00     0.023 C 
ENDROOT
BRANCH   3   5
HETATM    5  C5  UNL     1      51.807  33.029  35.395  1.00  0.00     0.051 C 
BRANCH   5   6
HETATM    6  C6  UNL     1      51.513  32.102  36.534  1.00  0.00    -0.075 C 
HETATM    7  C7  UNL     1      52.597  31.123  36.820  1.00  0.00     0.044 C 
BRANCH   6   8
HETATM    8  C8  UNL     1      50.108  31.663  36.663  1.00  0.00    -0.046 C 
HETATM    9  C9  UNL     1      49.695  30.286  36.314  1.00  0.00    -0.066 C 
HETATM   10  C10 UNL     1      49.715  29.945  34.844  1.00  0.00     0.035 C 
HETATM   11  C14 UNL     1      50.101  29.172  37.210  1.00  0.00     0.044 C 
HETATM   12  C11 UNL     1      48.801  28.706  34.709  1.00  0.00     0.004 C 
HETATM   13  C12 UNL     1      49.432  27.524  35.403  1.00  0.00     0.001 C 
HETATM   14  C13 UNL     1      50.390  27.879  36.476  1.00  0.00     0.011 C 
HETATM   15  C15 UNL     1      49.069  28.816  38.263  1.00  0.00     0.126 C 
HETATM   16  C16 UNL     1      48.343  30.060  38.731  1.00  0.00     0.039 C 
HETATM   17  C17 UNL     1      49.212  31.209  39.019  1.00  0.00     0.022 C 
HETATM   18  C18 UNL     1      49.496  32.171  37.937  1.00  0.00     0.054 C 
HETATM   19  C26 UNL     1      48.575  32.182  40.029  1.00  0.00     0.072 C 
HETATM   20  C19 UNL     1      48.225  32.969  37.751  1.00  0.00     0.142 C 
HETATM   21  C25 UNL     1      47.702  33.082  39.166  1.00  0.00     0.058 C 
BRANCH  15  22
HETATM   22  O1  UNL     1      48.096  27.944  37.784  1.00  0.00    -0.395 OA
ATOM     23  H1  UNL     1      47.235  28.345  37.742  1.00  0.00     0.210 HD
ENDBRANCH  15  22
BRANCH  20  24
HETATM   24  O2  UNL     1      47.319  32.404  36.870  1.00  0.00    -0.311 OA
BRANCH  24  25
HETATM   25  C20 UNL     1      47.243  32.810  35.567  1.00  0.00     0.289 C 
HETATM   26  O3  UNL     1      46.948  31.998  34.643  1.00  0.00    -0.260 OA
BRANCH  25  27
HETATM   27  C21 UNL     1      47.496  34.190  35.181  1.00  0.00     0.009 C 
HETATM   28  C22 UNL     1      46.537  35.235  35.604  1.00  0.00     0.054 C 
HETATM   29  C23 UNL     1      48.547  34.541  34.468  1.00  0.00    -0.018 C 
HETATM   30  C24 UNL     1      48.784  35.956  34.087  1.00  0.00     0.036 C 
ENDBRANCH  25  27
ENDBRANCH  24  25
ENDBRANCH  20  24
BRANCH  19  31
HETATM   31  C27 UNL     1      47.857  31.534  41.112  1.00  0.00    -0.016 C 
HETATM   32  C28 UNL     1      46.937  32.154  41.837  1.00  0.00     0.008 C 
ENDBRANCH  19  31
BRANCH  19  33
HETATM   33  C29 UNL     1      49.693  33.044  40.538  1.00  0.00     0.186 C 
HETATM   34  O4  UNL     1      50.815  32.576  40.856  1.00  0.00    -0.647 OA
HETATM   35  O5  UNL     1      49.504  34.401  40.670  1.00  0.00    -0.647 OA
ENDBRANCH  19  33
ENDBRANCH   6   8
ENDBRANCH   5   6
ENDBRANCH   3   5
TORSDOF 9
ENDMDL
MODEL 4
REMARK VINA RESULT: -5.956755103     12.544     16.284
REMARK  9 active torsions:
REMARK  status: ('A' for Active; 'I' for Inactive)
REMARK    1  A    between atoms: C3_3  and  C5_5 
REMARK    2  A    between atoms: C5_5  and  C6_6 
REMARK    3  A    between atoms: C6_6  and  C8_8 
REMARK    4  A    between atoms: C15_15  and  O1_16 
REMARK    5  A    between atoms: C19_21  and  O2_22 
REMARK    6  A    between atoms: O2_22  and  C20_23 
REMARK    7  A    between atoms: C20_23  and  C21_25 
REMARK    8  A    between atoms: C26_30  and  C27_31 
REMARK    9  A    between atoms: C26_30  and  C29_33 
ROOT
HETATM    1  C1  UNL     1      45.944  28.852  47.261  1.00  0.00     0.012 C 
HETATM    2  C2  UNL     1      45.410  27.774  47.122  1.00  0.00    -0.113 C 
HETATM    3  C3  UNL     1      44.745  26.468  46.934  1.00  0.00     0.064 C 
HETATM    4  C4  UNL     1      45.794  25.436  47.312  1.00  0.00     0.023 C 
ENDROOT
BRANCH   3   5
HETATM    5  C5  UNL     1      44.434  26.222  45.480  1.00  0.00     0.051 C 
BRANCH   5   6
HETATM    6  C6  UNL     1      42.989  25.930  45.215  1.00  0.00    -0.075 C 
HETATM    7  C7  UNL     1      42.060  27.017  45.631  1.00  0.00     0.044 C 
BRANCH   6   8
HETATM    8  C8  UNL     1      42.568  24.526  45.403  1.00  0.00    -0.046 C 
HETATM    9  C9  UNL     1      41.156  24.173  45.666  1.00  0.00    -0.066 C 
HETATM   10  C10 UNL     1      40.622  24.563  47.024  1.00  0.00     0.035 C 
HETATM   11  C14 UNL     1      40.173  24.295  44.560  1.00  0.00     0.044 C 
HETATM   12  C11 UNL     1      39.375  23.675  47.232  1.00  0.00     0.004 C 
HETATM   13  C12 UNL     1      38.297  24.064  46.250  1.00  0.00     0.001 C 
HETATM   14  C13 UNL     1      38.793  24.722  45.019  1.00  0.00     0.011 C 
HETATM   15  C15 UNL     1      39.958  23.013  43.776  1.00  0.00     0.126 C 
HETATM   16  C16 UNL     1      41.252  22.233  43.680  1.00  0.00     0.039 C 
HETATM   17  C17 UNL     1      42.431  23.035  43.326  1.00  0.00     0.022 C 
HETATM   18  C18 UNL     1      43.240  23.621  44.410  1.00  0.00     0.054 C 
HETATM   19  C26 UNL     1      43.529  22.190  42.653  1.00  0.00     0.072 C 
HETATM   20  C19 UNL     1      44.004  22.469  45.025  1.00  0.00     0.142 C 
HETATM   21  C25 UNL     1      44.304  21.601  43.823  1.00  0.00     0.058 C 
BRANCH  15  22
HETATM   22  O1  UNL     1      39.028  22.170  44.377  1.00  0.00    -0.395 OA
ATOM     23  H1  UNL     1      38.943  21.339  43.924  1.00  0.00     0.210 HD
ENDBRANCH  15  22
BRANCH  20  24
HETATM   24  O2  UNL     1      43.325  21.806  46.032  1.00  0.00    -0.311 OA
BRANCH  24  25
HETATM   25  C20 UNL     1      43.838  21.709  47.294  1.00  0.00     0.289 C 
HETATM   26  O3  UNL     1      45.044  22.001  47.537  1.00  0.00    -0.260 OA
BRANCH  25  27
HETATM   27  C21 UNL     1      43.024  21.269  48.417  1.00  0.00     0.009 C 
HETATM   28  C22 UNL     1      41.589  20.988  48.190  1.00  0.00     0.054 C 
HETATM   29  C23 UNL     1      43.520  21.112  49.628  1.00  0.00    -0.018 C 
HETATM   30  C24 UNL     1      42.670  20.661  50.758  1.00  0.00     0.036 C 
ENDBRANCH  25  27
ENDBRANCH  24  25
ENDBRANCH  20  24
BRANCH  19  31
HETATM   31  C27 UNL     1      43.029  21.193  41.721  1.00  0.00    -0.016 C 
HETATM   32  C28 UNL     1      43.600  20.008  41.562  1.00  0.00     0.008 C 
ENDBRANCH  19  31
BRANCH  19  33
HETATM   33  C29 UNL     1      44.453  23.165  41.984  1.00  0.00     0.186 C 
HETATM   34  O4  UNL     1      44.052  24.255  41.505  1.00  0.00    -0.647 OA
HETATM   35  O5  UNL     1      45.794  22.874  41.880  1.00  0.00    -0.647 OA
ENDBRANCH  19  33
ENDBRANCH   6   8
ENDBRANCH   5   6
ENDBRANCH   3   5
TORSDOF 9
ENDMDL
MODEL 5
REMARK VINA RESULT: -5.950897806      2.721      5.862
REMARK  9 active torsions:
REMARK  status: ('A' for Active; 'I' for Inactive)
REMARK    1  A    between atoms: C3_3  and  C5_5 
REMARK    2  A    between atoms: C5_5  and  C6_6 
REMARK    3  A    between atoms: C6_6  and  C8_8 
REMARK    4  A    between atoms: C15_15  and  O1_16 
REMARK    5  A    between atoms: C19_21  and  O2_22 
REMARK    6  A    between atoms: O2_22  and  C20_23 
REMARK    7  A    between atoms: C20_23  and  C21_25 
REMARK    8  A    between atoms: C26_30  and  C27_31 
REMARK    9  A    between atoms: C26_30  and  C29_33 
ROOT
HETATM    1  C1  UNL     1      47.762  24.949  39.193  1.00  0.00     0.012 C 
HETATM    2  C2  UNL     1      47.986  26.080  39.565  1.00  0.00    -0.113 C 
HETATM    3  C3  UNL     1      48.276  27.460  40.002  1.00  0.00     0.064 C 
HETATM    4  C4  UNL     1      46.964  27.977  40.567  1.00  0.00     0.023 C 
ENDROOT
BRANCH   3   5
HETATM    5  C5  UNL     1      48.593  28.347  38.826  1.00  0.00     0.051 C 
BRANCH   5   6
HETATM    6  C6  UNL     1      47.467  29.254  38.434  1.00  0.00    -0.075 C 
HETATM    7  C7  UNL     1      46.579  28.703  37.375  1.00  0.00     0.044 C 
BRANCH   6   8
HETATM    8  C8  UNL     1      47.778  30.699  38.420  1.00  0.00    -0.046 C 
HETATM    9  C9  UNL     1      47.985  31.456  39.673  1.00  0.00    -0.066 C 
HETATM   10  C10 UNL     1      46.753  31.682  40.517  1.00  0.00     0.035 C 
HETATM   11  C14 UNL     1      49.228  31.220  40.451  1.00  0.00     0.044 C 
HETATM   12  C11 UNL     1      47.115  32.867  41.441  1.00  0.00     0.004 C 
HETATM   13  C12 UNL     1      48.193  32.453  42.411  1.00  0.00     0.001 C 
HETATM   14  C13 UNL     1      49.035  31.323  41.951  1.00  0.00     0.011 C 
HETATM   15  C15 UNL     1      50.357  32.180  40.124  1.00  0.00     0.126 C 
HETATM   16  C16 UNL     1      50.330  32.540  38.653  1.00  0.00     0.039 C 
HETATM   17  C17 UNL     1      50.145  31.402  37.742  1.00  0.00     0.022 C 
HETATM   18  C18 UNL     1      48.775  31.029  37.346  1.00  0.00     0.054 C 
HETATM   19  C26 UNL     1      50.722  31.678  36.341  1.00  0.00     0.072 C 
HETATM   20  C19 UNL     1      48.322  32.093  36.371  1.00  0.00     0.142 C 
HETATM   21  C25 UNL     1      49.597  32.412  35.623  1.00  0.00     0.058 C 
BRANCH  15  22
HETATM   22  O1  UNL     1      50.261  33.376  40.828  1.00  0.00    -0.395 OA
ATOM     23  H1  UNL     1      50.358  33.256  41.766  1.00  0.00     0.210 HD
ENDBRANCH  15  22
BRANCH  20  24
HETATM   24  O2  UNL     1      47.737  33.199  36.964  1.00  0.00    -0.311 OA
BRANCH  24  25
HETATM   25  C20 UNL     1      48.044  34.468  36.564  1.00  0.00     0.289 C 
HETATM   26  O3  UNL     1      47.600  34.939  35.477  1.00  0.00    -0.260 OA
BRANCH  25  27
HETATM   27  C21 UNL     1      48.892  35.338  37.365  1.00  0.00     0.009 C 
HETATM   28  C22 UNL     1      50.099  35.925  36.743  1.00  0.00     0.054 C 
HETATM   29  C23 UNL     1      48.623  35.619  38.624  1.00  0.00    -0.018 C 
HETATM   30  C24 UNL     1      49.504  36.509  39.421  1.00  0.00     0.036 C 
ENDBRANCH  25  27
ENDBRANCH  24  25
ENDBRANCH  20  24
BRANCH  19  31
HETATM   31  C27 UNL     1      51.983  32.400  36.345  1.00  0.00    -0.016 C 
HETATM   32  C28 UNL     1      52.335  33.236  35.379  1.00  0.00     0.008 C 
ENDBRANCH  19  31
BRANCH  19  33
HETATM   33  C29 UNL     1      50.846  30.341  35.672  1.00  0.00     0.186 C 
HETATM   34  O4  UNL     1      50.463  30.138  34.493  1.00  0.00    -0.647 OA
HETATM   35  O5  UNL     1      51.399  29.283  36.358  1.00  0.00    -0.647 OA
ENDBRANCH  19  33
ENDBRANCH   6   8
ENDBRANCH   5   6
ENDBRANCH   3   5
TORSDOF 9
ENDMDL
