MODEL 1
REMARK VINA RESULT: -10.023684646      0.000      0.000
REMARK  7 active torsions:
REMARK  status: ('A' for Active; 'I' for Inactive)
REMARK    1  A    between atoms: C6_6  and  C7_7 
REMARK    2  A    between atoms: C7_7  and  C9_10 
REMARK    3  A    between atoms: C7_7  and  C22_29 
REMARK       I    between atoms: C9_10  and  N2_12 
REMARK    4  A    between atoms: N2_12  and  C10_14 
REMARK    5  A    between atoms: C10_14  and  C11_15 
REMARK    6  A    between atoms: N3_18  and  C14_19 
REMARK    7  A    between atoms: C19_24  and  O2_25 
ROOT
HETATM    1  C7  UNL     1      48.465  32.657  39.678  1.00  0.00     0.137 C 
HETATM    2  C8  UNL     1      49.878  32.647  40.147  1.00  0.00     0.080 C 
HETATM    3  N1  UNL     1      50.994  32.617  40.522  1.00  0.00    -0.196 NA
ENDROOT
BRANCH   1   4
HETATM    4  C6  UNL     1      48.224  31.308  39.135  1.00  0.00     0.018 C 
HETATM    5  C5  UNL     1      47.986  30.244  40.158  1.00  0.00     0.007 C 
HETATM    6  C4  UNL     1      47.032  29.244  39.439  1.00  0.00     0.001 C 
HETATM    7  C3  UNL     1      47.676  28.788  38.186  1.00  0.00     0.004 C 
HETATM    8  C2  UNL     1      49.021  29.327  37.858  1.00  0.00    -0.018 C 
HETATM    9  C1  UNL     1      49.280  29.059  36.378  1.00  0.00     0.010 C 
HETATM   10  C28 UNL     1      49.187  30.815  38.075  1.00  0.00     0.011 C 
ENDBRANCH   1   4
BRANCH   1  11
HETATM   11  C9  UNL     1      47.696  32.795  41.010  1.00  0.00     0.244 C 
HETATM   12  O1  UNL     1      46.461  32.901  40.966  1.00  0.00    -0.271 OA
HETATM   13  N2  UNL     1      48.394  32.801  42.222  1.00  0.00    -0.339 N 
ATOM     14  H2  UNL     1      49.406  32.714  42.138  1.00  0.00     0.167 HD
BRANCH  13  15
HETATM   15  C10 UNL     1      47.912  32.907  43.536  1.00  0.00     0.068 C 
BRANCH  15  16
HETATM   16  C11 UNL     1      48.453  32.094  44.634  1.00  0.00     0.027 C 
HETATM   17  C12 UNL     1      47.560  31.367  45.557  1.00  0.00     0.040 C 
HETATM   18  C13 UNL     1      48.451  30.978  46.773  1.00  0.00     0.273 C 
HETATM   19  N3  UNL     1      49.387  30.000  46.262  1.00  0.00     0.095 N 
HETATM   20  C20 UNL     1      50.286  30.628  45.311  1.00  0.00     0.273 C 
HETATM   21  C21 UNL     1      49.469  31.058  44.122  1.00  0.00     0.040 C 
BRANCH  19  22
HETATM   22  C14 UNL     1      50.102  29.401  47.367  1.00  0.00     0.251 C 
HETATM   23  C15 UNL     1      51.573  29.664  47.365  1.00  0.00     0.038 C 
HETATM   24  C16 UNL     1      52.072  29.352  48.781  1.00  0.00     0.002 C 
HETATM   25  C17 UNL     1      51.861  27.867  49.000  1.00  0.00     0.003 C 
HETATM   26  C18 UNL     1      50.436  27.453  48.799  1.00  0.00     0.034 C 
HETATM   27  C19 UNL     1      49.881  27.911  47.470  1.00  0.00     0.151 C 
BRANCH  27  28
HETATM   28  O2  UNL     1      48.498  27.709  47.499  1.00  0.00    -0.393 OA
ATOM     29  H2  UNL     1      48.313  26.994  46.901  1.00  0.00     0.210 HD
ENDBRANCH  27  28
ENDBRANCH  19  22
ENDBRANCH  15  16
ENDBRANCH  13  15
ENDBRANCH   1  11
BRANCH   1  30
HETATM   30  C22 UNL     1      48.169  33.848  38.848  1.00  0.00     0.018 C 
HETATM   31  C23 UNL     1      47.339  33.579  37.641  1.00  0.00     0.007 C 
HETATM   32  C24 UNL     1      47.298  34.671  36.610  1.00  0.00     0.000 C 
HETATM   33  C25 UNL     1      48.626  35.232  36.265  1.00  0.00     0.000 C 
HETATM   34  C26 UNL     1      49.694  34.401  36.933  1.00  0.00     0.000 C 
HETATM   35  C27 UNL     1      49.452  34.564  38.431  1.00  0.00     0.007 C 
ENDBRANCH   1  30
TORSDOF 7
ENDMDL
MODEL 2
REMARK VINA RESULT: -9.886109919      0.801      1.254
REMARK  7 active torsions:
REMARK  status: ('A' for Active; 'I' for Inactive)
REMARK    1  A    between atoms: C6_6  and  C7_7 
REMARK    2  A    between atoms: C7_7  and  C9_10 
REMARK    3  A    between atoms: C7_7  and  C22_29 
REMARK       I    between atoms: C9_10  and  N2_12 
REMARK    4  A    between atoms: N2_12  and  C10_14 
REMARK    5  A    between atoms: C10_14  and  C11_15 
REMARK    6  A    between atoms: N3_18  and  C14_19 
REMARK    7  A    between atoms: C19_24  and  O2_25 
ROOT
HETATM    1  C7  UNL     1      48.641  32.715  39.664  1.00  0.00     0.137 C 
HETATM    2  C8  UNL     1      50.033  32.631  40.185  1.00  0.00     0.080 C 
HETATM    3  N1  UNL     1      51.131  32.542  40.601  1.00  0.00    -0.196 NA
ENDROOT
BRANCH   1   4
HETATM    4  C6  UNL     1      48.376  31.405  39.041  1.00  0.00     0.018 C 
HETATM    5  C5  UNL     1      47.118  31.327  38.237  1.00  0.00     0.007 C 
HETATM    6  C4  UNL     1      47.450  30.282  37.131  1.00  0.00     0.001 C 
HETATM    7  C3  UNL     1      47.870  29.019  37.778  1.00  0.00     0.004 C 
HETATM    8  C2  UNL     1      47.901  28.973  39.263  1.00  0.00    -0.018 C 
HETATM    9  C1  UNL     1      48.740  27.767  39.674  1.00  0.00     0.010 C 
HETATM   10  C28 UNL     1      48.512  30.186  39.930  1.00  0.00     0.011 C 
ENDBRANCH   1   4
BRANCH   1  11
HETATM   11  C9  UNL     1      47.824  32.813  40.971  1.00  0.00     0.244 C 
HETATM   12  O1  UNL     1      46.591  32.913  40.885  1.00  0.00    -0.271 OA
HETATM   13  N2  UNL     1      48.477  32.789  42.206  1.00  0.00    -0.339 N 
ATOM     14  H2  UNL     1      49.493  32.710  42.157  1.00  0.00     0.167 HD
BRANCH  13  15
HETATM   15  C10 UNL     1      47.948  32.857  43.504  1.00  0.00     0.068 C 
BRANCH  15  16
HETATM   16  C11 UNL     1      48.489  32.054  44.610  1.00  0.00     0.027 C 
HETATM   17  C12 UNL     1      47.595  31.348  45.549  1.00  0.00     0.040 C 
HETATM   18  C13 UNL     1      48.489  30.968  46.765  1.00  0.00     0.273 C 
HETATM   19  N3  UNL     1      49.414  29.975  46.262  1.00  0.00     0.095 N 
HETATM   20  C20 UNL     1      50.312  30.581  45.297  1.00  0.00     0.273 C 
HETATM   21  C21 UNL     1      49.492  31.002  44.107  1.00  0.00     0.040 C 
BRANCH  19  22
HETATM   22  C14 UNL     1      50.130  29.385  47.371  1.00  0.00     0.251 C 
HETATM   23  C15 UNL     1      51.596  29.675  47.383  1.00  0.00     0.038 C 
HETATM   24  C16 UNL     1      52.087  29.366  48.803  1.00  0.00     0.002 C 
HETATM   25  C17 UNL     1      51.902  27.877  49.014  1.00  0.00     0.003 C 
HETATM   26  C18 UNL     1      50.487  27.437  48.799  1.00  0.00     0.034 C 
HETATM   27  C19 UNL     1      49.936  27.891  47.466  1.00  0.00     0.151 C 
BRANCH  27  28
HETATM   28  O2  UNL     1      48.557  27.663  47.481  1.00  0.00    -0.393 OA
ATOM     29  H2  UNL     1      48.381  26.994  46.829  1.00  0.00     0.210 HD
ENDBRANCH  27  28
ENDBRANCH  19  22
ENDBRANCH  15  16
ENDBRANCH  13  15
ENDBRANCH   1  11
BRANCH   1  30
HETATM   30  C22 UNL     1      48.419  33.957  38.886  1.00  0.00     0.018 C 
HETATM   31  C23 UNL     1      48.976  33.939  37.505  1.00  0.00     0.007 C 
HETATM   32  C24 UNL     1      49.071  35.268  36.813  1.00  0.00     0.000 C 
HETATM   33  C25 UNL     1      49.661  36.347  37.642  1.00  0.00     0.000 C 
HETATM   34  C26 UNL     1      50.182  35.744  38.924  1.00  0.00     0.000 C 
HETATM   35  C27 UNL     1      48.952  35.179  39.632  1.00  0.00     0.007 C 
ENDBRANCH   1  30
TORSDOF 7
ENDMDL
MODEL 3
REMARK VINA RESULT: -9.233021756      0.737      1.407
REMARK  7 active torsions:
REMARK  status: ('A' for Active; 'I' for Inactive)
REMARK    1  A    between atoms: C6_6  and  C7_7 
REMARK    2  A    between atoms: C7_7  and  C9_10 
REMARK    3  A    between atoms: C7_7  and  C22_29 
REMARK       I    between atoms: C9_10  and  N2_12 
REMARK    4  A    between atoms: N2_12  and  C10_14 
REMARK    5  A    between atoms: C10_14  and  C11_15 
REMARK    6  A    between atoms: N3_18  and  C14_19 
REMARK    7  A    between atoms: C19_24  and  O2_25 
ROOT
HETATM    1  C7  UNL     1      48.313  32.211  39.450  1.00  0.00     0.137 C 
HETATM    2  C8  UNL     1      49.712  32.681  39.652  1.00  0.00     0.080 C 
HETATM    3  N1  UNL     1      50.823  33.031  39.822  1.00  0.00    -0.196 NA
ENDROOT
BRANCH   1   4
HETATM    4  C6  UNL     1      48.408  30.747  39.308  1.00  0.00     0.018 C 
HETATM    5  C5  UNL     1      48.802  30.266  37.948  1.00  0.00     0.007 C 
HETATM    6  C4  UNL     1      49.574  28.943  38.232  1.00  0.00     0.001 C 
HETATM    7  C3  UNL     1      48.694  28.032  38.999  1.00  0.00     0.004 C 
HETATM    8  C2  UNL     1      47.328  28.506  39.339  1.00  0.00    -0.018 C 
HETATM    9  C1  UNL     1      46.788  27.610  40.450  1.00  0.00     0.010 C 
HETATM   10  C28 UNL     1      47.249  29.931  39.842  1.00  0.00     0.011 C 
ENDBRANCH   1   4
BRANCH   1  11
HETATM   11  C9  UNL     1      47.676  32.532  40.820  1.00  0.00     0.244 C 
HETATM   12  O1  UNL     1      46.450  32.712  40.869  1.00  0.00    -0.271 OA
HETATM   13  N2  UNL     1      48.479  32.614  41.961  1.00  0.00    -0.339 N 
ATOM     14  H2  UNL     1      49.474  32.454  41.803  1.00  0.00     0.167 HD
BRANCH  13  15
HETATM   15  C10 UNL     1      48.124  32.882  43.292  1.00  0.00     0.068 C 
BRANCH  15  16
HETATM   16  C11 UNL     1      48.649  32.091  44.415  1.00  0.00     0.027 C 
HETATM   17  C12 UNL     1      47.742  31.457  45.392  1.00  0.00     0.040 C 
HETATM   18  C13 UNL     1      48.641  31.076  46.604  1.00  0.00     0.273 C 
HETATM   19  N3  UNL     1      49.510  30.025  46.117  1.00  0.00     0.095 N 
HETATM   20  C20 UNL     1      50.416  30.559  45.118  1.00  0.00     0.273 C 
HETATM   21  C21 UNL     1      49.594  30.979  43.929  1.00  0.00     0.040 C 
BRANCH  19  22
HETATM   22  C14 UNL     1      50.220  29.438  47.232  1.00  0.00     0.251 C 
HETATM   23  C15 UNL     1      51.702  29.618  47.183  1.00  0.00     0.038 C 
HETATM   24  C16 UNL     1      52.220  29.344  48.601  1.00  0.00     0.002 C 
HETATM   25  C17 UNL     1      51.933  27.885  48.894  1.00  0.00     0.003 C 
HETATM   26  C18 UNL     1      50.483  27.542  48.747  1.00  0.00     0.034 C 
HETATM   27  C19 UNL     1      49.920  27.970  47.411  1.00  0.00     0.151 C 
BRANCH  27  28
HETATM   28  O2  UNL     1      48.529  27.847  47.481  1.00  0.00    -0.393 OA
ATOM     29  H2  UNL     1      48.218  28.555  48.033  1.00  0.00     0.210 HD
ENDBRANCH  27  28
ENDBRANCH  19  22
ENDBRANCH  15  16
ENDBRANCH  13  15
ENDBRANCH   1  11
BRANCH   1  30
HETATM   30  C22 UNL     1      47.610  33.007  38.416  1.00  0.00     0.018 C 
HETATM   31  C23 UNL     1      47.691  32.452  37.037  1.00  0.00     0.007 C 
HETATM   32  C24 UNL     1      47.290  33.379  35.926  1.00  0.00     0.000 C 
HETATM   33  C25 UNL     1      47.883  34.735  36.021  1.00  0.00     0.000 C 
HETATM   34  C26 UNL     1      48.895  34.746  37.142  1.00  0.00     0.000 C 
HETATM   35  C27 UNL     1      48.094  34.455  38.409  1.00  0.00     0.007 C 
ENDBRANCH   1  30
TORSDOF 7
ENDMDL
MODEL 4
REMARK VINA RESULT: -9.115803597      7.301     10.131
REMARK  7 active torsions:
REMARK  status: ('A' for Active; 'I' for Inactive)
REMARK    1  A    between atoms: C6_6  and  C7_7 
REMARK    2  A    between atoms: C7_7  and  C9_10 
REMARK    3  A    between atoms: C7_7  and  C22_29 
REMARK       I    between atoms: C9_10  and  N2_12 
REMARK    4  A    between atoms: N2_12  and  C10_14 
REMARK    5  A    between atoms: C10_14  and  C11_15 
REMARK    6  A    between atoms: N3_18  and  C14_19 
REMARK    7  A    between atoms: C19_24  and  O2_25 
ROOT
HETATM    1  C7  UNL     1      42.099  24.239  45.200  1.00  0.00     0.137 C 
HETATM    2  C8  UNL     1      42.963  23.556  46.201  1.00  0.00     0.080 C 
HETATM    3  N1  UNL     1      43.631  23.019  47.010  1.00  0.00    -0.196 NA
ENDROOT
BRANCH   1   4
HETATM    4  C6  UNL     1      40.716  24.020  45.662  1.00  0.00     0.018 C 
HETATM    5  C5  UNL     1      39.652  24.517  44.738  1.00  0.00     0.007 C 
HETATM    6  C4  UNL     1      38.463  23.540  44.982  1.00  0.00     0.001 C 
HETATM    7  C3  UNL     1      38.115  23.562  46.421  1.00  0.00     0.004 C 
HETATM    8  C2  UNL     1      38.906  24.446  47.315  1.00  0.00    -0.018 C 
HETATM    9  C1  UNL     1      38.660  23.994  48.752  1.00  0.00     0.010 C 
HETATM   10  C28 UNL     1      40.402  24.416  47.091  1.00  0.00     0.011 C 
ENDBRANCH   1   4
BRANCH   1  11
HETATM   11  C9  UNL     1      42.466  25.721  45.430  1.00  0.00     0.244 C 
HETATM   12  O1  UNL     1      41.846  26.585  44.792  1.00  0.00    -0.271 OA
HETATM   13  N2  UNL     1      43.475  26.057  46.338  1.00  0.00    -0.339 N 
ATOM     14  H2  UNL     1      43.921  25.266  46.801  1.00  0.00     0.167 HD
BRANCH  13  15
HETATM   15  C10 UNL     1      43.967  27.318  46.709  1.00  0.00     0.068 C 
BRANCH  15  16
HETATM   16  C11 UNL     1      45.352  27.514  47.160  1.00  0.00     0.027 C 
HETATM   17  C12 UNL     1      46.374  26.468  46.964  1.00  0.00     0.040 C 
HETATM   18  C13 UNL     1      47.554  26.862  47.900  1.00  0.00     0.273 C 
HETATM   19  N3  UNL     1      48.102  28.075  47.331  1.00  0.00     0.095 N 
HETATM   20  C20 UNL     1      47.139  29.153  47.450  1.00  0.00     0.273 C 
HETATM   21  C21 UNL     1      45.954  28.809  46.588  1.00  0.00     0.040 C 
BRANCH  19  22
HETATM   22  C14 UNL     1      49.350  28.389  47.991  1.00  0.00     0.251 C 
HETATM   23  C15 UNL     1      49.749  29.826  47.903  1.00  0.00     0.038 C 
HETATM   24  C16 UNL     1      50.808  30.049  48.990  1.00  0.00     0.002 C 
HETATM   25  C17 UNL     1      52.008  29.205  48.609  1.00  0.00     0.003 C 
HETATM   26  C18 UNL     1      51.663  27.757  48.445  1.00  0.00     0.034 C 
HETATM   27  C19 UNL     1      50.500  27.541  47.504  1.00  0.00     0.151 C 
BRANCH  27  28
HETATM   28  O2  UNL     1      50.100  26.208  47.629  1.00  0.00    -0.393 OA
ATOM     29  H2  UNL     1      50.869  25.714  47.891  1.00  0.00     0.210 HD
ENDBRANCH  27  28
ENDBRANCH  19  22
ENDBRANCH  15  16
ENDBRANCH  13  15
ENDBRANCH   1  11
BRANCH   1  30
HETATM   30  C22 UNL     1      42.476  23.880  43.812  1.00  0.00     0.018 C 
HETATM   31  C23 UNL     1      42.308  22.440  43.470  1.00  0.00     0.007 C 
HETATM   32  C24 UNL     1      42.980  21.977  42.210  1.00  0.00     0.000 C 
HETATM   33  C25 UNL     1      44.386  22.426  42.070  1.00  0.00     0.000 C 
HETATM   34  C26 UNL     1      44.815  23.092  43.356  1.00  0.00     0.000 C 
HETATM   35  C27 UNL     1      43.907  24.311  43.499  1.00  0.00     0.007 C 
ENDBRANCH   1  30
TORSDOF 7
ENDMDL
MODEL 5
REMARK VINA RESULT: -9.105454818      7.217     10.173
REMARK  7 active torsions:
REMARK  status: ('A' for Active; 'I' for Inactive)
REMARK    1  A    between atoms: C6_6  and  C7_7 
REMARK    2  A    between atoms: C7_7  and  C9_10 
REMARK    3  A    between atoms: C7_7  and  C22_29 
REMARK       I    between atoms: C9_10  and  N2_12 
REMARK    4  A    between atoms: N2_12  and  C10_14 
REMARK    5  A    between atoms: C10_14  and  C11_15 
REMARK    6  A    between atoms: N3_18  and  C14_19 
REMARK    7  A    between atoms: C19_24  and  O2_25 
ROOT
HETATM    1  C7  UNL     1      42.366  24.626  45.120  1.00  0.00     0.137 C 
HETATM    2  C8  UNL     1      42.702  24.203  43.733  1.00  0.00     0.080 C 
HETATM    3  N1  UNL     1      42.989  23.859  42.643  1.00  0.00    -0.196 NA
ENDROOT
BRANCH   1   4
HETATM    4  C6  UNL     1      43.033  23.649  46.000  1.00  0.00     0.018 C 
HETATM    5  C5  UNL     1      44.527  23.676  45.961  1.00  0.00     0.007 C 
HETATM    6  C4  UNL     1      44.943  23.236  47.397  1.00  0.00     0.001 C 
HETATM    7  C3  UNL     1      44.339  21.916  47.685  1.00  0.00     0.004 C 
HETATM    8  C2  UNL     1      43.501  21.288  46.631  1.00  0.00    -0.018 C 
HETATM    9  C1  UNL     1      42.673  20.187  47.288  1.00  0.00     0.010 C 
HETATM   10  C28 UNL     1      42.529  22.222  45.942  1.00  0.00     0.011 C 
ENDBRANCH   1   4
BRANCH   1  11
HETATM   11  C9  UNL     1      43.114  25.973  45.225  1.00  0.00     0.244 C 
HETATM   12  O1  UNL     1      43.586  26.464  44.189  1.00  0.00    -0.271 OA
HETATM   13  N2  UNL     1      43.244  26.604  46.465  1.00  0.00    -0.339 N 
ATOM     14  H2  UNL     1      42.822  26.108  47.250  1.00  0.00     0.167 HD
BRANCH  13  15
HETATM   15  C10 UNL     1      43.866  27.818  46.795  1.00  0.00     0.068 C 
BRANCH  15  16
HETATM   16  C11 UNL     1      45.272  27.885  47.221  1.00  0.00     0.027 C 
HETATM   17  C12 UNL     1      46.193  26.755  46.992  1.00  0.00     0.040 C 
HETATM   18  C13 UNL     1      47.420  27.030  47.909  1.00  0.00     0.273 C 
HETATM   19  N3  UNL     1      48.063  28.198  47.344  1.00  0.00     0.095 N 
HETATM   20  C20 UNL     1      47.202  29.355  47.496  1.00  0.00     0.273 C 
HETATM   21  C21 UNL     1      45.975  29.129  46.653  1.00  0.00     0.040 C 
BRANCH  19  22
HETATM   22  C14 UNL     1      49.346  28.391  47.983  1.00  0.00     0.251 C 
HETATM   23  C15 UNL     1      49.836  29.803  47.968  1.00  0.00     0.038 C 
HETATM   24  C16 UNL     1      50.936  29.891  49.033  1.00  0.00     0.002 C 
HETATM   25  C17 UNL     1      52.068  28.997  48.566  1.00  0.00     0.003 C 
HETATM   26  C18 UNL     1      51.625  27.586  48.328  1.00  0.00     0.034 C 
HETATM   27  C19 UNL     1      50.425  27.503  47.412  1.00  0.00     0.151 C 
BRANCH  27  28
HETATM   28  O2  UNL     1      49.942  26.192  47.470  1.00  0.00    -0.393 OA
ATOM     29  H2  UNL     1      49.244  26.128  46.828  1.00  0.00     0.210 HD
ENDBRANCH  27  28
ENDBRANCH  19  22
ENDBRANCH  15  16
ENDBRANCH  13  15
ENDBRANCH   1  11
BRANCH   1  30
HETATM   30  C22 UNL     1      40.916  24.889  45.279  1.00  0.00     0.018 C 
HETATM   31  C23 UNL     1      40.356  24.526  46.610  1.00  0.00     0.007 C 
HETATM   32  C24 UNL     1      38.859  24.460  46.701  1.00  0.00     0.000 C 
HETATM   33  C25 UNL     1      38.213  23.709  45.597  1.00  0.00     0.000 C 
HETATM   34  C26 UNL     1      39.287  23.051  44.765  1.00  0.00     0.000 C 
HETATM   35  C27 UNL     1      40.106  24.199  44.183  1.00  0.00     0.007 C 
ENDBRANCH   1  30
TORSDOF 7
ENDMDL
