MODEL 1
REMARK VINA RESULT: -7.309884545      0.000      0.000
REMARK  11 active torsions:
REMARK  status: ('A' for Active; 'I' for Inactive)
REMARK    1  A    between atoms: N1_1  and  N2_4 
REMARK    2  A    between atoms: N2_4  and  C1_6 
REMARK    3  A    between atoms: C3_8  and  C4_9 
REMARK    4  A    between atoms: C5_13  and  C6_14 
REMARK    5  A    between atoms: C6_14  and  S1_15 
REMARK    6  A    between atoms: S1_15  and  C7_16 
REMARK    7  A    between atoms: C12_21  and  N4_22 
REMARK    8  A    between atoms: C13_25  and  O3_26 
REMARK    9  A    between atoms: C14_28  and  O4_29 
REMARK   10  A    between atoms: C15_31  and  O5_32 
REMARK   11  A    between atoms: C16_35  and  N5_36 
ROOT
HETATM    1  C4  UNL     1       4.584  -3.339  49.986  1.00  0.00     0.274 C 
HETATM    2  N3  UNL     1       5.576  -4.288  50.456  1.00  0.00    -0.055 N 
ATOM      3  H31 UNL     1       6.454  -4.243  49.939  1.00  0.00     0.278 HD
ATOM      4  H32 UNL     1       5.346  -5.257  50.232  1.00  0.00     0.278 HD
HETATM    5  C5  UNL     1       5.734  -4.051  51.874  1.00  0.00     0.227 C 
HETATM    6  C13 UNL     1       4.532  -4.644  52.565  1.00  0.00     0.180 C 
HETATM    7  C14 UNL     1       3.237  -4.286  51.888  1.00  0.00     0.180 C 
HETATM    8  C15 UNL     1       3.380  -3.223  50.841  1.00  0.00     0.186 C 
ENDROOT
BRANCH   1   9
HETATM    9  C3  UNL     1       4.242  -3.693  48.564  1.00  0.00     0.091 A 
HETATM   10  C2  UNL     1       3.202  -4.468  48.132  1.00  0.00     0.070 A 
HETATM   11  C1  UNL     1       3.265  -4.533  46.716  1.00  0.00     0.107 A 
HETATM   12  C16 UNL     1       4.354  -3.782  46.393  1.00  0.00     0.243 A 
HETATM   13  O6  UNL     1       4.894  -3.310  47.521  1.00  0.00    -0.289 OA
BRANCH  11  14
HETATM   14  N2  UNL     1       2.334  -5.258  45.926  1.00  0.00    -0.303 N 
ATOM     15  H2  UNL     1       2.670  -6.155  45.575  1.00  0.00     0.186 HD
BRANCH  14  16
HETATM   16  N1  UNL     1       1.061  -4.937  45.567  1.00  0.00    -0.345 N 
ATOM     17  H12 UNL     1       0.379  -5.669  45.763  1.00  0.00     0.176 HD
ATOM     18  H11 UNL     1       0.700  -4.085  45.138  1.00  0.00     0.176 HD
ENDBRANCH  14  16
ENDBRANCH  11  14
BRANCH  12  19
HETATM   19  N5  UNL     1       4.876  -3.511  45.103  1.00  0.00    -0.088 N 
HETATM   20  O7  UNL     1       5.326  -2.470  44.658  1.00  0.00    -0.530 OA
HETATM   21  O8  UNL     1       4.889  -4.572  44.184  1.00  0.00    -0.530 OA
ENDBRANCH  12  19
ENDBRANCH   1   9
BRANCH   8  22
HETATM   22  O5  UNL     1       2.206  -3.196  50.085  1.00  0.00    -0.390 OA
ATOM     23  H5  UNL     1       2.093  -2.365  49.638  1.00  0.00     0.210 HD
ENDBRANCH   8  22
BRANCH   5  24
HETATM   24  C6  UNL     1       6.986  -4.706  52.420  1.00  0.00     0.115 C 
BRANCH  24  25
HETATM   25  S1  UNL     1       6.547  -6.369  52.978  1.00  0.00    -0.125 SA
BRANCH  25  26
HETATM   26  C7  UNL     1       7.967  -7.449  52.991  1.00  0.00     0.033 A 
HETATM   27  C8  UNL     1       8.278  -8.280  51.942  1.00  0.00     0.021 A 
HETATM   28  C9  UNL     1       9.388  -9.102  51.993  1.00  0.00     0.002 A 
HETATM   29  C10 UNL     1      10.211  -9.105  53.100  1.00  0.00     0.003 A 
HETATM   30  C11 UNL     1       9.921  -8.281  54.165  1.00  0.00     0.037 A 
HETATM   31  C12 UNL     1       8.792  -7.459  54.090  1.00  0.00     0.119 A 
BRANCH  31  32
HETATM   32  N4  UNL     1       8.507  -6.616  55.192  1.00  0.00    -0.114 N 
HETATM   33  O1  UNL     1       7.694  -6.922  56.075  1.00  0.00    -0.532 OA
HETATM   34  O2  UNL     1       9.168  -5.414  55.272  1.00  0.00    -0.532 OA
ENDBRANCH  31  32
ENDBRANCH  25  26
ENDBRANCH  24  25
ENDBRANCH   5  24
BRANCH   7  35
HETATM   35  O4  UNL     1       2.618  -5.408  51.329  1.00  0.00    -0.390 OA
ATOM     36  H4  UNL     1       1.769  -5.574  51.723  1.00  0.00     0.210 HD
ENDBRANCH   7  35
BRANCH   6  37
HETATM   37  O3  UNL     1       4.576  -4.287  53.898  1.00  0.00    -0.391 OA
ATOM     38  H3  UNL     1       5.437  -4.501  54.236  1.00  0.00     0.210 HD
ENDBRANCH   6  37
TORSDOF 11
ENDMDL
MODEL 2
REMARK VINA RESULT: -7.169335598      2.011      2.636
REMARK  11 active torsions:
REMARK  status: ('A' for Active; 'I' for Inactive)
REMARK    1  A    between atoms: N1_1  and  N2_4 
REMARK    2  A    between atoms: N2_4  and  C1_6 
REMARK    3  A    between atoms: C3_8  and  C4_9 
REMARK    4  A    between atoms: C5_13  and  C6_14 
REMARK    5  A    between atoms: C6_14  and  S1_15 
REMARK    6  A    between atoms: S1_15  and  C7_16 
REMARK    7  A    between atoms: C12_21  and  N4_22 
REMARK    8  A    between atoms: C13_25  and  O3_26 
REMARK    9  A    between atoms: C14_28  and  O4_29 
REMARK   10  A    between atoms: C15_31  and  O5_32 
REMARK   11  A    between atoms: C16_35  and  N5_36 
ROOT
HETATM    1  C4  UNL     1       4.025  -3.670  49.767  1.00  0.00     0.274 C 
HETATM    2  N3  UNL     1       5.249  -4.316  50.203  1.00  0.00    -0.055 N 
ATOM      3  H31 UNL     1       6.077  -3.990  49.703  1.00  0.00     0.278 HD
ATOM      4  H32 UNL     1       5.310  -5.296  49.924  1.00  0.00     0.278 HD
HETATM    5  C5  UNL     1       5.333  -4.121  51.633  1.00  0.00     0.227 C 
HETATM    6  C13 UNL     1       4.354  -5.074  52.272  1.00  0.00     0.180 C 
HETATM    7  C14 UNL     1       3.010  -5.070  51.595  1.00  0.00     0.180 C 
HETATM    8  C15 UNL     1       2.840  -3.955  50.607  1.00  0.00     0.186 C 
ENDROOT
BRANCH   1   9
HETATM    9  C3  UNL     1       3.801  -4.029  48.324  1.00  0.00     0.091 A 
HETATM   10  C2  UNL     1       4.691  -3.908  47.293  1.00  0.00     0.070 A 
HETATM   11  C1  UNL     1       4.056  -4.365  46.110  1.00  0.00     0.107 A 
HETATM   12  C16 UNL     1       2.810  -4.733  46.518  1.00  0.00     0.243 A 
HETATM   13  O6  UNL     1       2.712  -4.515  47.834  1.00  0.00    -0.289 OA
BRANCH  11  14
HETATM   14  N2  UNL     1       4.691  -4.381  44.840  1.00  0.00    -0.303 N 
ATOM     15  H2  UNL     1       5.394  -3.657  44.697  1.00  0.00     0.186 HD
BRANCH  14  16
HETATM   16  N1  UNL     1       4.502  -5.219  43.784  1.00  0.00    -0.345 N 
ATOM     17  H12 UNL     1       3.531  -5.497  43.646  1.00  0.00     0.176 HD
ATOM     18  H11 UNL     1       5.180  -5.599  43.124  1.00  0.00     0.176 HD
ENDBRANCH  14  16
ENDBRANCH  11  14
BRANCH  12  19
HETATM   19  N5  UNL     1       1.756  -5.263  45.733  1.00  0.00    -0.088 N 
HETATM   20  O7  UNL     1       1.766  -5.613  44.566  1.00  0.00    -0.530 OA
HETATM   21  O8  UNL     1       0.509  -5.419  46.361  1.00  0.00    -0.530 OA
ENDBRANCH  12  19
ENDBRANCH   1   9
BRANCH   8  22
HETATM   22  O5  UNL     1       1.708  -4.227  49.836  1.00  0.00    -0.390 OA
ATOM     23  H5  UNL     1       1.161  -3.458  49.727  1.00  0.00     0.210 HD
ENDBRANCH   8  22
BRANCH   5  24
HETATM   24  C6  UNL     1       6.720  -4.414  52.163  1.00  0.00     0.115 C 
BRANCH  24  25
HETATM   25  S1  UNL     1       6.783  -6.163  52.623  1.00  0.00    -0.125 SA
BRANCH  25  26
HETATM   26  C7  UNL     1       8.100  -6.484  53.784  1.00  0.00     0.033 A 
HETATM   27  C8  UNL     1       8.275  -5.748  54.931  1.00  0.00     0.021 A 
HETATM   28  C9  UNL     1       9.309  -6.031  55.804  1.00  0.00     0.002 A 
HETATM   29  C10 UNL     1      10.190  -7.060  55.542  1.00  0.00     0.003 A 
HETATM   30  C11 UNL     1      10.035  -7.813  54.399  1.00  0.00     0.037 A 
HETATM   31  C12 UNL     1       8.982  -7.508  53.531  1.00  0.00     0.119 A 
BRANCH  31  32
HETATM   32  N4  UNL     1       8.835  -8.290  52.360  1.00  0.00    -0.114 N 
HETATM   33  O1  UNL     1       8.060  -9.255  52.293  1.00  0.00    -0.532 OA
HETATM   34  O2  UNL     1       9.588  -7.953  51.261  1.00  0.00    -0.532 OA
ENDBRANCH  31  32
ENDBRANCH  25  26
ENDBRANCH  24  25
ENDBRANCH   5  24
BRANCH   7  35
HETATM   35  O4  UNL     1       2.743  -6.290  50.968  1.00  0.00    -0.390 OA
ATOM     36  H4  UNL     1       1.963  -6.245  50.428  1.00  0.00     0.210 HD
ENDBRANCH   7  35
BRANCH   6  37
HETATM   37  O3  UNL     1       4.292  -4.793  53.623  1.00  0.00    -0.391 OA
ATOM     38  H3  UNL     1       5.143  -4.976  54.005  1.00  0.00     0.210 HD
ENDBRANCH   6  37
TORSDOF 11
ENDMDL
MODEL 3
REMARK VINA RESULT: -7.164733777      1.425      2.037
REMARK  11 active torsions:
REMARK  status: ('A' for Active; 'I' for Inactive)
REMARK    1  A    between atoms: N1_1  and  N2_4 
REMARK    2  A    between atoms: N2_4  and  C1_6 
REMARK    3  A    between atoms: C3_8  and  C4_9 
REMARK    4  A    between atoms: C5_13  and  C6_14 
REMARK    5  A    between atoms: C6_14  and  S1_15 
REMARK    6  A    between atoms: S1_15  and  C7_16 
REMARK    7  A    between atoms: C12_21  and  N4_22 
REMARK    8  A    between atoms: C13_25  and  O3_26 
REMARK    9  A    between atoms: C14_28  and  O4_29 
REMARK   10  A    between atoms: C15_31  and  O5_32 
REMARK   11  A    between atoms: C16_35  and  N5_36 
ROOT
HETATM    1  C4  UNL     1       5.017  -3.614  50.744  1.00  0.00     0.274 C 
HETATM    2  N3  UNL     1       6.064  -4.562  51.076  1.00  0.00    -0.055 N 
ATOM      3  H31 UNL     1       6.941  -4.383  50.586  1.00  0.00     0.278 HD
ATOM      4  H32 UNL     1       5.897  -5.496  50.700  1.00  0.00     0.278 HD
HETATM    5  C5  UNL     1       6.200  -4.541  52.516  1.00  0.00     0.227 C 
HETATM    6  C13 UNL     1       5.033  -5.307  53.087  1.00  0.00     0.180 C 
HETATM    7  C14 UNL     1       3.721  -4.927  52.454  1.00  0.00     0.180 C 
HETATM    8  C15 UNL     1       3.804  -3.707  51.588  1.00  0.00     0.186 C 
ENDROOT
BRANCH   1   9
HETATM    9  C3  UNL     1       4.706  -3.760  49.280  1.00  0.00     0.091 A 
HETATM   10  C2  UNL     1       5.414  -3.246  48.229  1.00  0.00     0.070 A 
HETATM   11  C1  UNL     1       4.760  -3.633  47.031  1.00  0.00     0.107 A 
HETATM   12  C16 UNL     1       3.690  -4.363  47.452  1.00  0.00     0.243 A 
HETATM   13  O6  UNL     1       3.706  -4.407  48.788  1.00  0.00    -0.289 OA
BRANCH  11  14
HETATM   14  N2  UNL     1       5.222  -3.272  45.737  1.00  0.00    -0.303 N 
ATOM     15  H2  UNL     1       6.221  -3.404  45.582  1.00  0.00     0.186 HD
BRANCH  14  16
HETATM   16  N1  UNL     1       4.532  -2.776  44.674  1.00  0.00    -0.345 N 
ATOM     17  H12 UNL     1       5.126  -2.403  43.934  1.00  0.00     0.176 HD
ATOM     18  H11 UNL     1       3.526  -2.725  44.516  1.00  0.00     0.176 HD
ENDBRANCH  14  16
ENDBRANCH  11  14
BRANCH  12  19
HETATM   19  N5  UNL     1       2.697  -4.992  46.661  1.00  0.00    -0.088 N 
HETATM   20  O7  UNL     1       2.696  -5.220  45.464  1.00  0.00    -0.530 OA
HETATM   21  O8  UNL     1       1.535  -5.426  47.321  1.00  0.00    -0.530 OA
ENDBRANCH  12  19
ENDBRANCH   1   9
BRANCH   8  22
HETATM   22  O5  UNL     1       2.635  -3.633  50.828  1.00  0.00    -0.390 OA
ATOM     23  H5  UNL     1       2.699  -2.979  50.142  1.00  0.00     0.210 HD
ENDBRANCH   8  22
BRANCH   5  24
HETATM   24  C6  UNL     1       7.486  -5.195  52.972  1.00  0.00     0.115 C 
BRANCH  24  25
HETATM   25  S1  UNL     1       7.143  -6.943  53.284  1.00  0.00    -0.125 SA
BRANCH  25  26
HETATM   26  C7  UNL     1       8.389  -7.993  52.556  1.00  0.00     0.033 A 
HETATM   27  C8  UNL     1       8.164  -8.738  51.424  1.00  0.00     0.021 A 
HETATM   28  C9  UNL     1       9.158  -9.539  50.893  1.00  0.00     0.002 A 
HETATM   29  C10 UNL     1      10.399  -9.609  51.491  1.00  0.00     0.003 A 
HETATM   30  C11 UNL     1      10.650  -8.871  52.627  1.00  0.00     0.037 A 
HETATM   31  C12 UNL     1       9.629  -8.069  53.145  1.00  0.00     0.119 A 
BRANCH  31  32
HETATM   32  N4  UNL     1       9.901  -7.316  54.314  1.00  0.00    -0.114 N 
HETATM   33  O1  UNL     1       9.403  -7.588  55.415  1.00  0.00    -0.532 OA
HETATM   34  O2  UNL     1      10.754  -6.245  54.206  1.00  0.00    -0.532 OA
ENDBRANCH  31  32
ENDBRANCH  25  26
ENDBRANCH  24  25
ENDBRANCH   5  24
BRANCH   7  35
HETATM   35  O4  UNL     1       3.178  -5.983  51.718  1.00  0.00    -0.390 OA
ATOM     36  H4  UNL     1       2.596  -5.673  51.034  1.00  0.00     0.210 HD
ENDBRANCH   7  35
BRANCH   6  37
HETATM   37  O3  UNL     1       5.047  -5.161  54.460  1.00  0.00    -0.391 OA
ATOM     38  H3  UNL     1       5.067  -6.027  54.852  1.00  0.00     0.210 HD
ENDBRANCH   6  37
TORSDOF 11
ENDMDL
MODEL 4
REMARK VINA RESULT: -7.164675178      1.692      2.117
REMARK  11 active torsions:
REMARK  status: ('A' for Active; 'I' for Inactive)
REMARK    1  A    between atoms: N1_1  and  N2_4 
REMARK    2  A    between atoms: N2_4  and  C1_6 
REMARK    3  A    between atoms: C3_8  and  C4_9 
REMARK    4  A    between atoms: C5_13  and  C6_14 
REMARK    5  A    between atoms: C6_14  and  S1_15 
REMARK    6  A    between atoms: S1_15  and  C7_16 
REMARK    7  A    between atoms: C12_21  and  N4_22 
REMARK    8  A    between atoms: C13_25  and  O3_26 
REMARK    9  A    between atoms: C14_28  and  O4_29 
REMARK   10  A    between atoms: C15_31  and  O5_32 
REMARK   11  A    between atoms: C16_35  and  N5_36 
ROOT
HETATM    1  C4  UNL     1       3.706  -3.729  49.990  1.00  0.00     0.274 C 
HETATM    2  N3  UNL     1       5.030  -4.245  50.288  1.00  0.00    -0.055 N 
ATOM      3  H31 UNL     1       5.776  -3.745  49.804  1.00  0.00     0.278 HD
ATOM      4  H32 UNL     1       5.207  -5.163  49.880  1.00  0.00     0.278 HD
HETATM    5  C5  UNL     1       5.168  -4.222  51.728  1.00  0.00     0.227 C 
HETATM    6  C13 UNL     1       4.364  -5.377  52.272  1.00  0.00     0.180 C 
HETATM    7  C14 UNL     1       2.996  -5.477  51.654  1.00  0.00     0.180 C 
HETATM    8  C15 UNL     1       2.621  -4.282  50.831  1.00  0.00     0.186 C 
ENDROOT
BRANCH   1   9
HETATM    9  C3  UNL     1       3.451  -3.932  48.521  1.00  0.00     0.091 A 
HETATM   10  C2  UNL     1       2.295  -4.365  47.935  1.00  0.00     0.070 A 
HETATM   11  C1  UNL     1       2.504  -4.406  46.533  1.00  0.00     0.107 A 
HETATM   12  C16 UNL     1       3.790  -3.988  46.372  1.00  0.00     0.243 A 
HETATM   13  O6  UNL     1       4.303  -3.721  47.578  1.00  0.00    -0.289 OA
BRANCH  11  14
HETATM   14  N2  UNL     1       1.508  -4.814  45.606  1.00  0.00    -0.303 N 
ATOM     15  H2  UNL     1       0.570  -4.459  45.794  1.00  0.00     0.186 HD
BRANCH  14  16
HETATM   16  N1  UNL     1       1.616  -5.607  44.505  1.00  0.00    -0.345 N 
ATOM     17  H12 UNL     1       1.649  -5.091  43.626  1.00  0.00     0.176 HD
ATOM     18  H11 UNL     1       1.668  -6.623  44.436  1.00  0.00     0.176 HD
ENDBRANCH  14  16
ENDBRANCH  11  14
BRANCH  12  19
HETATM   19  N5  UNL     1       4.516  -3.841  45.164  1.00  0.00    -0.088 N 
HETATM   20  O7  UNL     1       5.119  -2.870  44.742  1.00  0.00    -0.530 OA
HETATM   21  O8  UNL     1       4.566  -4.954  44.310  1.00  0.00    -0.530 OA
ENDBRANCH  12  19
ENDBRANCH   1   9
BRANCH   8  22
HETATM   22  O5  UNL     1       1.494  -4.612  50.075  1.00  0.00    -0.390 OA
ATOM     23  H5  UNL     1       1.095  -5.423  50.369  1.00  0.00     0.210 HD
ENDBRANCH   8  22
BRANCH   5  24
HETATM   24  C6  UNL     1       6.610  -4.381  52.160  1.00  0.00     0.115 C 
BRANCH  24  25
HETATM   25  S1  UNL     1       6.925  -6.143  52.414  1.00  0.00    -0.125 SA
BRANCH  25  26
HETATM   26  C7  UNL     1       8.155  -6.409  53.679  1.00  0.00     0.033 A 
HETATM   27  C8  UNL     1       8.258  -5.615  54.796  1.00  0.00     0.021 A 
HETATM   28  C9  UNL     1       9.227  -5.856  55.751  1.00  0.00     0.002 A 
HETATM   29  C10 UNL     1      10.115  -6.902  55.605  1.00  0.00     0.003 A 
HETATM   30  C11 UNL     1      10.033  -7.713  54.495  1.00  0.00     0.037 A 
HETATM   31  C12 UNL     1       9.044  -7.449  53.542  1.00  0.00     0.119 A 
BRANCH  31  32
HETATM   32  N4  UNL     1       8.972  -8.292  52.405  1.00  0.00    -0.114 N 
HETATM   33  O1  UNL     1       9.625  -8.081  51.374  1.00  0.00    -0.532 OA
HETATM   34  O2  UNL     1       8.140  -9.384  52.465  1.00  0.00    -0.532 OA
ENDBRANCH  31  32
ENDBRANCH  25  26
ENDBRANCH  24  25
ENDBRANCH   5  24
BRANCH   7  35
HETATM   35  O4  UNL     1       2.861  -6.634  50.882  1.00  0.00    -0.390 OA
ATOM     36  H4  UNL     1       1.976  -6.977  50.914  1.00  0.00     0.210 HD
ENDBRANCH   7  35
BRANCH   6  37
HETATM   37  O3  UNL     1       4.343  -5.280  53.650  1.00  0.00    -0.391 OA
ATOM     38  H3  UNL     1       5.014  -5.854  54.000  1.00  0.00     0.210 HD
ENDBRANCH   6  37
TORSDOF 11
ENDMDL
MODEL 5
REMARK VINA RESULT: -7.149175058      1.220      1.787
REMARK  11 active torsions:
REMARK  status: ('A' for Active; 'I' for Inactive)
REMARK    1  A    between atoms: N1_1  and  N2_4 
REMARK    2  A    between atoms: N2_4  and  C1_6 
REMARK    3  A    between atoms: C3_8  and  C4_9 
REMARK    4  A    between atoms: C5_13  and  C6_14 
REMARK    5  A    between atoms: C6_14  and  S1_15 
REMARK    6  A    between atoms: S1_15  and  C7_16 
REMARK    7  A    between atoms: C12_21  and  N4_22 
REMARK    8  A    between atoms: C13_25  and  O3_26 
REMARK    9  A    between atoms: C14_28  and  O4_29 
REMARK   10  A    between atoms: C15_31  and  O5_32 
REMARK   11  A    between atoms: C16_35  and  N5_36 
ROOT
HETATM    1  C4  UNL     1       4.512  -3.368  50.081  1.00  0.00     0.274 C 
HETATM    2  N3  UNL     1       5.525  -4.320  50.498  1.00  0.00    -0.055 N 
ATOM      3  H31 UNL     1       6.379  -4.269  49.944  1.00  0.00     0.278 HD
ATOM      4  H32 UNL     1       5.286  -5.287  50.275  1.00  0.00     0.278 HD
HETATM    5  C5  UNL     1       5.744  -4.097  51.910  1.00  0.00     0.227 C 
HETATM    6  C13 UNL     1       4.574  -4.698  52.647  1.00  0.00     0.180 C 
HETATM    7  C14 UNL     1       3.250  -4.336  52.030  1.00  0.00     0.180 C 
HETATM    8  C15 UNL     1       3.347  -3.263  50.988  1.00  0.00     0.186 C 
ENDROOT
BRANCH   1   9
HETATM    9  C3  UNL     1       4.109  -3.709  48.672  1.00  0.00     0.091 A 
HETATM   10  C2  UNL     1       4.902  -3.691  47.558  1.00  0.00     0.070 A 
HETATM   11  C1  UNL     1       4.108  -4.082  46.450  1.00  0.00     0.107 A 
HETATM   12  C16 UNL     1       2.876  -4.311  46.983  1.00  0.00     0.243 A 
HETATM   13  O6  UNL     1       2.932  -4.076  48.299  1.00  0.00    -0.289 OA
BRANCH  11  14
HETATM   14  N2  UNL     1       4.609  -4.175  45.124  1.00  0.00    -0.303 N 
ATOM     15  H2  UNL     1       5.291  -3.462  44.868  1.00  0.00     0.186 HD
BRANCH  14  16
HETATM   16  N1  UNL     1       4.315  -5.072  44.144  1.00  0.00    -0.345 N 
ATOM     17  H12 UNL     1       4.405  -4.696  43.200  1.00  0.00     0.176 HD
ATOM     18  H11 UNL     1       4.023  -6.046  44.218  1.00  0.00     0.176 HD
ENDBRANCH  14  16
ENDBRANCH  11  14
BRANCH  12  19
HETATM   19  N5  UNL     1       1.699  -4.728  46.314  1.00  0.00    -0.088 N 
HETATM   20  O7  UNL     1       1.569  -5.551  45.424  1.00  0.00    -0.530 OA
HETATM   21  O8  UNL     1       0.492  -4.127  46.708  1.00  0.00    -0.530 OA
ENDBRANCH  12  19
ENDBRANCH   1   9
BRANCH   8  22
HETATM   22  O5  UNL     1       2.141  -3.230  50.285  1.00  0.00    -0.390 OA
ATOM     23  H5  UNL     1       1.401  -3.447  50.840  1.00  0.00     0.210 HD
ENDBRANCH   8  22
BRANCH   5  24
HETATM   24  C6  UNL     1       7.019  -4.755  52.394  1.00  0.00     0.115 C 
BRANCH  24  25
HETATM   25  S1  UNL     1       6.595  -6.396  53.024  1.00  0.00    -0.125 SA
BRANCH  25  26
HETATM   26  C7  UNL     1       8.003  -7.492  52.988  1.00  0.00     0.033 A 
HETATM   27  C8  UNL     1       8.266  -8.330  51.931  1.00  0.00     0.021 A 
HETATM   28  C9  UNL     1       9.368  -9.164  51.944  1.00  0.00     0.002 A 
HETATM   29  C10 UNL     1      10.230  -9.174  53.022  1.00  0.00     0.003 A 
HETATM   30  C11 UNL     1       9.988  -8.344  54.094  1.00  0.00     0.037 A 
HETATM   31  C12 UNL     1       8.866  -7.509  54.057  1.00  0.00     0.119 A 
BRANCH  31  32
HETATM   32  N4  UNL     1       8.630  -6.661  55.167  1.00  0.00    -0.114 N 
HETATM   33  O1  UNL     1       7.797  -6.925  56.045  1.00  0.00    -0.532 OA
HETATM   34  O2  UNL     1       9.364  -5.503  55.260  1.00  0.00    -0.532 OA
ENDBRANCH  31  32
ENDBRANCH  25  26
ENDBRANCH  24  25
ENDBRANCH   5  24
BRANCH   7  35
HETATM   35  O4  UNL     1       2.609  -5.453  51.488  1.00  0.00    -0.390 OA
ATOM     36  H4  UNL     1       1.801  -5.652  51.947  1.00  0.00     0.210 HD
ENDBRANCH   7  35
BRANCH   6  37
HETATM   37  O3  UNL     1       4.675  -4.354  53.980  1.00  0.00    -0.391 OA
ATOM     38  H3  UNL     1       3.878  -4.626  54.420  1.00  0.00     0.210 HD
ENDBRANCH   6  37
TORSDOF 11
ENDMDL
