MODEL 1
REMARK VINA RESULT: -10.028592696      0.000      0.000
REMARK  12 active torsions:
REMARK  status: ('A' for Active; 'I' for Inactive)
REMARK    1  A    between atoms: C3_4  and  C4_5 
REMARK    2  A    between atoms: C4_5  and  O2_6 
REMARK    3  A    between atoms: C4_5  and  O3_8 
REMARK    4  A    between atoms: C5_11  and  C6_12 
REMARK    5  A    between atoms: C6_12  and  N1_13 
REMARK    6  A    between atoms: N1_13  and  N2_14 
REMARK    7  A    between atoms: N2_14  and  C7_16 
REMARK    8  A    between atoms: C7_16  and  O5_17 
REMARK    9  A    between atoms: C7_16  and  C8_19 
REMARK   10  A    between atoms: C7_16  and  C14_25 
REMARK   11  A    between atoms: C17_28  and  N3_29 
REMARK   12  A    between atoms: C18_33  and  O9_34 
ROOT
HETATM    1  N2  UNL     1       7.824  -7.081  53.381  1.00  0.00    -0.296 N 
ATOM      2  H2  UNL     1       8.169  -6.810  52.460  1.00  0.00     0.179 HD
ENDROOT
BRANCH   1   3
HETATM    3  N1  UNL     1       6.478  -7.038  53.562  1.00  0.00    -0.136 NA
BRANCH   3   4
HETATM    4  C6  UNL     1       5.967  -5.718  53.593  1.00  0.00     0.202 C 
BRANCH   4   5
HETATM    5  C5  UNL     1       4.851  -5.364  52.698  1.00  0.00     0.106 A 
HETATM    6  O4  UNL     1       3.817  -5.967  52.295  1.00  0.00    -0.310 OA
HETATM    7  C3  UNL     1       2.924  -5.517  51.475  1.00  0.00     0.111 A 
HETATM    8  C2  UNL     1       3.060  -4.240  50.954  1.00  0.00     0.095 A 
HETATM    9  C1  UNL     1       4.148  -3.497  51.319  1.00  0.00     0.209 A 
HETATM   10  O1  UNL     1       4.304  -2.309  50.855  1.00  0.00    -0.285 OA
HETATM   11  C18 UNL     1       5.045  -4.038  52.178  1.00  0.00     0.147 A 
BRANCH   7  12
HETATM   12  C4  UNL     1       1.736  -6.331  51.028  1.00  0.00     0.312 C 
BRANCH  12  13
HETATM   13  O2  UNL     1       0.753  -5.656  50.415  1.00  0.00    -0.365 OA
ATOM     14  H2  UNL     1      -0.063  -6.126  50.289  1.00  0.00     0.213 HD
ENDBRANCH  12  13
BRANCH  12  15
HETATM   15  O3  UNL     1       1.286  -6.904  52.267  1.00  0.00    -0.365 OA
ATOM     16  H3  UNL     1       0.430  -6.504  52.369  1.00  0.00     0.213 HD
ENDBRANCH  12  15
ENDBRANCH   7  12
BRANCH  11  17
HETATM   17  O9  UNL     1       6.151  -3.324  52.562  1.00  0.00    -0.355 OA
ATOM     18  H9  UNL     1       6.391  -3.272  53.480  1.00  0.00     0.218 HD
ENDBRANCH  11  17
ENDBRANCH   4   5
ENDBRANCH   3   4
ENDBRANCH   1   3
BRANCH   1  19
HETATM   19  C7  UNL     1       8.773  -7.452  54.313  1.00  0.00     0.222 C 
BRANCH  19  20
HETATM   20  O5  UNL     1       8.413  -7.398  55.628  1.00  0.00    -0.361 OA
ATOM     21  H5  UNL     1       8.737  -8.086  56.197  1.00  0.00     0.213 HD
ENDBRANCH  19  20
BRANCH  19  22
HETATM   22  C8  UNL     1      10.072  -6.725  54.175  1.00  0.00     0.004 A 
HETATM   23  C9  UNL     1      10.425  -5.823  55.148  1.00  0.00     0.012 A 
HETATM   24  C10 UNL     1      11.608  -5.090  55.013  1.00  0.00     0.001 A 
HETATM   25  C11 UNL     1      12.387  -5.285  53.915  1.00  0.00     0.000 A 
HETATM   26  C12 UNL     1      12.050  -6.176  52.947  1.00  0.00     0.001 A 
HETATM   27  C13 UNL     1      10.857  -6.919  53.083  1.00  0.00     0.012 A 
ENDBRANCH  19  22
BRANCH  19  28
HETATM   28  C14 UNL     1       9.201  -8.915  54.077  1.00  0.00     0.117 A 
HETATM   29  C15 UNL     1       8.986  -9.690  52.998  1.00  0.00     0.043 A 
HETATM   30  C16 UNL     1       9.561 -10.903  53.268  1.00  0.00     0.065 A 
HETATM   31  C17 UNL     1      10.114 -10.806  54.516  1.00  0.00     0.215 A 
HETATM   32  O8  UNL     1       9.862  -9.579  54.958  1.00  0.00    -0.288 OA
BRANCH  31  33
HETATM   33  N3  UNL     1      10.828 -11.815  55.208  1.00  0.00    -0.090 N 
HETATM   34  O6  UNL     1      12.054 -11.968  55.011  1.00  0.00    -0.530 OA
HETATM   35  O7  UNL     1      10.206 -12.643  56.113  1.00  0.00    -0.530 OA
ENDBRANCH  31  33
ENDBRANCH  19  28
ENDBRANCH   1  19
TORSDOF 12
ENDMDL
MODEL 2
REMARK VINA RESULT: -9.990566312      2.181      4.057
REMARK  12 active torsions:
REMARK  status: ('A' for Active; 'I' for Inactive)
REMARK    1  A    between atoms: C3_4  and  C4_5 
REMARK    2  A    between atoms: C4_5  and  O2_6 
REMARK    3  A    between atoms: C4_5  and  O3_8 
REMARK    4  A    between atoms: C5_11  and  C6_12 
REMARK    5  A    between atoms: C6_12  and  N1_13 
REMARK    6  A    between atoms: N1_13  and  N2_14 
REMARK    7  A    between atoms: N2_14  and  C7_16 
REMARK    8  A    between atoms: C7_16  and  O5_17 
REMARK    9  A    between atoms: C7_16  and  C8_19 
REMARK   10  A    between atoms: C7_16  and  C14_25 
REMARK   11  A    between atoms: C17_28  and  N3_29 
REMARK   12  A    between atoms: C18_33  and  O9_34 
ROOT
HETATM    1  N2  UNL     1       7.642  -7.544  53.325  1.00  0.00    -0.296 N 
ATOM      2  H2  UNL     1       7.067  -8.024  54.016  1.00  0.00     0.179 HD
ENDROOT
BRANCH   1   3
HETATM    3  N1  UNL     1       7.056  -6.521  52.650  1.00  0.00    -0.136 NA
BRANCH   3   4
HETATM    4  C6  UNL     1       5.945  -5.972  53.336  1.00  0.00     0.202 C 
BRANCH   4   5
HETATM    5  C5  UNL     1       4.802  -5.468  52.555  1.00  0.00     0.106 A 
HETATM    6  O4  UNL     1       3.678  -5.942  52.227  1.00  0.00    -0.310 OA
HETATM    7  C3  UNL     1       2.773  -5.368  51.503  1.00  0.00     0.111 A 
HETATM    8  C2  UNL     1       3.002  -4.092  51.011  1.00  0.00     0.095 A 
HETATM    9  C1  UNL     1       4.191  -3.484  51.301  1.00  0.00     0.209 A 
HETATM   10  O1  UNL     1       4.436  -2.302  50.860  1.00  0.00    -0.285 OA
HETATM   11  C18 UNL     1       5.094  -4.150  52.060  1.00  0.00     0.147 A 
BRANCH   7  12
HETATM   12  C4  UNL     1       1.470  -6.034  51.139  1.00  0.00     0.312 C 
BRANCH  12  13
HETATM   13  O2  UNL     1       1.167  -7.150  51.816  1.00  0.00    -0.365 OA
ATOM     14  H2  UNL     1       1.385  -7.152  52.741  1.00  0.00     0.213 HD
ENDBRANCH  12  13
BRANCH  12  15
HETATM   15  O3  UNL     1       1.656  -6.303  49.739  1.00  0.00    -0.365 OA
ATOM     16  H3  UNL     1       1.497  -7.239  49.696  1.00  0.00     0.213 HD
ENDBRANCH  12  15
ENDBRANCH   7  12
BRANCH  11  17
HETATM   17  O9  UNL     1       6.300  -3.573  52.366  1.00  0.00    -0.355 OA
ATOM     18  H9  UNL     1       6.456  -3.225  53.236  1.00  0.00     0.218 HD
ENDBRANCH  11  17
ENDBRANCH   4   5
ENDBRANCH   3   4
ENDBRANCH   1   3
BRANCH   1  19
HETATM   19  C7  UNL     1       8.937  -8.000  53.172  1.00  0.00     0.222 C 
BRANCH  19  20
HETATM   20  O5  UNL     1       9.428  -8.075  51.902  1.00  0.00    -0.361 OA
ATOM     21  H5  UNL     1       9.515  -8.941  51.518  1.00  0.00     0.213 HD
ENDBRANCH  19  20
BRANCH  19  22
HETATM   22  C8  UNL     1       9.193  -9.319  53.829  1.00  0.00     0.004 A 
HETATM   23  C9  UNL     1      10.459  -9.847  53.768  1.00  0.00     0.012 A 
HETATM   24  C10 UNL     1      10.711 -11.104  54.327  1.00  0.00     0.001 A 
HETATM   25  C11 UNL     1       9.692 -11.781  54.921  1.00  0.00     0.000 A 
HETATM   26  C12 UNL     1       8.435 -11.268  54.991  1.00  0.00     0.001 A 
HETATM   27  C13 UNL     1       8.181  -9.998  54.428  1.00  0.00     0.012 A 
ENDBRANCH  19  22
BRANCH  19  28
HETATM   28  C14 UNL     1       9.916  -7.075  53.924  1.00  0.00     0.117 A 
HETATM   29  C15 UNL     1       9.996  -6.833  55.246  1.00  0.00     0.043 A 
HETATM   30  C16 UNL     1      11.025  -5.947  55.417  1.00  0.00     0.065 A 
HETATM   31  C17 UNL     1      11.537  -5.692  54.174  1.00  0.00     0.215 A 
HETATM   32  O8  UNL     1      10.822  -6.403  53.308  1.00  0.00    -0.288 OA
BRANCH  31  33
HETATM   33  N3  UNL     1      12.625  -4.841  53.862  1.00  0.00    -0.090 N 
HETATM   34  O6  UNL     1      13.433  -5.157  52.961  1.00  0.00    -0.530 OA
HETATM   35  O7  UNL     1      12.821  -3.653  54.526  1.00  0.00    -0.530 OA
ENDBRANCH  31  33
ENDBRANCH  19  28
ENDBRANCH   1  19
TORSDOF 12
ENDMDL
MODEL 3
REMARK VINA RESULT: -9.917721234      1.240      1.533
REMARK  12 active torsions:
REMARK  status: ('A' for Active; 'I' for Inactive)
REMARK    1  A    between atoms: C3_4  and  C4_5 
REMARK    2  A    between atoms: C4_5  and  O2_6 
REMARK    3  A    between atoms: C4_5  and  O3_8 
REMARK    4  A    between atoms: C5_11  and  C6_12 
REMARK    5  A    between atoms: C6_12  and  N1_13 
REMARK    6  A    between atoms: N1_13  and  N2_14 
REMARK    7  A    between atoms: N2_14  and  C7_16 
REMARK    8  A    between atoms: C7_16  and  O5_17 
REMARK    9  A    between atoms: C7_16  and  C8_19 
REMARK   10  A    between atoms: C7_16  and  C14_25 
REMARK   11  A    between atoms: C17_28  and  N3_29 
REMARK   12  A    between atoms: C18_33  and  O9_34 
ROOT
HETATM    1  N2  UNL     1       7.529  -7.515  53.150  1.00  0.00    -0.296 N 
ATOM      2  H2  UNL     1       7.243  -8.360  52.655  1.00  0.00     0.179 HD
ENDROOT
BRANCH   1   3
HETATM    3  N1  UNL     1       7.074  -6.336  52.652  1.00  0.00    -0.136 NA
BRANCH   3   4
HETATM    4  C6  UNL     1       5.925  -5.858  53.328  1.00  0.00     0.202 C 
BRANCH   4   5
HETATM    5  C5  UNL     1       4.779  -5.382  52.536  1.00  0.00     0.106 A 
HETATM    6  O4  UNL     1       3.666  -5.879  52.205  1.00  0.00    -0.310 OA
HETATM    7  C3  UNL     1       2.754  -5.329  51.471  1.00  0.00     0.111 A 
HETATM    8  C2  UNL     1       2.963  -4.053  50.970  1.00  0.00     0.095 A 
HETATM    9  C1  UNL     1       4.138  -3.420  51.262  1.00  0.00     0.209 A 
HETATM   10  O1  UNL     1       4.364  -2.237  50.813  1.00  0.00    -0.285 OA
HETATM   11  C18 UNL     1       5.048  -4.063  52.032  1.00  0.00     0.147 A 
BRANCH   7  12
HETATM   12  C4  UNL     1       1.466  -6.021  51.105  1.00  0.00     0.312 C 
BRANCH  12  13
HETATM   13  O2  UNL     1       1.181  -7.139  51.787  1.00  0.00    -0.365 OA
ATOM     14  H2  UNL     1       1.924  -7.616  52.140  1.00  0.00     0.213 HD
ENDBRANCH  12  13
BRANCH  12  15
HETATM   15  O3  UNL     1       1.664  -6.295  49.708  1.00  0.00    -0.365 OA
ATOM     16  H3  UNL     1       2.089  -7.145  49.732  1.00  0.00     0.213 HD
ENDBRANCH  12  15
ENDBRANCH   7  12
BRANCH  11  17
HETATM   17  O9  UNL     1       6.241  -3.460  52.340  1.00  0.00    -0.355 OA
ATOM     18  H9  UNL     1       6.328  -2.953  53.139  1.00  0.00     0.218 HD
ENDBRANCH  11  17
ENDBRANCH   4   5
ENDBRANCH   3   4
ENDBRANCH   1   3
BRANCH   1  19
HETATM   19  C7  UNL     1       8.337  -7.690  54.256  1.00  0.00     0.222 C 
BRANCH  19  20
HETATM   20  O5  UNL     1       7.812  -7.366  55.472  1.00  0.00    -0.361 OA
ATOM     21  H5  UNL     1       8.362  -7.503  56.235  1.00  0.00     0.213 HD
ENDBRANCH  19  20
BRANCH  19  22
HETATM   22  C8  UNL     1       9.664  -7.010  54.147  1.00  0.00     0.004 A 
HETATM   23  C9  UNL     1      10.046  -6.152  55.150  1.00  0.00     0.012 A 
HETATM   24  C10 UNL     1      11.258  -5.462  55.044  1.00  0.00     0.001 A 
HETATM   25  C11 UNL     1      12.035  -5.653  53.944  1.00  0.00     0.000 A 
HETATM   26  C12 UNL     1      11.670  -6.500  52.947  1.00  0.00     0.001 A 
HETATM   27  C13 UNL     1      10.448  -7.200  53.054  1.00  0.00     0.012 A 
ENDBRANCH  19  22
BRANCH  19  28
HETATM   28  C14 UNL     1       8.749  -9.171  54.382  1.00  0.00     0.117 A 
HETATM   29  C15 UNL     1       9.984  -9.706  54.347  1.00  0.00     0.043 A 
HETATM   30  C16 UNL     1       9.827 -11.057  54.505  1.00  0.00     0.065 A 
HETATM   31  C17 UNL     1       8.485 -11.285  54.636  1.00  0.00     0.215 A 
HETATM   32  O8  UNL     1       7.881 -10.104  54.552  1.00  0.00    -0.288 OA
BRANCH  31  33
HETATM   33  N3  UNL     1       7.851 -12.537  54.835  1.00  0.00    -0.090 N 
HETATM   34  O6  UNL     1       8.242 -13.304  55.743  1.00  0.00    -0.530 OA
HETATM   35  O7  UNL     1       6.796 -12.940  54.050  1.00  0.00    -0.530 OA
ENDBRANCH  31  33
ENDBRANCH  19  28
ENDBRANCH   1  19
TORSDOF 12
ENDMDL
MODEL 4
REMARK VINA RESULT: -9.432383636      1.715      1.972
REMARK  12 active torsions:
REMARK  status: ('A' for Active; 'I' for Inactive)
REMARK    1  A    between atoms: C3_4  and  C4_5 
REMARK    2  A    between atoms: C4_5  and  O2_6 
REMARK    3  A    between atoms: C4_5  and  O3_8 
REMARK    4  A    between atoms: C5_11  and  C6_12 
REMARK    5  A    between atoms: C6_12  and  N1_13 
REMARK    6  A    between atoms: N1_13  and  N2_14 
REMARK    7  A    between atoms: N2_14  and  C7_16 
REMARK    8  A    between atoms: C7_16  and  O5_17 
REMARK    9  A    between atoms: C7_16  and  C8_19 
REMARK   10  A    between atoms: C7_16  and  C14_25 
REMARK   11  A    between atoms: C17_28  and  N3_29 
REMARK   12  A    between atoms: C18_33  and  O9_34 
ROOT
HETATM    1  N2  UNL     1       8.106  -5.844  54.127  1.00  0.00    -0.296 N 
ATOM      2  H2  UNL     1       8.111  -4.834  54.268  1.00  0.00     0.179 HD
ENDROOT
BRANCH   1   3
HETATM    3  N1  UNL     1       7.081  -6.351  53.395  1.00  0.00    -0.136 NA
BRANCH   3   4
HETATM    4  C6  UNL     1       5.810  -5.934  53.861  1.00  0.00     0.202 C 
BRANCH   4   5
HETATM    5  C5  UNL     1       4.793  -5.518  52.880  1.00  0.00     0.106 A 
HETATM    6  O4  UNL     1       3.745  -6.047  52.416  1.00  0.00    -0.310 OA
HETATM    7  C3  UNL     1       2.950  -5.550  51.524  1.00  0.00     0.111 A 
HETATM    8  C2  UNL     1       3.226  -4.302  50.988  1.00  0.00     0.095 A 
HETATM    9  C1  UNL     1       4.342  -3.638  51.416  1.00  0.00     0.209 A 
HETATM   10  O1  UNL     1       4.627  -2.479  50.939  1.00  0.00    -0.285 OA
HETATM   11  C18 UNL     1       5.129  -4.226  52.348  1.00  0.00     0.147 A 
BRANCH   7  12
HETATM   12  C4  UNL     1       1.736  -6.279  51.010  1.00  0.00     0.312 C 
BRANCH  12  13
HETATM   13  O2  UNL     1       0.806  -5.525  50.404  1.00  0.00    -0.365 OA
ATOM     14  H2  UNL     1       0.652  -5.709  49.485  1.00  0.00     0.213 HD
ENDBRANCH  12  13
BRANCH  12  15
HETATM   15  O3  UNL     1       1.222  -6.883  52.208  1.00  0.00    -0.365 OA
ATOM     16  H3  UNL     1       1.766  -7.658  52.287  1.00  0.00     0.213 HD
ENDBRANCH  12  15
ENDBRANCH   7  12
BRANCH  11  17
HETATM   17  O9  UNL     1       6.260  -3.591  52.796  1.00  0.00    -0.355 OA
ATOM     18  H9  UNL     1       6.829  -3.140  52.184  1.00  0.00     0.218 HD
ENDBRANCH  11  17
ENDBRANCH   4   5
ENDBRANCH   3   4
ENDBRANCH   1   3
BRANCH   1  19
HETATM   19  C7  UNL     1       9.143  -6.553  54.702  1.00  0.00     0.222 C 
BRANCH  19  20
HETATM   20  O5  UNL     1       9.101  -6.740  56.052  1.00  0.00    -0.361 OA
ATOM     21  H5  UNL     1       9.921  -6.670  56.528  1.00  0.00     0.213 HD
ENDBRANCH  19  20
BRANCH  19  22
HETATM   22  C8  UNL     1      10.498  -6.018  54.366  1.00  0.00     0.004 A 
HETATM   23  C9  UNL     1      11.042  -5.053  55.179  1.00  0.00     0.012 A 
HETATM   24  C10 UNL     1      12.284  -4.497  54.855  1.00  0.00     0.001 A 
HETATM   25  C11 UNL     1      12.929  -4.924  53.737  1.00  0.00     0.000 A 
HETATM   26  C12 UNL     1      12.404  -5.880  52.926  1.00  0.00     0.001 A 
HETATM   27  C13 UNL     1      11.151  -6.443  53.253  1.00  0.00     0.012 A 
ENDBRANCH  19  22
BRANCH  19  28
HETATM   28  C14 UNL     1       9.206  -7.974  54.104  1.00  0.00     0.117 A 
HETATM   29  C15 UNL     1       9.227  -9.156  54.747  1.00  0.00     0.043 A 
HETATM   30  C16 UNL     1       9.281 -10.124  53.781  1.00  0.00     0.065 A 
HETATM   31  C17 UNL     1       9.284  -9.477  52.575  1.00  0.00     0.215 A 
HETATM   32  O8  UNL     1       9.239  -8.175  52.835  1.00  0.00    -0.288 OA
BRANCH  31  33
HETATM   33  N3  UNL     1       9.319 -10.075  51.291  1.00  0.00    -0.090 N 
HETATM   34  O6  UNL     1       8.445  -9.794  50.442  1.00  0.00    -0.530 OA
HETATM   35  O7  UNL     1      10.307 -10.964  50.939  1.00  0.00    -0.530 OA
ENDBRANCH  31  33
ENDBRANCH  19  28
ENDBRANCH   1  19
TORSDOF 12
ENDMDL
MODEL 5
REMARK VINA RESULT: -9.041268290      1.735      2.209
REMARK  12 active torsions:
REMARK  status: ('A' for Active; 'I' for Inactive)
REMARK    1  A    between atoms: C3_4  and  C4_5 
REMARK    2  A    between atoms: C4_5  and  O2_6 
REMARK    3  A    between atoms: C4_5  and  O3_8 
REMARK    4  A    between atoms: C5_11  and  C6_12 
REMARK    5  A    between atoms: C6_12  and  N1_13 
REMARK    6  A    between atoms: N1_13  and  N2_14 
REMARK    7  A    between atoms: N2_14  and  C7_16 
REMARK    8  A    between atoms: C7_16  and  O5_17 
REMARK    9  A    between atoms: C7_16  and  C8_19 
REMARK   10  A    between atoms: C7_16  and  C14_25 
REMARK   11  A    between atoms: C17_28  and  N3_29 
REMARK   12  A    between atoms: C18_33  and  O9_34 
ROOT
HETATM    1  N2  UNL     1       7.821  -6.266  53.666  1.00  0.00    -0.296 N 
ATOM      2  H2  UNL     1       8.039  -5.340  53.299  1.00  0.00     0.179 HD
ENDROOT
BRANCH   1   3
HETATM    3  N1  UNL     1       6.583  -6.754  53.392  1.00  0.00    -0.136 NA
BRANCH   3   4
HETATM    4  C6  UNL     1       5.545  -5.866  53.764  1.00  0.00     0.202 C 
BRANCH   4   5
HETATM    5  C5  UNL     1       4.580  -5.428  52.741  1.00  0.00     0.106 A 
HETATM    6  O4  UNL     1       3.492  -5.891  52.297  1.00  0.00    -0.310 OA
HETATM    7  C3  UNL     1       2.756  -5.387  51.360  1.00  0.00     0.111 A 
HETATM    8  C2  UNL     1       3.150  -4.209  50.745  1.00  0.00     0.095 A 
HETATM    9  C1  UNL     1       4.318  -3.621  51.144  1.00  0.00     0.209 A 
HETATM   10  O1  UNL     1       4.713  -2.529  50.594  1.00  0.00    -0.285 OA
HETATM   11  C18 UNL     1       5.039  -4.212  52.128  1.00  0.00     0.147 A 
BRANCH   7  12
HETATM   12  C4  UNL     1       1.484  -6.036  50.877  1.00  0.00     0.312 C 
BRANCH  12  13
HETATM   13  O2  UNL     1       1.192  -7.232  51.408  1.00  0.00    -0.365 OA
ATOM     14  H2  UNL     1       1.705  -7.967  51.094  1.00  0.00     0.213 HD
ENDBRANCH  12  13
BRANCH  12  15
HETATM   15  O3  UNL     1       1.720  -6.134  49.463  1.00  0.00    -0.365 OA
ATOM     16  H3  UNL     1       2.620  -6.438  49.434  1.00  0.00     0.213 HD
ENDBRANCH  12  15
ENDBRANCH   7  12
BRANCH  11  17
HETATM   17  O9  UNL     1       6.218  -3.653  52.550  1.00  0.00    -0.355 OA
ATOM     18  H9  UNL     1       6.984  -4.200  52.686  1.00  0.00     0.218 HD
ENDBRANCH  11  17
ENDBRANCH   4   5
ENDBRANCH   3   4
ENDBRANCH   1   3
BRANCH   1  19
HETATM   19  C7  UNL     1       8.815  -6.893  54.391  1.00  0.00     0.222 C 
BRANCH  19  20
HETATM   20  O5  UNL     1       8.577  -7.117  55.715  1.00  0.00    -0.361 OA
ATOM     21  H5  UNL     1       9.281  -7.500  56.226  1.00  0.00     0.213 HD
ENDBRANCH  19  20
BRANCH  19  22
HETATM   22  C8  UNL     1      10.151  -6.230  54.283  1.00  0.00     0.004 A 
HETATM   23  C9  UNL     1      10.947  -6.532  53.205  1.00  0.00     0.012 A 
HETATM   24  C10 UNL     1      12.223  -5.967  53.109  1.00  0.00     0.001 A 
HETATM   25  C11 UNL     1      12.651  -5.129  54.091  1.00  0.00     0.000 A 
HETATM   26  C12 UNL     1      11.873  -4.820  55.161  1.00  0.00     0.001 A 
HETATM   27  C13 UNL     1      10.584  -5.388  55.257  1.00  0.00     0.012 A 
ENDBRANCH  19  22
BRANCH  19  28
HETATM   28  C14 UNL     1       9.104  -8.287  53.796  1.00  0.00     0.117 A 
HETATM   29  C15 UNL     1       9.249  -9.461  54.438  1.00  0.00     0.043 A 
HETATM   30  C16 UNL     1       9.488 -10.404  53.475  1.00  0.00     0.065 A 
HETATM   31  C17 UNL     1       9.471  -9.752  52.273  1.00  0.00     0.215 A 
HETATM   32  O8  UNL     1       9.235  -8.470  52.531  1.00  0.00    -0.288 OA
BRANCH  31  33
HETATM   33  N3  UNL     1       9.659 -10.327  50.992  1.00  0.00    -0.090 N 
HETATM   34  O6  UNL     1       8.882 -10.043  50.053  1.00  0.00    -0.530 OA
HETATM   35  O7  UNL     1      10.692 -11.199  50.741  1.00  0.00    -0.530 OA
ENDBRANCH  31  33
ENDBRANCH  19  28
ENDBRANCH   1  19
TORSDOF 12
ENDMDL
