MODEL 1
REMARK VINA RESULT: -9.074528985      0.000      0.000
REMARK  15 active torsions:
REMARK  status: ('A' for Active; 'I' for Inactive)
REMARK    1  A    between atoms: O1_1  and  C1_3 
REMARK    2  A    between atoms: C1_3  and  N1_4 
REMARK    3  A    between atoms: C1_3  and  C16_32 
REMARK    4  A    between atoms: N1_4  and  C2_5 
REMARK    5  A    between atoms: C2_5  and  C3_6 
REMARK    6  A    between atoms: C5_8  and  O2_9 
REMARK    7  A    between atoms: C6_11  and  O3_12 
REMARK    8  A    between atoms: C7_14  and  N2_15 
REMARK    9  A    between atoms: N2_15  and  N3_17 
REMARK   10  A    between atoms: N3_17  and  C8_18 
REMARK   11  A    between atoms: C8_18  and  C9_19 
REMARK   12  A    between atoms: C13_23  and  N4_24 
REMARK   13  A    between atoms: C15_28  and  N5_29 
REMARK   14  A    between atoms: C16_32  and  O8_33 
REMARK   15  A    between atoms: N6_35  and  O9_37 
ROOT
HETATM    1  C3  UNL     1       4.021  -4.167  48.861  1.00  0.00     0.031 A 
HETATM    2  C4  UNL     1       2.868  -4.845  48.563  1.00  0.00     0.056 A 
HETATM    3  C5  UNL     1       2.203  -5.544  49.582  1.00  0.00     0.102 A 
HETATM    4  C6  UNL     1       2.683  -5.558  50.856  1.00  0.00     0.129 A 
HETATM    5  C7  UNL     1       3.850  -4.874  51.173  1.00  0.00     0.114 A 
HETATM    6  C15 UNL     1       4.489  -4.200  50.178  1.00  0.00     0.146 A 
ENDROOT
BRANCH   5   7
HETATM    7  N2  UNL     1       4.317  -4.897  52.508  1.00  0.00    -0.299 N 
ATOM      8  H2  UNL     1       4.268  -4.016  53.020  1.00  0.00     0.182 HD
BRANCH   7   9
HETATM    9  N3  UNL     1       4.827  -5.971  53.192  1.00  0.00    -0.136 NA
BRANCH   9  10
HETATM   10  C8  UNL     1       5.922  -5.631  54.069  1.00  0.00     0.173 C 
BRANCH  10  11
HETATM   11  C9  UNL     1       7.166  -6.363  53.827  1.00  0.00    -0.040 A 
HETATM   12  C10 UNL     1       8.172  -6.180  54.770  1.00  0.00     0.008 A 
HETATM   13  C11 UNL     1       9.401  -6.796  54.701  1.00  0.00     0.003 A 
HETATM   14  C12 UNL     1       9.630  -7.645  53.619  1.00  0.00     0.036 A 
HETATM   15  C13 UNL     1       8.655  -7.850  52.666  1.00  0.00     0.103 A 
HETATM   16  C14 UNL     1       7.428  -7.196  52.790  1.00  0.00     0.044 A 
BRANCH  15  17
HETATM   17  N4  UNL     1       8.891  -8.715  51.565  1.00  0.00    -0.116 N 
HETATM   18  O4  UNL     1      10.008  -8.715  51.024  1.00  0.00    -0.532 OA
HETATM   19  O5  UNL     1       7.891  -9.537  51.114  1.00  0.00    -0.532 OA
ENDBRANCH  15  17
ENDBRANCH  10  11
ENDBRANCH   9  10
ENDBRANCH   7   9
ENDBRANCH   5   7
BRANCH   4  20
HETATM   20  O3  UNL     1       2.046  -6.242  51.891  1.00  0.00    -0.356 OA
ATOM     21  H3  UNL     1       1.765  -5.813  52.691  1.00  0.00     0.218 HD
ENDBRANCH   4  20
BRANCH   6  22
HETATM   22  N5  UNL     1       5.714  -3.500  50.428  1.00  0.00    -0.112 N 
HETATM   23  O6  UNL     1       5.746  -2.760  51.428  1.00  0.00    -0.532 OA
HETATM   24  O7  UNL     1       6.812  -3.604  49.639  1.00  0.00    -0.532 OA
ENDBRANCH   6  22
BRANCH   3  25
HETATM   25  O2  UNL     1       1.054  -6.204  49.218  1.00  0.00    -0.358 OA
ATOM     26  H2  UNL     1       0.297  -5.660  49.033  1.00  0.00     0.217 HD
ENDBRANCH   3  25
BRANCH   1  27
HETATM   27  C2  UNL     1       4.752  -3.423  47.807  1.00  0.00     0.199 C 
BRANCH  27  28
HETATM   28  N1  UNL     1       4.592  -3.570  46.651  1.00  0.00    -0.389 NA
BRANCH  28  29
HETATM   29  C1  UNL     1       4.462  -3.685  45.361  1.00  0.00     0.267 C 
BRANCH  29  30
HETATM   30  O1  UNL     1       4.573  -2.638  44.594  1.00  0.00    -0.332 OA
ATOM     31  H1  UNL     1       4.049  -1.863  44.763  1.00  0.00     0.220 HD
ENDBRANCH  29  30
BRANCH  29  32
HETATM   32  C16 UNL     1       4.184  -4.962  44.652  1.00  0.00     0.227 C 
HETATM   33  N6  UNL     1       3.040  -5.509  44.677  1.00  0.00    -0.243 N 
ATOM     34  H6  UNL     1       2.880  -6.385  44.179  1.00  0.00     0.196 HD
BRANCH  32  35
HETATM   35  O8  UNL     1       5.203  -5.575  43.942  1.00  0.00    -0.341 OA
ATOM     36  H8  UNL     1       5.454  -6.463  44.168  1.00  0.00     0.219 HD
ENDBRANCH  32  35
BRANCH  33  37
HETATM   37  O9  UNL     1       2.020  -4.920  45.373  1.00  0.00    -0.288 OA
ATOM     38  H9  UNL     1       1.327  -4.471  44.904  1.00  0.00     0.244 HD
ENDBRANCH  33  37
ENDBRANCH  29  32
ENDBRANCH  28  29
ENDBRANCH  27  28
ENDBRANCH   1  27
TORSDOF 15
ENDMDL
MODEL 2
REMARK VINA RESULT: -8.800185202      1.127      2.781
REMARK  15 active torsions:
REMARK  status: ('A' for Active; 'I' for Inactive)
REMARK    1  A    between atoms: O1_1  and  C1_3 
REMARK    2  A    between atoms: C1_3  and  N1_4 
REMARK    3  A    between atoms: C1_3  and  C16_32 
REMARK    4  A    between atoms: N1_4  and  C2_5 
REMARK    5  A    between atoms: C2_5  and  C3_6 
REMARK    6  A    between atoms: C5_8  and  O2_9 
REMARK    7  A    between atoms: C6_11  and  O3_12 
REMARK    8  A    between atoms: C7_14  and  N2_15 
REMARK    9  A    between atoms: N2_15  and  N3_17 
REMARK   10  A    between atoms: N3_17  and  C8_18 
REMARK   11  A    between atoms: C8_18  and  C9_19 
REMARK   12  A    between atoms: C13_23  and  N4_24 
REMARK   13  A    between atoms: C15_28  and  N5_29 
REMARK   14  A    between atoms: C16_32  and  O8_33 
REMARK   15  A    between atoms: N6_35  and  O9_37 
ROOT
HETATM    1  C3  UNL     1       3.637  -4.593  48.434  1.00  0.00     0.031 A 
HETATM    2  C4  UNL     1       4.673  -3.800  48.016  1.00  0.00     0.056 A 
HETATM    3  C5  UNL     1       5.542  -3.251  48.971  1.00  0.00     0.102 A 
HETATM    4  C6  UNL     1       5.373  -3.494  50.299  1.00  0.00     0.129 A 
HETATM    5  C7  UNL     1       4.327  -4.297  50.738  1.00  0.00     0.114 A 
HETATM    6  C15 UNL     1       3.489  -4.824  49.805  1.00  0.00     0.146 A 
ENDROOT
BRANCH   5   7
HETATM    7  N2  UNL     1       4.185  -4.541  52.124  1.00  0.00    -0.299 N 
ATOM      8  H2  UNL     1       3.712  -3.817  52.664  1.00  0.00     0.182 HD
BRANCH   7   9
HETATM    9  N3  UNL     1       4.613  -5.641  52.823  1.00  0.00    -0.136 NA
BRANCH   9  10
HETATM   10  C8  UNL     1       5.658  -5.350  53.776  1.00  0.00     0.173 C 
BRANCH  10  11
HETATM   11  C9  UNL     1       6.795  -6.270  53.755  1.00  0.00    -0.040 A 
HETATM   12  C10 UNL     1       7.476  -6.422  54.958  1.00  0.00     0.008 A 
HETATM   13  C11 UNL     1       8.564  -7.251  55.119  1.00  0.00     0.003 A 
HETATM   14  C12 UNL     1       8.989  -7.968  54.002  1.00  0.00     0.036 A 
HETATM   15  C13 UNL     1       8.338  -7.842  52.793  1.00  0.00     0.103 A 
HETATM   16  C14 UNL     1       7.241  -6.985  52.693  1.00  0.00     0.044 A 
BRANCH  15  17
HETATM   17  N4  UNL     1       8.775  -8.574  51.657  1.00  0.00    -0.116 N 
HETATM   18  O4  UNL     1       9.892  -8.332  51.175  1.00  0.00    -0.532 OA
HETATM   19  O5  UNL     1       7.964  -9.534  51.109  1.00  0.00    -0.532 OA
ENDBRANCH  15  17
ENDBRANCH  10  11
ENDBRANCH   9  10
ENDBRANCH   7   9
ENDBRANCH   5   7
BRANCH   4  20
HETATM   20  O3  UNL     1       6.219  -2.964  51.273  1.00  0.00    -0.356 OA
ATOM     21  H3  UNL     1       7.037  -2.530  51.058  1.00  0.00     0.218 HD
ENDBRANCH   4  20
BRANCH   6  22
HETATM   22  N5  UNL     1       2.371  -5.634  50.189  1.00  0.00    -0.112 N 
HETATM   23  O6  UNL     1       2.627  -6.748  50.683  1.00  0.00    -0.532 OA
HETATM   24  O7  UNL     1       1.079  -5.252  50.037  1.00  0.00    -0.532 OA
ENDBRANCH   6  22
BRANCH   3  25
HETATM   25  O2  UNL     1       6.560  -2.464  48.487  1.00  0.00    -0.358 OA
ATOM     26  H2  UNL     1       6.312  -1.603  48.172  1.00  0.00     0.217 HD
ENDBRANCH   3  25
BRANCH   1  27
HETATM   27  C2  UNL     1       2.696  -5.184  47.451  1.00  0.00     0.199 C 
BRANCH  27  28
HETATM   28  N1  UNL     1       2.892  -5.252  46.293  1.00  0.00    -0.389 NA
BRANCH  28  29
HETATM   29  C1  UNL     1       3.112  -5.258  45.011  1.00  0.00     0.267 C 
BRANCH  29  30
HETATM   30  O1  UNL     1       2.220  -5.745  44.195  1.00  0.00    -0.332 OA
ATOM     31  H1  UNL     1       2.490  -6.185  43.398  1.00  0.00     0.220 HD
ENDBRANCH  29  30
BRANCH  29  32
HETATM   32  C16 UNL     1       4.346  -4.739  44.363  1.00  0.00     0.227 C 
HETATM   33  N6  UNL     1       4.684  -3.519  44.441  1.00  0.00    -0.243 N 
ATOM     34  H6  UNL     1       5.537  -3.195  43.986  1.00  0.00     0.196 HD
BRANCH  32  35
HETATM   35  O8  UNL     1       5.154  -5.613  43.654  1.00  0.00    -0.341 OA
ATOM     36  H8  UNL     1       5.509  -5.338  42.817  1.00  0.00     0.219 HD
ENDBRANCH  32  35
BRANCH  33  37
HETATM   37  O9  UNL     1       3.900  -2.640  45.136  1.00  0.00    -0.288 OA
ATOM     38  H9  UNL     1       3.075  -2.934  45.505  1.00  0.00     0.244 HD
ENDBRANCH  33  37
ENDBRANCH  29  32
ENDBRANCH  28  29
ENDBRANCH  27  28
ENDBRANCH   1  27
TORSDOF 15
ENDMDL
MODEL 3
REMARK VINA RESULT: -8.749560350      0.916      1.329
REMARK  15 active torsions:
REMARK  status: ('A' for Active; 'I' for Inactive)
REMARK    1  A    between atoms: O1_1  and  C1_3 
REMARK    2  A    between atoms: C1_3  and  N1_4 
REMARK    3  A    between atoms: C1_3  and  C16_32 
REMARK    4  A    between atoms: N1_4  and  C2_5 
REMARK    5  A    between atoms: C2_5  and  C3_6 
REMARK    6  A    between atoms: C5_8  and  O2_9 
REMARK    7  A    between atoms: C6_11  and  O3_12 
REMARK    8  A    between atoms: C7_14  and  N2_15 
REMARK    9  A    between atoms: N2_15  and  N3_17 
REMARK   10  A    between atoms: N3_17  and  C8_18 
REMARK   11  A    between atoms: C8_18  and  C9_19 
REMARK   12  A    between atoms: C13_23  and  N4_24 
REMARK   13  A    between atoms: C15_28  and  N5_29 
REMARK   14  A    between atoms: C16_32  and  O8_33 
REMARK   15  A    between atoms: N6_35  and  O9_37 
ROOT
HETATM    1  C3  UNL     1       3.042  -4.412  48.862  1.00  0.00     0.031 A 
HETATM    2  C4  UNL     1       1.969  -5.262  48.922  1.00  0.00     0.056 A 
HETATM    3  C5  UNL     1       1.695  -5.933  50.124  1.00  0.00     0.102 A 
HETATM    4  C6  UNL     1       2.474  -5.751  51.225  1.00  0.00     0.129 A 
HETATM    5  C7  UNL     1       3.564  -4.890  51.179  1.00  0.00     0.114 A 
HETATM    6  C15 UNL     1       3.823  -4.246  50.010  1.00  0.00     0.146 A 
ENDROOT
BRANCH   5   7
HETATM    7  N2  UNL     1       4.347  -4.714  52.344  1.00  0.00    -0.299 N 
ATOM      8  H2  UNL     1       3.873  -4.304  53.149  1.00  0.00     0.182 HD
BRANCH   7   9
HETATM    9  N3  UNL     1       5.670  -5.031  52.513  1.00  0.00    -0.136 NA
BRANCH   9  10
HETATM   10  C8  UNL     1       5.902  -6.013  53.545  1.00  0.00     0.173 C 
BRANCH  10  11
HETATM   11  C9  UNL     1       7.223  -6.643  53.522  1.00  0.00    -0.040 A 
HETATM   12  C10 UNL     1       8.076  -6.306  54.567  1.00  0.00     0.008 A 
HETATM   13  C11 UNL     1       9.350  -6.809  54.705  1.00  0.00     0.003 A 
HETATM   14  C12 UNL     1       9.789  -7.705  53.731  1.00  0.00     0.036 A 
HETATM   15  C13 UNL     1       8.970  -8.062  52.681  1.00  0.00     0.103 A 
HETATM   16  C14 UNL     1       7.689  -7.517  52.596  1.00  0.00     0.044 A 
BRANCH  15  17
HETATM   17  N4  UNL     1       9.422  -8.975  51.691  1.00  0.00    -0.116 N 
HETATM   18  O4  UNL     1      10.632  -9.241  51.620  1.00  0.00    -0.532 OA
HETATM   19  O5  UNL     1       8.523  -9.550  50.830  1.00  0.00    -0.532 OA
ENDBRANCH  15  17
ENDBRANCH  10  11
ENDBRANCH   9  10
ENDBRANCH   7   9
ENDBRANCH   5   7
BRANCH   4  20
HETATM   20  O3  UNL     1       2.228  -6.402  52.434  1.00  0.00    -0.356 OA
ATOM     21  H3  UNL     1       2.925  -6.660  53.027  1.00  0.00     0.218 HD
ENDBRANCH   4  20
BRANCH   6  22
HETATM   22  N5  UNL     1       4.949  -3.369  49.882  1.00  0.00    -0.112 N 
HETATM   23  O6  UNL     1       4.890  -2.284  50.490  1.00  0.00    -0.532 OA
HETATM   24  O7  UNL     1       6.048  -3.662  49.143  1.00  0.00    -0.532 OA
ENDBRANCH   6  22
BRANCH   3  25
HETATM   25  O2  UNL     1       0.606  -6.772  50.118  1.00  0.00    -0.358 OA
ATOM     26  H2  UNL     1       0.127  -6.845  50.935  1.00  0.00     0.217 HD
ENDBRANCH   3  25
BRANCH   1  27
HETATM   27  C2  UNL     1       3.363  -3.691  47.606  1.00  0.00     0.199 C 
BRANCH  27  28
HETATM   28  N1  UNL     1       3.324  -4.169  46.531  1.00  0.00    -0.389 NA
BRANCH  28  29
HETATM   29  C1  UNL     1       3.349  -4.695  45.341  1.00  0.00     0.267 C 
BRANCH  29  30
HETATM   30  O1  UNL     1       2.361  -5.438  44.931  1.00  0.00    -0.332 OA
ATOM     31  H1  UNL     1       2.381  -5.825  44.064  1.00  0.00     0.220 HD
ENDBRANCH  29  30
BRANCH  29  32
HETATM   32  C16 UNL     1       4.456  -4.517  44.363  1.00  0.00     0.227 C 
HETATM   33  N6  UNL     1       4.867  -3.369  44.015  1.00  0.00    -0.243 N 
ATOM     34  H6  UNL     1       5.629  -3.280  43.343  1.00  0.00     0.196 HD
BRANCH  32  35
HETATM   35  O8  UNL     1       5.057  -5.638  43.815  1.00  0.00    -0.341 OA
ATOM     36  H8  UNL     1       5.795  -5.526  43.227  1.00  0.00     0.219 HD
ENDBRANCH  32  35
BRANCH  33  37
HETATM   37  O9  UNL     1       4.286  -2.249  44.545  1.00  0.00    -0.288 OA
ATOM     38  H9  UNL     1       4.682  -1.398  44.399  1.00  0.00     0.244 HD
ENDBRANCH  33  37
ENDBRANCH  29  32
ENDBRANCH  28  29
ENDBRANCH  27  28
ENDBRANCH   1  27
TORSDOF 15
ENDMDL
MODEL 4
REMARK VINA RESULT: -8.731890649      1.046      1.221
REMARK  15 active torsions:
REMARK  status: ('A' for Active; 'I' for Inactive)
REMARK    1  A    between atoms: O1_1  and  C1_3 
REMARK    2  A    between atoms: C1_3  and  N1_4 
REMARK    3  A    between atoms: C1_3  and  C16_32 
REMARK    4  A    between atoms: N1_4  and  C2_5 
REMARK    5  A    between atoms: C2_5  and  C3_6 
REMARK    6  A    between atoms: C5_8  and  O2_9 
REMARK    7  A    between atoms: C6_11  and  O3_12 
REMARK    8  A    between atoms: C7_14  and  N2_15 
REMARK    9  A    between atoms: N2_15  and  N3_17 
REMARK   10  A    between atoms: N3_17  and  C8_18 
REMARK   11  A    between atoms: C8_18  and  C9_19 
REMARK   12  A    between atoms: C13_23  and  N4_24 
REMARK   13  A    between atoms: C15_28  and  N5_29 
REMARK   14  A    between atoms: C16_32  and  O8_33 
REMARK   15  A    between atoms: N6_35  and  O9_37 
ROOT
HETATM    1  C3  UNL     1       3.158  -4.488  48.650  1.00  0.00     0.031 A 
HETATM    2  C4  UNL     1       2.077  -5.321  48.765  1.00  0.00     0.056 A 
HETATM    3  C5  UNL     1       1.774  -5.879  50.016  1.00  0.00     0.102 A 
HETATM    4  C6  UNL     1       2.534  -5.607  51.112  1.00  0.00     0.129 A 
HETATM    5  C7  UNL     1       3.633  -4.763  51.010  1.00  0.00     0.114 A 
HETATM    6  C15 UNL     1       3.920  -4.228  49.793  1.00  0.00     0.146 A 
ENDROOT
BRANCH   5   7
HETATM    7  N2  UNL     1       4.396  -4.490  52.170  1.00  0.00    -0.299 N 
ATOM      8  H2  UNL     1       3.924  -3.973  52.911  1.00  0.00     0.182 HD
BRANCH   7   9
HETATM    9  N3  UNL     1       5.699  -4.844  52.410  1.00  0.00    -0.136 NA
BRANCH   9  10
HETATM   10  C8  UNL     1       5.852  -5.792  53.488  1.00  0.00     0.173 C 
BRANCH  10  11
HETATM   11  C9  UNL     1       7.119  -6.523  53.501  1.00  0.00    -0.040 A 
HETATM   12  C10 UNL     1       7.975  -6.237  54.560  1.00  0.00     0.008 A 
HETATM   13  C11 UNL     1       9.203  -6.837  54.730  1.00  0.00     0.003 A 
HETATM   14  C12 UNL     1       9.590  -7.780  53.778  1.00  0.00     0.036 A 
HETATM   15  C13 UNL     1       8.766  -8.087  52.716  1.00  0.00     0.103 A 
HETATM   16  C14 UNL     1       7.533  -7.444  52.597  1.00  0.00     0.044 A 
BRANCH  15  17
HETATM   17  N4  UNL     1       9.164  -9.048  51.748  1.00  0.00    -0.116 N 
HETATM   18  O4  UNL     1       8.295  -9.626  51.076  1.00  0.00    -0.532 OA
HETATM   19  O5  UNL     1      10.495  -9.324  51.566  1.00  0.00    -0.532 OA
ENDBRANCH  15  17
ENDBRANCH  10  11
ENDBRANCH   9  10
ENDBRANCH   7   9
ENDBRANCH   5   7
BRANCH   4  20
HETATM   20  O3  UNL     1       2.259  -6.146  52.369  1.00  0.00    -0.356 OA
ATOM     21  H3  UNL     1       1.668  -6.880  52.492  1.00  0.00     0.218 HD
ENDBRANCH   4  20
BRANCH   6  22
HETATM   22  N5  UNL     1       5.057  -3.375  49.611  1.00  0.00    -0.112 N 
HETATM   23  O6  UNL     1       5.026  -2.266  50.175  1.00  0.00    -0.532 OA
HETATM   24  O7  UNL     1       6.138  -3.715  48.865  1.00  0.00    -0.532 OA
ENDBRANCH   6  22
BRANCH   3  25
HETATM   25  O2  UNL     1       0.677  -6.707  50.064  1.00  0.00    -0.358 OA
ATOM     26  H2  UNL     1       0.440  -7.138  49.251  1.00  0.00     0.217 HD
ENDBRANCH   3  25
BRANCH   1  27
HETATM   27  C2  UNL     1       3.510  -3.885  47.341  1.00  0.00     0.199 C 
BRANCH  27  28
HETATM   28  N1  UNL     1       3.857  -4.493  46.396  1.00  0.00    -0.389 NA
BRANCH  28  29
HETATM   29  C1  UNL     1       4.238  -5.222  45.388  1.00  0.00     0.267 C 
BRANCH  29  30
HETATM   30  O1  UNL     1       5.364  -5.875  45.439  1.00  0.00    -0.332 OA
ATOM     31  H1  UNL     1       5.382  -6.774  45.745  1.00  0.00     0.220 HD
ENDBRANCH  29  30
BRANCH  29  32
HETATM   32  C16 UNL     1       3.470  -5.382  44.124  1.00  0.00     0.227 C 
HETATM   33  N6  UNL     1       2.213  -5.553  44.118  1.00  0.00    -0.243 N 
ATOM     34  H6  UNL     1       1.715  -5.659  43.234  1.00  0.00     0.196 HD
BRANCH  32  35
HETATM   35  O8  UNL     1       4.146  -5.343  42.915  1.00  0.00    -0.341 OA
ATOM     36  H8  UNL     1       4.657  -4.573  42.696  1.00  0.00     0.219 HD
ENDBRANCH  32  35
BRANCH  33  37
HETATM   37  O9  UNL     1       1.528  -5.596  45.301  1.00  0.00    -0.288 OA
ATOM     38  H9  UNL     1       1.993  -5.780  46.109  1.00  0.00     0.244 HD
ENDBRANCH  33  37
ENDBRANCH  29  32
ENDBRANCH  28  29
ENDBRANCH  27  28
ENDBRANCH   1  27
TORSDOF 15
ENDMDL
MODEL 5
REMARK VINA RESULT: -8.368519644      1.649      1.907
REMARK  15 active torsions:
REMARK  status: ('A' for Active; 'I' for Inactive)
REMARK    1  A    between atoms: O1_1  and  C1_3 
REMARK    2  A    between atoms: C1_3  and  N1_4 
REMARK    3  A    between atoms: C1_3  and  C16_32 
REMARK    4  A    between atoms: N1_4  and  C2_5 
REMARK    5  A    between atoms: C2_5  and  C3_6 
REMARK    6  A    between atoms: C5_8  and  O2_9 
REMARK    7  A    between atoms: C6_11  and  O3_12 
REMARK    8  A    between atoms: C7_14  and  N2_15 
REMARK    9  A    between atoms: N2_15  and  N3_17 
REMARK   10  A    between atoms: N3_17  and  C8_18 
REMARK   11  A    between atoms: C8_18  and  C9_19 
REMARK   12  A    between atoms: C13_23  and  N4_24 
REMARK   13  A    between atoms: C15_28  and  N5_29 
REMARK   14  A    between atoms: C16_32  and  O8_33 
REMARK   15  A    between atoms: N6_35  and  O9_37 
ROOT
HETATM    1  C3  UNL     1       4.030  -4.159  48.825  1.00  0.00     0.031 A 
HETATM    2  C4  UNL     1       2.872  -4.828  48.531  1.00  0.00     0.056 A 
HETATM    3  C5  UNL     1       2.210  -5.530  49.550  1.00  0.00     0.102 A 
HETATM    4  C6  UNL     1       2.699  -5.555  50.820  1.00  0.00     0.129 A 
HETATM    5  C7  UNL     1       3.873  -4.880  51.133  1.00  0.00     0.114 A 
HETATM    6  C15 UNL     1       4.507  -4.203  50.139  1.00  0.00     0.146 A 
ENDROOT
BRANCH   5   7
HETATM    7  N2  UNL     1       4.348  -4.915  52.465  1.00  0.00    -0.299 N 
ATOM      8  H2  UNL     1       4.308  -4.038  52.983  1.00  0.00     0.182 HD
BRANCH   7   9
HETATM    9  N3  UNL     1       4.858  -5.996  53.137  1.00  0.00    -0.136 NA
BRANCH   9  10
HETATM   10  C8  UNL     1       5.851  -5.648  54.126  1.00  0.00     0.173 C 
BRANCH  10  11
HETATM   11  C9  UNL     1       7.169  -6.251  53.927  1.00  0.00    -0.040 A 
HETATM   12  C10 UNL     1       7.266  -7.169  52.886  1.00  0.00     0.008 A 
HETATM   13  C11 UNL     1       8.431  -7.825  52.555  1.00  0.00     0.003 A 
HETATM   14  C12 UNL     1       9.562  -7.539  53.318  1.00  0.00     0.036 A 
HETATM   15  C13 UNL     1       9.502  -6.634  54.357  1.00  0.00     0.103 A 
HETATM   16  C14 UNL     1       8.292  -6.002  54.644  1.00  0.00     0.044 A 
BRANCH  15  17
HETATM   17  N4  UNL     1      10.657  -6.346  55.131  1.00  0.00    -0.116 N 
HETATM   18  O4  UNL     1      11.608  -5.751  54.600  1.00  0.00    -0.532 OA
HETATM   19  O5  UNL     1      10.709  -6.723  56.448  1.00  0.00    -0.532 OA
ENDBRANCH  15  17
ENDBRANCH  10  11
ENDBRANCH   9  10
ENDBRANCH   7   9
ENDBRANCH   5   7
BRANCH   4  20
HETATM   20  O3  UNL     1       2.066  -6.244  51.855  1.00  0.00    -0.356 OA
ATOM     21  H3  UNL     1       1.164  -6.539  51.795  1.00  0.00     0.218 HD
ENDBRANCH   4  20
BRANCH   6  22
HETATM   22  N5  UNL     1       5.739  -3.512  50.384  1.00  0.00    -0.112 N 
HETATM   23  O6  UNL     1       5.771  -2.754  51.371  1.00  0.00    -0.532 OA
HETATM   24  O7  UNL     1       6.841  -3.642  49.605  1.00  0.00    -0.532 OA
ENDBRANCH   6  22
BRANCH   3  25
HETATM   25  O2  UNL     1       1.054  -6.182  49.189  1.00  0.00    -0.358 OA
ATOM     26  H2  UNL     1       0.937  -7.055  49.542  1.00  0.00     0.217 HD
ENDBRANCH   3  25
BRANCH   1  27
HETATM   27  C2  UNL     1       4.758  -3.411  47.771  1.00  0.00     0.199 C 
BRANCH  27  28
HETATM   28  N1  UNL     1       4.579  -3.539  46.615  1.00  0.00    -0.389 NA
BRANCH  28  29
HETATM   29  C1  UNL     1       4.442  -3.651  45.326  1.00  0.00     0.267 C 
BRANCH  29  30
HETATM   30  O1  UNL     1       4.577  -2.607  44.559  1.00  0.00    -0.332 OA
ATOM     31  H1  UNL     1       5.443  -2.304  44.311  1.00  0.00     0.220 HD
ENDBRANCH  29  30
BRANCH  29  32
HETATM   32  C16 UNL     1       4.126  -4.921  44.618  1.00  0.00     0.227 C 
HETATM   33  N6  UNL     1       2.983  -5.466  44.691  1.00  0.00    -0.243 N 
ATOM     34  H6  UNL     1       2.798  -6.336  44.193  1.00  0.00     0.196 HD
BRANCH  32  35
HETATM   35  O8  UNL     1       5.109  -5.529  43.855  1.00  0.00    -0.341 OA
ATOM     36  H8  UNL     1       5.459  -5.070  43.101  1.00  0.00     0.219 HD
ENDBRANCH  32  35
BRANCH  33  37
HETATM   37  O9  UNL     1       1.999  -4.881  45.441  1.00  0.00    -0.288 OA
ATOM     38  H9  UNL     1       1.201  -5.361  45.628  1.00  0.00     0.244 HD
ENDBRANCH  33  37
ENDBRANCH  29  32
ENDBRANCH  28  29
ENDBRANCH  27  28
ENDBRANCH   1  27
TORSDOF 15
ENDMDL
