MODEL 1
REMARK VINA RESULT: -8.475801263      0.000      0.000
REMARK  12 active torsions:
REMARK  status: ('A' for Active; 'I' for Inactive)
REMARK    1  A    between atoms: O1_1  and  C1_3 
REMARK    2  A    between atoms: C1_3  and  C2_4 
REMARK    3  A    between atoms: C2_4  and  C3_5 
REMARK    4  A    between atoms: C3_5  and  N1_6 
REMARK    5  A    between atoms: C6_9  and  C7_10 
REMARK    6  A    between atoms: C7_10  and  O2_11 
REMARK    7  A    between atoms: O2_11  and  C8_12 
REMARK    8  A    between atoms: C8_12  and  C9_13 
REMARK    9  A    between atoms: C9_13  and  N2_14 
REMARK   10  A    between atoms: C11_16  and  O3_17 
REMARK   11  A    between atoms: C12_19  and  O4_20 
REMARK   12  A    between atoms: C13_22  and  O5_23 
ROOT
HETATM    1  C8  UNL     1      -7.155  -7.155 -10.174  1.00  0.00     0.198 C 
ENDROOT
BRANCH   1   2
HETATM    2  O2  UNL     1      -5.776  -7.184 -10.160  1.00  0.00    -0.389 OA
BRANCH   2   3
HETATM    3  C7  UNL     1      -5.161  -6.345  -9.283  1.00  0.00     0.172 C 
BRANCH   3   4
HETATM    4  C6  UNL     1      -4.631  -7.012  -8.023  1.00  0.00     0.012 C 
HETATM    5  C5  UNL     1      -3.245  -6.594  -7.699  1.00  0.00     0.026 C 
HETATM    6  C4  UNL     1      -2.889  -7.074  -6.283  1.00  0.00     0.122 C 
HETATM    7  N1  UNL     1      -3.728  -6.551  -5.307  1.00  0.00    -0.393 N 
HETATM    8  C16 UNL     1      -4.920  -5.913  -5.769  1.00  0.00     0.122 C 
HETATM    9  C15 UNL     1      -5.566  -6.695  -6.904  1.00  0.00     0.026 C 
BRANCH   7  10
HETATM   10  C3  UNL     1      -3.168  -5.880  -4.212  1.00  0.00     0.060 C 
BRANCH  10  11
HETATM   11  C2  UNL     1      -3.402  -4.431  -4.029  1.00  0.00     0.070 C 
BRANCH  11  12
HETATM   12  C1  UNL     1      -2.382  -3.461  -4.465  1.00  0.00     0.169 C 
BRANCH  12  13
HETATM   13  O1  UNL     1      -2.654  -2.888  -5.715  1.00  0.00    -0.401 OA
ATOM     14  H1  UNL     1      -2.807  -1.951  -5.677  1.00  0.00     0.209 HD
ENDBRANCH  12  13
ENDBRANCH  11  12
ENDBRANCH  10  11
ENDBRANCH   7  10
ENDBRANCH   3   4
ENDBRANCH   2   3
ENDBRANCH   1   2
BRANCH   1  15
HETATM   15  C9  UNL     1      -7.759  -8.476 -10.592  1.00  0.00     0.298 C 
BRANCH  15  16
HETATM   16  N2  UNL     1      -8.801  -8.947  -9.710  1.00  0.00     0.095 N 
HETATM   17  C10 UNL     1     -10.070  -8.907 -10.435  1.00  0.00     0.306 C 
HETATM   18  C11 UNL     1     -11.196  -9.398  -9.542  1.00  0.00     0.177 C 
HETATM   19  C12 UNL     1     -11.306  -8.442  -8.369  1.00  0.00     0.179 C 
HETATM   20  C13 UNL     1     -10.013  -8.364  -7.633  1.00  0.00     0.177 C 
HETATM   21  C14 UNL     1      -8.885  -8.055  -8.568  1.00  0.00     0.306 C 
BRANCH  18  22
HETATM   22  O3  UNL     1     -11.004 -10.696  -9.131  1.00  0.00    -0.391 OA
ATOM     23  H3  UNL     1     -11.030 -10.779  -8.185  1.00  0.00     0.210 HD
ENDBRANCH  18  22
BRANCH  19  24
HETATM   24  O4  UNL     1     -12.329  -8.929  -7.542  1.00  0.00    -0.390 OA
ATOM     25  H4  UNL     1     -13.148  -8.771  -7.996  1.00  0.00     0.210 HD
ENDBRANCH  19  24
BRANCH  20  26
HETATM   26  O5  UNL     1     -10.104  -7.270  -6.747  1.00  0.00    -0.391 OA
ATOM     27  H5  UNL     1      -9.219  -6.960  -6.592  1.00  0.00     0.210 HD
ENDBRANCH  20  26
ENDBRANCH  15  16
ENDBRANCH   1  15
TORSDOF 12
ENDMDL
MODEL 2
REMARK VINA RESULT: -8.360551700      0.748      1.646
REMARK  12 active torsions:
REMARK  status: ('A' for Active; 'I' for Inactive)
REMARK    1  A    between atoms: O1_1  and  C1_3 
REMARK    2  A    between atoms: C1_3  and  C2_4 
REMARK    3  A    between atoms: C2_4  and  C3_5 
REMARK    4  A    between atoms: C3_5  and  N1_6 
REMARK    5  A    between atoms: C6_9  and  C7_10 
REMARK    6  A    between atoms: C7_10  and  O2_11 
REMARK    7  A    between atoms: O2_11  and  C8_12 
REMARK    8  A    between atoms: C8_12  and  C9_13 
REMARK    9  A    between atoms: C9_13  and  N2_14 
REMARK   10  A    between atoms: C11_16  and  O3_17 
REMARK   11  A    between atoms: C12_19  and  O4_20 
REMARK   12  A    between atoms: C13_22  and  O5_23 
ROOT
HETATM    1  C8  UNL     1      -6.706  -7.926 -10.117  1.00  0.00     0.198 C 
ENDROOT
BRANCH   1   2
HETATM    2  O2  UNL     1      -6.507  -6.647  -9.641  1.00  0.00    -0.389 OA
BRANCH   2   3
HETATM    3  C7  UNL     1      -5.230  -6.318  -9.305  1.00  0.00     0.172 C 
BRANCH   3   4
HETATM    4  C6  UNL     1      -4.706  -6.992  -8.047  1.00  0.00     0.012 C 
HETATM    5  C5  UNL     1      -3.312  -6.594  -7.727  1.00  0.00     0.026 C 
HETATM    6  C4  UNL     1      -2.960  -7.080  -6.312  1.00  0.00     0.122 C 
HETATM    7  N1  UNL     1      -3.788  -6.544  -5.334  1.00  0.00    -0.393 N 
HETATM    8  C16 UNL     1      -4.971  -5.889  -5.792  1.00  0.00     0.122 C 
HETATM    9  C15 UNL     1      -5.632  -6.661  -6.924  1.00  0.00     0.026 C 
BRANCH   7  10
HETATM   10  C3  UNL     1      -3.213  -5.881  -4.240  1.00  0.00     0.060 C 
BRANCH  10  11
HETATM   11  C2  UNL     1      -3.418  -4.426  -4.062  1.00  0.00     0.070 C 
BRANCH  11  12
HETATM   12  C1  UNL     1      -2.381  -3.479  -4.508  1.00  0.00     0.169 C 
BRANCH  12  13
HETATM   13  O1  UNL     1      -2.649  -2.906  -5.759  1.00  0.00    -0.401 OA
ATOM     14  H1  UNL     1      -3.146  -3.473  -6.337  1.00  0.00     0.209 HD
ENDBRANCH  12  13
ENDBRANCH  11  12
ENDBRANCH  10  11
ENDBRANCH   7  10
ENDBRANCH   3   4
ENDBRANCH   2   3
ENDBRANCH   1   2
BRANCH   1  15
HETATM   15  C9  UNL     1      -8.095  -8.127 -10.677  1.00  0.00     0.298 C 
BRANCH  15  16
HETATM   16  N2  UNL     1      -9.148  -7.950  -9.706  1.00  0.00     0.095 N 
HETATM   17  C10 UNL     1      -8.870  -8.817  -8.562  1.00  0.00     0.306 C 
HETATM   18  C11 UNL     1      -9.956  -8.661  -7.512  1.00  0.00     0.177 C 
HETATM   19  C12 UNL     1     -11.265  -9.118  -8.129  1.00  0.00     0.179 C 
HETATM   20  C13 UNL     1     -11.569  -8.331  -9.357  1.00  0.00     0.177 C 
HETATM   21  C14 UNL     1     -10.409  -8.352 -10.304  1.00  0.00     0.306 C 
BRANCH  18  22
HETATM   22  O3  UNL     1     -10.034  -7.374  -7.035  1.00  0.00    -0.391 OA
ATOM     23  H3  UNL     1     -10.910  -7.154  -6.741  1.00  0.00     0.210 HD
ENDBRANCH  18  22
BRANCH  19  24
HETATM   24  O4  UNL     1     -12.258  -8.936  -7.155  1.00  0.00    -0.390 OA
ATOM     25  H4  UNL     1     -12.445  -9.793  -6.789  1.00  0.00     0.210 HD
ENDBRANCH  19  24
BRANCH  20  26
HETATM   26  O5  UNL     1     -12.630  -8.985 -10.017  1.00  0.00    -0.391 OA
ATOM     27  H5  UNL     1     -13.414  -8.470  -9.866  1.00  0.00     0.210 HD
ENDBRANCH  20  26
ENDBRANCH  15  16
ENDBRANCH   1  15
TORSDOF 12
ENDMDL
MODEL 3
REMARK VINA RESULT: -8.280051375      0.940      1.025
REMARK  12 active torsions:
REMARK  status: ('A' for Active; 'I' for Inactive)
REMARK    1  A    between atoms: O1_1  and  C1_3 
REMARK    2  A    between atoms: C1_3  and  C2_4 
REMARK    3  A    between atoms: C2_4  and  C3_5 
REMARK    4  A    between atoms: C3_5  and  N1_6 
REMARK    5  A    between atoms: C6_9  and  C7_10 
REMARK    6  A    between atoms: C7_10  and  O2_11 
REMARK    7  A    between atoms: O2_11  and  C8_12 
REMARK    8  A    between atoms: C8_12  and  C9_13 
REMARK    9  A    between atoms: C9_13  and  N2_14 
REMARK   10  A    between atoms: C11_16  and  O3_17 
REMARK   11  A    between atoms: C12_19  and  O4_20 
REMARK   12  A    between atoms: C13_22  and  O5_23 
ROOT
HETATM    1  C8  UNL     1      -7.173  -7.176 -10.112  1.00  0.00     0.198 C 
ENDROOT
BRANCH   1   2
HETATM    2  O2  UNL     1      -5.794  -7.165 -10.109  1.00  0.00    -0.389 OA
BRANCH   2   3
HETATM    3  C7  UNL     1      -5.196  -6.346  -9.202  1.00  0.00     0.172 C 
BRANCH   3   4
HETATM    4  C6  UNL     1      -4.717  -7.036  -7.935  1.00  0.00     0.012 C 
HETATM    5  C5  UNL     1      -3.279  -6.792  -7.664  1.00  0.00     0.026 C 
HETATM    6  C4  UNL     1      -2.944  -7.270  -6.242  1.00  0.00     0.122 C 
HETATM    7  N1  UNL     1      -3.676  -6.610  -5.263  1.00  0.00    -0.393 N 
HETATM    8  C16 UNL     1      -4.789  -5.837  -5.714  1.00  0.00     0.122 C 
HETATM    9  C15 UNL     1      -5.567  -6.564  -6.802  1.00  0.00     0.026 C 
BRANCH   7  10
HETATM   10  C3  UNL     1      -2.999  -5.984  -4.207  1.00  0.00     0.060 C 
BRANCH  10  11
HETATM   11  C2  UNL     1      -1.548  -6.208  -4.019  1.00  0.00     0.070 C 
BRANCH  11  12
HETATM   12  C1  UNL     1      -0.588  -5.150  -4.382  1.00  0.00     0.169 C 
BRANCH  12  13
HETATM   13  O1  UNL     1      -0.211  -5.177  -5.731  1.00  0.00    -0.401 OA
ATOM     14  H1  UNL     1      -0.784  -4.671  -6.295  1.00  0.00     0.209 HD
ENDBRANCH  12  13
ENDBRANCH  11  12
ENDBRANCH  10  11
ENDBRANCH   7  10
ENDBRANCH   3   4
ENDBRANCH   2   3
ENDBRANCH   1   2
BRANCH   1  15
HETATM   15  C9  UNL     1      -7.742  -8.522 -10.497  1.00  0.00     0.298 C 
BRANCH  15  16
HETATM   16  N2  UNL     1      -8.792  -8.984  -9.621  1.00  0.00     0.095 N 
HETATM   17  C10 UNL     1     -10.053  -8.959 -10.361  1.00  0.00     0.306 C 
HETATM   18  C11 UNL     1     -11.189  -9.440  -9.474  1.00  0.00     0.177 C 
HETATM   19  C12 UNL     1     -11.314  -8.468  -8.315  1.00  0.00     0.179 C 
HETATM   20  C13 UNL     1     -10.030  -8.377  -7.566  1.00  0.00     0.177 C 
HETATM   21  C14 UNL     1      -8.892  -8.077  -8.492  1.00  0.00     0.306 C 
BRANCH  18  22
HETATM   22  O3  UNL     1     -10.997 -10.732  -9.042  1.00  0.00    -0.391 OA
ATOM     23  H3  UNL     1     -11.524 -11.354  -9.530  1.00  0.00     0.210 HD
ENDBRANCH  18  22
BRANCH  19  24
HETATM   24  O4  UNL     1     -12.345  -8.947  -7.493  1.00  0.00    -0.390 OA
ATOM     25  H4  UNL     1     -11.940  -9.238  -6.684  1.00  0.00     0.210 HD
ENDBRANCH  19  24
BRANCH  20  26
HETATM   26  O5  UNL     1     -10.135  -7.270  -6.696  1.00  0.00    -0.391 OA
ATOM     27  H5  UNL     1      -9.481  -6.637  -6.968  1.00  0.00     0.210 HD
ENDBRANCH  20  26
ENDBRANCH  15  16
ENDBRANCH   1  15
TORSDOF 12
ENDMDL
MODEL 4
REMARK VINA RESULT: -8.110619614      1.582      8.647
REMARK  12 active torsions:
REMARK  status: ('A' for Active; 'I' for Inactive)
REMARK    1  A    between atoms: O1_1  and  C1_3 
REMARK    2  A    between atoms: C1_3  and  C2_4 
REMARK    3  A    between atoms: C2_4  and  C3_5 
REMARK    4  A    between atoms: C3_5  and  N1_6 
REMARK    5  A    between atoms: C6_9  and  C7_10 
REMARK    6  A    between atoms: C7_10  and  O2_11 
REMARK    7  A    between atoms: O2_11  and  C8_12 
REMARK    8  A    between atoms: C8_12  and  C9_13 
REMARK    9  A    between atoms: C9_13  and  N2_14 
REMARK   10  A    between atoms: C11_16  and  O3_17 
REMARK   11  A    between atoms: C12_19  and  O4_20 
REMARK   12  A    between atoms: C13_22  and  O5_23 
ROOT
HETATM    1  C8  UNL     1      -5.452  -6.616  -6.476  1.00  0.00     0.198 C 
ENDROOT
BRANCH   1   2
HETATM    2  O2  UNL     1      -6.315  -6.303  -7.506  1.00  0.00    -0.389 OA
BRANCH   2   3
HETATM    3  C7  UNL     1      -6.079  -6.911  -8.700  1.00  0.00     0.172 C 
BRANCH   3   4
HETATM    4  C6  UNL     1      -6.984  -8.094  -9.006  1.00  0.00     0.012 C 
HETATM    5  C5  UNL     1      -8.299  -7.995  -8.326  1.00  0.00     0.026 C 
HETATM    6  C4  UNL     1      -9.248  -9.058  -8.902  1.00  0.00     0.122 C 
HETATM    7  N1  UNL     1      -9.463  -8.909 -10.266  1.00  0.00    -0.393 N 
HETATM    8  C16 UNL     1      -8.585  -8.018 -10.955  1.00  0.00     0.122 C 
HETATM    9  C15 UNL     1      -7.147  -8.182 -10.487  1.00  0.00     0.026 C 
BRANCH   7  10
HETATM   10  C3  UNL     1     -10.778  -8.821 -10.745  1.00  0.00     0.060 C 
BRANCH  10  11
HETATM   11  C2  UNL     1     -11.892  -9.413  -9.971  1.00  0.00     0.070 C 
BRANCH  11  12
HETATM   12  C1  UNL     1     -12.678  -8.570  -9.053  1.00  0.00     0.169 C 
BRANCH  12  13
HETATM   13  O1  UNL     1     -12.524  -8.917  -7.704  1.00  0.00    -0.401 OA
ATOM     14  H1  UNL     1     -11.949  -9.662  -7.568  1.00  0.00     0.209 HD
ENDBRANCH  12  13
ENDBRANCH  11  12
ENDBRANCH  10  11
ENDBRANCH   7  10
ENDBRANCH   3   4
ENDBRANCH   2   3
ENDBRANCH   1   2
BRANCH   1  15
HETATM   15  C9  UNL     1      -4.059  -6.938  -6.965  1.00  0.00     0.298 C 
BRANCH  15  16
HETATM   16  N2  UNL     1      -3.056  -5.993  -6.536  1.00  0.00     0.095 N 
HETATM   17  C10 UNL     1      -2.075  -6.702  -5.716  1.00  0.00     0.306 C 
HETATM   18  C11 UNL     1      -0.997  -5.742  -5.243  1.00  0.00     0.177 C 
HETATM   19  C12 UNL     1      -1.662  -4.696  -4.366  1.00  0.00     0.179 C 
HETATM   20  C13 UNL     1      -2.739  -3.991  -5.115  1.00  0.00     0.177 C 
HETATM   21  C14 UNL     1      -3.693  -4.970  -5.726  1.00  0.00     0.306 C 
BRANCH  18  22
HETATM   22  O3  UNL     1      -0.314  -5.173  -6.292  1.00  0.00    -0.391 OA
ATOM     23  H3  UNL     1       0.626  -5.179  -6.153  1.00  0.00     0.210 HD
ENDBRANCH  18  22
BRANCH  19  24
HETATM   24  O4  UNL     1      -0.657  -3.803  -3.967  1.00  0.00    -0.390 OA
ATOM     25  H4  UNL     1       0.066  -3.911  -4.574  1.00  0.00     0.210 HD
ENDBRANCH  19  24
BRANCH  20  26
HETATM   26  O5  UNL     1      -3.482  -3.248  -4.174  1.00  0.00    -0.391 OA
ATOM     27  H5  UNL     1      -3.311  -2.329  -4.343  1.00  0.00     0.210 HD
ENDBRANCH  20  26
ENDBRANCH  15  16
ENDBRANCH   1  15
TORSDOF 12
ENDMDL
MODEL 5
REMARK VINA RESULT: -7.938785604      1.209      1.603
REMARK  12 active torsions:
REMARK  status: ('A' for Active; 'I' for Inactive)
REMARK    1  A    between atoms: O1_1  and  C1_3 
REMARK    2  A    between atoms: C1_3  and  C2_4 
REMARK    3  A    between atoms: C2_4  and  C3_5 
REMARK    4  A    between atoms: C3_5  and  N1_6 
REMARK    5  A    between atoms: C6_9  and  C7_10 
REMARK    6  A    between atoms: C7_10  and  O2_11 
REMARK    7  A    between atoms: O2_11  and  C8_12 
REMARK    8  A    between atoms: C8_12  and  C9_13 
REMARK    9  A    between atoms: C9_13  and  N2_14 
REMARK   10  A    between atoms: C11_16  and  O3_17 
REMARK   11  A    between atoms: C12_19  and  O4_20 
REMARK   12  A    between atoms: C13_22  and  O5_23 
ROOT
HETATM    1  C8  UNL     1      -6.835  -7.956 -10.358  1.00  0.00     0.198 C 
ENDROOT
BRANCH   1   2
HETATM    2  O2  UNL     1      -6.370  -6.750  -9.877  1.00  0.00    -0.389 OA
BRANCH   2   3
HETATM    3  C7  UNL     1      -5.056  -6.701  -9.530  1.00  0.00     0.172 C 
BRANCH   3   4
HETATM    4  C6  UNL     1      -4.767  -5.999  -8.213  1.00  0.00     0.012 C 
HETATM    5  C5  UNL     1      -5.306  -6.737  -7.044  1.00  0.00     0.026 C 
HETATM    6  C4  UNL     1      -4.734  -6.129  -5.754  1.00  0.00     0.122 C 
HETATM    7  N1  UNL     1      -3.347  -6.194  -5.693  1.00  0.00    -0.393 N 
HETATM    8  C16 UNL     1      -2.673  -6.528  -6.906  1.00  0.00     0.122 C 
HETATM    9  C15 UNL     1      -3.290  -5.815  -8.101  1.00  0.00     0.026 C 
BRANCH   7  10
HETATM   10  C3  UNL     1      -2.739  -6.785  -4.577  1.00  0.00     0.060 C 
BRANCH  10  11
HETATM   11  C2  UNL     1      -1.268  -6.736  -4.420  1.00  0.00     0.070 C 
BRANCH  11  12
HETATM   12  C1  UNL     1      -0.592  -5.440  -4.237  1.00  0.00     0.169 C 
BRANCH  12  13
HETATM   13  O1  UNL     1       0.057  -4.981  -5.391  1.00  0.00    -0.401 OA
ATOM     14  H1  UNL     1      -0.513  -4.929  -6.151  1.00  0.00     0.209 HD
ENDBRANCH  12  13
ENDBRANCH  11  12
ENDBRANCH  10  11
ENDBRANCH   7  10
ENDBRANCH   3   4
ENDBRANCH   2   3
ENDBRANCH   1   2
BRANCH   1  15
HETATM   15  C9  UNL     1      -8.281  -7.891 -10.790  1.00  0.00     0.298 C 
BRANCH  15  16
HETATM   16  N2  UNL     1      -9.185  -8.601  -9.917  1.00  0.00     0.095 N 
HETATM   17  C10 UNL     1     -10.545  -8.436 -10.427  1.00  0.00     0.306 C 
HETATM   18  C11 UNL     1     -11.530  -9.171  -9.536  1.00  0.00     0.177 C 
HETATM   19  C12 UNL     1     -11.474  -8.534  -8.160  1.00  0.00     0.179 C 
HETATM   20  C13 UNL     1     -10.089  -8.588  -7.613  1.00  0.00     0.177 C 
HETATM   21  C14 UNL     1      -9.107  -8.018  -8.589  1.00  0.00     0.306 C 
BRANCH  18  22
HETATM   22  O3  UNL     1     -11.277 -10.522  -9.488  1.00  0.00    -0.391 OA
ATOM     23  H3  UNL     1     -11.498 -10.897  -8.643  1.00  0.00     0.210 HD
ENDBRANCH  18  22
BRANCH  19  24
HETATM   24  O4  UNL     1     -12.367  -9.247  -7.345  1.00  0.00    -0.390 OA
ATOM     25  H4  UNL     1     -11.976 -10.098  -7.188  1.00  0.00     0.210 HD
ENDBRANCH  19  24
BRANCH  20  26
HETATM   26  O5  UNL     1     -10.056  -7.747  -6.481  1.00  0.00    -0.391 OA
ATOM     27  H5  UNL     1      -9.620  -6.944  -6.742  1.00  0.00     0.210 HD
ENDBRANCH  20  26
ENDBRANCH  15  16
ENDBRANCH   1  15
TORSDOF 12
ENDMDL
