MODEL 1
REMARK VINA RESULT: -8.374294130      0.000      0.000
REMARK  11 active torsions:
REMARK  status: ('A' for Active; 'I' for Inactive)
REMARK    1  A    between atoms: O1_1  and  C1_3 
REMARK    2  A    between atoms: N1_5  and  C3_6 
REMARK    3  A    between atoms: C3_6  and  C4_7 
REMARK    4  A    between atoms: C4_7  and  C5_8 
REMARK    5  A    between atoms: C5_8  and  O2_9 
REMARK    6  A    between atoms: O2_9  and  C6_10 
REMARK    7  A    between atoms: C6_10  and  C7_11 
REMARK    8  A    between atoms: C8_12  and  C9_13 
REMARK    9  A    between atoms: C9_13  and  C10_14 
REMARK   10  A    between atoms: C12_16  and  O3_17 
REMARK   11  A    between atoms: C13_19  and  O4_20 
ROOT
HETATM    1  O2  UNL     1      -7.004  -6.621  -9.567  1.00  0.00    -0.387 OA
ENDROOT
BRANCH   1   2
HETATM    2  C5  UNL     1      -6.948  -7.732 -10.330  1.00  0.00     0.169 C 
BRANCH   2   3
HETATM    3  C4  UNL     1      -7.829  -8.838  -9.821  1.00  0.00     0.056 C 
BRANCH   3   4
HETATM    4  C3  UNL     1      -9.209  -8.586 -10.387  1.00  0.00     0.274 C 
BRANCH   4   5
HETATM    5  N1  UNL     1     -10.060  -8.039  -9.377  1.00  0.00     0.094 N 
HETATM    6  C2  UNL     1      -9.636  -8.499  -8.042  1.00  0.00     0.333 C 
HETATM    7  C1  UNL     1     -10.492  -9.635  -7.559  1.00  0.00     0.347 C 
HETATM    8  N2  UNL     1     -10.893 -10.535  -8.595  1.00  0.00    -0.046 N 
HETATM    9  C16 UNL     1     -11.587  -9.887  -9.693  1.00  0.00     0.265 C 
ATOM     10  H22 UNL     1     -10.095 -11.067  -8.939  1.00  0.00     0.280 HD
ATOM     11  H21 UNL     1     -11.454 -11.296  -8.213  1.00  0.00     0.280 HD
HETATM   12  C15 UNL     1     -11.428  -8.373  -9.604  1.00  0.00     0.300 C 
BRANCH   7  13
HETATM   13  O1  UNL     1      -9.785 -10.338  -6.606  1.00  0.00    -0.368 OA
ATOM     14  H1  UNL     1     -10.385 -10.925  -6.160  1.00  0.00     0.212 HD
ENDBRANCH   7  13
ENDBRANCH   4   5
ENDBRANCH   3   4
ENDBRANCH   2   3
ENDBRANCH   1   2
BRANCH   1  15
HETATM   15  C6  UNL     1      -6.074  -6.646  -8.538  1.00  0.00     0.194 C 
BRANCH  15  16
HETATM   16  C7  UNL     1      -4.707  -6.719  -9.107  1.00  0.00    -0.005 C 
HETATM   17  C8  UNL     1      -3.589  -6.898  -8.461  1.00  0.00    -0.026 C 
BRANCH  17  18
HETATM   18  C9  UNL     1      -3.499  -7.063  -7.011  1.00  0.00     0.059 C 
BRANCH  18  19
HETATM   19  C10 UNL     1      -2.420  -6.203  -6.383  1.00  0.00     0.127 C 
HETATM   20  C11 UNL     1      -2.743  -4.760  -6.705  1.00  0.00     0.066 C 
HETATM   21  C12 UNL     1      -2.474  -3.957  -5.447  1.00  0.00     0.151 C 
HETATM   22  C13 UNL     1      -3.494  -4.422  -4.407  1.00  0.00     0.170 C 
HETATM   23  C14 UNL     1      -3.329  -5.921  -4.273  1.00  0.00     0.202 C 
HETATM   24  O5  UNL     1      -2.283  -6.401  -5.031  1.00  0.00    -0.383 OA
BRANCH  21  25
HETATM   25  O3  UNL     1      -2.599  -2.592  -5.687  1.00  0.00    -0.393 OA
ATOM     26  H3  UNL     1      -3.243  -2.422  -6.365  1.00  0.00     0.210 HD
ENDBRANCH  21  25
BRANCH  22  27
HETATM   27  O4  UNL     1      -3.240  -3.777  -3.207  1.00  0.00    -0.391 OA
ATOM     28  H4  UNL     1      -2.778  -4.371  -2.627  1.00  0.00     0.210 HD
ENDBRANCH  22  27
ENDBRANCH  18  19
ENDBRANCH  17  18
ENDBRANCH  15  16
ENDBRANCH   1  15
TORSDOF 11
ENDMDL
MODEL 2
REMARK VINA RESULT: -8.339627646      0.995      1.304
REMARK  11 active torsions:
REMARK  status: ('A' for Active; 'I' for Inactive)
REMARK    1  A    between atoms: O1_1  and  C1_3 
REMARK    2  A    between atoms: N1_5  and  C3_6 
REMARK    3  A    between atoms: C3_6  and  C4_7 
REMARK    4  A    between atoms: C4_7  and  C5_8 
REMARK    5  A    between atoms: C5_8  and  O2_9 
REMARK    6  A    between atoms: O2_9  and  C6_10 
REMARK    7  A    between atoms: C6_10  and  C7_11 
REMARK    8  A    between atoms: C8_12  and  C9_13 
REMARK    9  A    between atoms: C9_13  and  C10_14 
REMARK   10  A    between atoms: C12_16  and  O3_17 
REMARK   11  A    between atoms: C13_19  and  O4_20 
ROOT
HETATM    1  O2  UNL     1      -7.324  -6.651  -9.869  1.00  0.00    -0.387 OA
ENDROOT
BRANCH   1   2
HETATM    2  C5  UNL     1      -7.244  -7.873 -10.437  1.00  0.00     0.169 C 
BRANCH   2   3
HETATM    3  C4  UNL     1      -8.090  -8.900  -9.739  1.00  0.00     0.056 C 
BRANCH   3   4
HETATM    4  C3  UNL     1      -9.508  -8.693 -10.222  1.00  0.00     0.274 C 
BRANCH   4   5
HETATM    5  N1  UNL     1     -10.310  -8.151  -9.171  1.00  0.00     0.094 N 
HETATM    6  C2  UNL     1      -9.790  -8.573  -7.857  1.00  0.00     0.333 C 
HETATM    7  C1  UNL     1     -10.580  -9.723  -7.301  1.00  0.00     0.347 C 
HETATM    8  N2  UNL     1     -11.019 -10.653  -8.294  1.00  0.00    -0.046 N 
HETATM    9  C16 UNL     1     -11.799 -10.047  -9.358  1.00  0.00     0.265 C 
ATOM     10  H22 UNL     1     -10.228 -11.170  -8.678  1.00  0.00     0.280 HD
ATOM     11  H21 UNL     1     -11.533 -11.423  -7.864  1.00  0.00     0.280 HD
HETATM   12  C15 UNL     1     -11.679  -8.528  -9.305  1.00  0.00     0.300 C 
BRANCH   7  13
HETATM   13  O1  UNL     1      -9.796 -10.387  -6.383  1.00  0.00    -0.368 OA
ATOM     14  H1  UNL     1     -10.232 -10.358  -5.539  1.00  0.00     0.212 HD
ENDBRANCH   7  13
ENDBRANCH   4   5
ENDBRANCH   3   4
ENDBRANCH   2   3
ENDBRANCH   1   2
BRANCH   1  15
HETATM   15  C6  UNL     1      -6.759  -6.624  -8.603  1.00  0.00     0.194 C 
BRANCH  15  16
HETATM   16  C7  UNL     1      -5.280  -6.628  -8.721  1.00  0.00    -0.005 C 
HETATM   17  C8  UNL     1      -4.409  -6.625  -7.751  1.00  0.00    -0.026 C 
BRANCH  17  18
HETATM   18  C9  UNL     1      -4.763  -6.620  -6.332  1.00  0.00     0.059 C 
BRANCH  18  19
HETATM   19  C10 UNL     1      -3.553  -6.650  -5.420  1.00  0.00     0.127 C 
HETATM   20  C11 UNL     1      -2.337  -6.342  -6.268  1.00  0.00     0.066 C 
HETATM   21  C12 UNL     1      -1.460  -5.406  -5.457  1.00  0.00     0.151 C 
HETATM   22  C13 UNL     1      -2.242  -4.100  -5.306  1.00  0.00     0.170 C 
HETATM   23  C14 UNL     1      -3.573  -4.457  -4.679  1.00  0.00     0.202 C 
HETATM   24  O5  UNL     1      -3.654  -5.793  -4.351  1.00  0.00    -0.383 OA
BRANCH  21  25
HETATM   25  O3  UNL     1      -0.243  -5.183  -6.092  1.00  0.00    -0.393 OA
ATOM     26  H3  UNL     1       0.145  -4.363  -5.811  1.00  0.00     0.210 HD
ENDBRANCH  21  25
BRANCH  22  27
HETATM   27  O4  UNL     1      -1.520  -3.233  -4.501  1.00  0.00    -0.391 OA
ATOM     28  H4  UNL     1      -1.885  -2.359  -4.582  1.00  0.00     0.210 HD
ENDBRANCH  22  27
ENDBRANCH  18  19
ENDBRANCH  17  18
ENDBRANCH  15  16
ENDBRANCH   1  15
TORSDOF 11
ENDMDL
MODEL 3
REMARK VINA RESULT: -8.332870314      1.433      1.839
REMARK  11 active torsions:
REMARK  status: ('A' for Active; 'I' for Inactive)
REMARK    1  A    between atoms: O1_1  and  C1_3 
REMARK    2  A    between atoms: N1_5  and  C3_6 
REMARK    3  A    between atoms: C3_6  and  C4_7 
REMARK    4  A    between atoms: C4_7  and  C5_8 
REMARK    5  A    between atoms: C5_8  and  O2_9 
REMARK    6  A    between atoms: O2_9  and  C6_10 
REMARK    7  A    between atoms: C6_10  and  C7_11 
REMARK    8  A    between atoms: C8_12  and  C9_13 
REMARK    9  A    between atoms: C9_13  and  C10_14 
REMARK   10  A    between atoms: C12_16  and  O3_17 
REMARK   11  A    between atoms: C13_19  and  O4_20 
ROOT
HETATM    1  O2  UNL     1      -7.474  -8.546  -9.500  1.00  0.00    -0.387 OA
ENDROOT
BRANCH   1   2
HETATM    2  C5  UNL     1      -8.024  -9.047 -10.626  1.00  0.00     0.169 C 
BRANCH   2   3
HETATM    3  C4  UNL     1      -9.368  -8.450 -10.937  1.00  0.00     0.056 C 
BRANCH   3   4
HETATM    4  C3  UNL     1     -10.402  -9.462 -10.499  1.00  0.00     0.274 C 
BRANCH   4   5
HETATM    5  N1  UNL     1     -11.322  -8.859  -9.586  1.00  0.00     0.094 N 
HETATM    6  C2  UNL     1     -10.659  -7.789  -8.819  1.00  0.00     0.333 C 
HETATM    7  C1  UNL     1     -10.260  -8.265  -7.451  1.00  0.00     0.347 C 
HETATM    8  N2  UNL     1      -9.820  -9.625  -7.421  1.00  0.00    -0.046 N 
HETATM    9  C16 UNL     1     -10.790 -10.563  -7.956  1.00  0.00     0.265 C 
ATOM     10  H22 UNL     1      -8.924  -9.725  -7.895  1.00  0.00     0.280 HD
ATOM     11  H21 UNL     1      -9.544  -9.893  -6.476  1.00  0.00     0.280 HD
HETATM   12  C15 UNL     1     -11.893  -9.821  -8.702  1.00  0.00     0.300 C 
BRANCH   7  13
HETATM   13  O1  UNL     1      -9.244  -7.457  -6.988  1.00  0.00    -0.368 OA
ATOM     14  H1  UNL     1      -9.525  -7.058  -6.172  1.00  0.00     0.212 HD
ENDBRANCH   7  13
ENDBRANCH   4   5
ENDBRANCH   3   4
ENDBRANCH   2   3
ENDBRANCH   1   2
BRANCH   1  15
HETATM   15  C6  UNL     1      -7.206  -7.189  -9.608  1.00  0.00     0.194 C 
BRANCH  15  16
HETATM   16  C7  UNL     1      -5.766  -6.990  -9.899  1.00  0.00    -0.005 C 
HETATM   17  C8  UNL     1      -4.810  -6.759  -9.043  1.00  0.00    -0.026 C 
BRANCH  17  18
HETATM   18  C9  UNL     1      -5.011  -6.656  -7.599  1.00  0.00     0.059 C 
BRANCH  18  19
HETATM   19  C10 UNL     1      -3.782  -7.043  -6.801  1.00  0.00     0.127 C 
HETATM   20  C11 UNL     1      -2.615  -6.250  -7.350  1.00  0.00     0.066 C 
HETATM   21  C12 UNL     1      -1.800  -5.782  -6.159  1.00  0.00     0.151 C 
HETATM   22  C13 UNL     1      -2.683  -4.801  -5.386  1.00  0.00     0.170 C 
HETATM   23  C14 UNL     1      -3.965  -5.534  -5.054  1.00  0.00     0.202 C 
HETATM   24  O5  UNL     1      -3.929  -6.855  -5.448  1.00  0.00    -0.383 OA
BRANCH  21  25
HETATM   25  O3  UNL     1      -0.620  -5.170  -6.568  1.00  0.00    -0.393 OA
ATOM     26  H3  UNL     1      -0.222  -4.684  -5.856  1.00  0.00     0.210 HD
ENDBRANCH  21  25
BRANCH  22  27
HETATM   27  O4  UNL     1      -2.016  -4.403  -4.238  1.00  0.00    -0.391 OA
ATOM     28  H4  UNL     1      -1.384  -3.732  -4.464  1.00  0.00     0.210 HD
ENDBRANCH  22  27
ENDBRANCH  18  19
ENDBRANCH  17  18
ENDBRANCH  15  16
ENDBRANCH   1  15
TORSDOF 11
ENDMDL
MODEL 4
REMARK VINA RESULT: -8.323537331      1.143      1.966
REMARK  11 active torsions:
REMARK  status: ('A' for Active; 'I' for Inactive)
REMARK    1  A    between atoms: O1_1  and  C1_3 
REMARK    2  A    between atoms: N1_5  and  C3_6 
REMARK    3  A    between atoms: C3_6  and  C4_7 
REMARK    4  A    between atoms: C4_7  and  C5_8 
REMARK    5  A    between atoms: C5_8  and  O2_9 
REMARK    6  A    between atoms: O2_9  and  C6_10 
REMARK    7  A    between atoms: C6_10  and  C7_11 
REMARK    8  A    between atoms: C8_12  and  C9_13 
REMARK    9  A    between atoms: C9_13  and  C10_14 
REMARK   10  A    between atoms: C12_16  and  O3_17 
REMARK   11  A    between atoms: C13_19  and  O4_20 
ROOT
HETATM    1  O2  UNL     1      -6.759  -6.763  -9.425  1.00  0.00    -0.387 OA
ENDROOT
BRANCH   1   2
HETATM    2  C5  UNL     1      -6.950  -7.755 -10.320  1.00  0.00     0.169 C 
BRANCH   2   3
HETATM    3  C4  UNL     1      -7.805  -8.869  -9.786  1.00  0.00     0.056 C 
BRANCH   3   4
HETATM    4  C3  UNL     1      -9.192  -8.658 -10.351  1.00  0.00     0.274 C 
BRANCH   4   5
HETATM    5  N1  UNL     1     -10.042  -8.079  -9.359  1.00  0.00     0.094 N 
HETATM    6  C2  UNL     1      -9.623  -8.503  -8.010  1.00  0.00     0.333 C 
HETATM    7  C1  UNL     1     -10.486  -9.621  -7.497  1.00  0.00     0.347 C 
HETATM    8  N2  UNL     1     -10.890 -10.547  -8.509  1.00  0.00    -0.046 N 
HETATM    9  C16 UNL     1     -11.579  -9.927  -9.626  1.00  0.00     0.265 C 
ATOM     10  H22 UNL     1     -10.094 -11.093  -8.836  1.00  0.00     0.280 HD
ATOM     11  H21 UNL     1     -11.456 -11.294  -8.106  1.00  0.00     0.280 HD
HETATM   12  C15 UNL     1     -11.411  -8.412  -9.579  1.00  0.00     0.300 C 
BRANCH   7  13
HETATM   13  O1  UNL     1      -9.785 -10.300  -6.523  1.00  0.00    -0.368 OA
ATOM     14  H1  UNL     1     -10.060  -9.975  -5.674  1.00  0.00     0.212 HD
ENDBRANCH   7  13
ENDBRANCH   4   5
ENDBRANCH   3   4
ENDBRANCH   2   3
ENDBRANCH   1   2
BRANCH   1  15
HETATM   15  C6  UNL     1      -5.492  -6.209  -9.521  1.00  0.00     0.194 C 
BRANCH  15  16
HETATM   16  C7  UNL     1      -4.514  -7.085  -8.831  1.00  0.00    -0.005 C 
HETATM   17  C8  UNL     1      -4.178  -7.059  -7.572  1.00  0.00    -0.026 C 
BRANCH  17  18
HETATM   18  C9  UNL     1      -4.735  -6.125  -6.595  1.00  0.00     0.059 C 
BRANCH  18  19
HETATM   19  C10 UNL     1      -3.916  -6.042  -5.322  1.00  0.00     0.127 C 
HETATM   20  C11 UNL     1      -2.886  -7.150  -5.371  1.00  0.00     0.066 C 
HETATM   21  C12 UNL     1      -1.584  -6.565  -4.854  1.00  0.00     0.151 C 
HETATM   22  C13 UNL     1      -1.150  -5.506  -5.869  1.00  0.00     0.170 C 
HETATM   23  C14 UNL     1      -2.299  -4.529  -6.001  1.00  0.00     0.202 C 
HETATM   24  O5  UNL     1      -3.330  -4.814  -5.130  1.00  0.00    -0.383 OA
BRANCH  21  25
HETATM   25  O3  UNL     1      -0.611  -7.550  -4.719  1.00  0.00    -0.393 OA
ATOM     26  H3  UNL     1      -0.319  -7.860  -5.568  1.00  0.00     0.210 HD
ENDBRANCH  21  25
BRANCH  22  27
HETATM   27  O4  UNL     1      -0.005  -4.879  -5.404  1.00  0.00    -0.391 OA
ATOM     28  H4  UNL     1      -0.244  -4.262  -4.723  1.00  0.00     0.210 HD
ENDBRANCH  22  27
ENDBRANCH  18  19
ENDBRANCH  17  18
ENDBRANCH  15  16
ENDBRANCH   1  15
TORSDOF 11
ENDMDL
MODEL 5
REMARK VINA RESULT: -8.263186926      2.796      8.512
REMARK  11 active torsions:
REMARK  status: ('A' for Active; 'I' for Inactive)
REMARK    1  A    between atoms: O1_1  and  C1_3 
REMARK    2  A    between atoms: N1_5  and  C3_6 
REMARK    3  A    between atoms: C3_6  and  C4_7 
REMARK    4  A    between atoms: C4_7  and  C5_8 
REMARK    5  A    between atoms: C5_8  and  O2_9 
REMARK    6  A    between atoms: O2_9  and  C6_10 
REMARK    7  A    between atoms: C6_10  and  C7_11 
REMARK    8  A    between atoms: C8_12  and  C9_13 
REMARK    9  A    between atoms: C9_13  and  C10_14 
REMARK   10  A    between atoms: C12_16  and  O3_17 
REMARK   11  A    between atoms: C13_19  and  O4_20 
ROOT
HETATM    1  O2  UNL     1      -6.675  -7.937  -8.906  1.00  0.00    -0.387 OA
ENDROOT
BRANCH   1   2
HETATM    2  C5  UNL     1      -6.075  -6.841  -8.395  1.00  0.00     0.169 C 
BRANCH   2   3
HETATM    3  C4  UNL     1      -4.629  -6.728  -8.788  1.00  0.00     0.056 C 
BRANCH   3   4
HETATM    4  C3  UNL     1      -4.028  -5.647  -7.918  1.00  0.00     0.274 C 
BRANCH   4   5
HETATM    5  N1  UNL     1      -3.608  -6.200  -6.669  1.00  0.00     0.094 N 
HETATM    6  C2  UNL     1      -4.066  -5.354  -5.552  1.00  0.00     0.333 C 
HETATM    7  C1  UNL     1      -2.963  -4.463  -5.053  1.00  0.00     0.347 C 
HETATM    8  N2  UNL     1      -2.102  -3.980  -6.087  1.00  0.00    -0.046 N 
HETATM    9  C16 UNL     1      -1.501  -5.032  -6.885  1.00  0.00     0.265 C 
ATOM     10  H22 UNL     1      -2.593  -3.313  -6.682  1.00  0.00     0.280 HD
ATOM     11  H21 UNL     1      -1.385  -3.367  -5.699  1.00  0.00     0.280 HD
HETATM   12  C15 UNL     1      -2.192  -6.364  -6.616  1.00  0.00     0.300 C 
BRANCH   7  13
HETATM   13  O1  UNL     1      -3.532  -3.388  -4.405  1.00  0.00    -0.368 OA
ATOM     14  H1  UNL     1      -2.845  -2.764  -4.199  1.00  0.00     0.212 HD
ENDBRANCH   7  13
ENDBRANCH   4   5
ENDBRANCH   3   4
ENDBRANCH   2   3
ENDBRANCH   1   2
BRANCH   1  15
HETATM   15  C6  UNL     1      -7.077  -7.748 -10.220  1.00  0.00     0.194 C 
BRANCH  15  16
HETATM   16  C7  UNL     1      -7.731  -8.982 -10.721  1.00  0.00    -0.005 C 
HETATM   17  C8  UNL     1      -8.990  -9.147 -11.015  1.00  0.00    -0.026 C 
BRANCH  17  18
HETATM   18  C9  UNL     1     -10.003  -8.100 -10.896  1.00  0.00     0.059 C 
BRANCH  18  19
HETATM   19  C10 UNL     1     -11.132  -8.472  -9.957  1.00  0.00     0.127 C 
HETATM   20  C11 UNL     1     -11.158  -9.983  -9.853  1.00  0.00     0.066 C 
HETATM   21  C12 UNL     1     -11.401 -10.320  -8.394  1.00  0.00     0.151 C 
HETATM   22  C13 UNL     1     -10.169  -9.841  -7.625  1.00  0.00     0.170 C 
HETATM   23  C14 UNL     1     -10.005  -8.369  -7.937  1.00  0.00     0.202 C 
HETATM   24  O5  UNL     1     -11.030  -7.883  -8.720  1.00  0.00    -0.383 OA
BRANCH  21  25
HETATM   25  O3  UNL     1     -11.592 -11.687  -8.221  1.00  0.00    -0.393 OA
ATOM     26  H3  UNL     1     -12.008 -11.872  -7.387  1.00  0.00     0.210 HD
ENDBRANCH  21  25
BRANCH  22  27
HETATM   27  O4  UNL     1     -10.373 -10.051  -6.271  1.00  0.00    -0.391 OA
ATOM     28  H4  UNL     1      -9.728 -10.672  -5.953  1.00  0.00     0.210 HD
ENDBRANCH  22  27
ENDBRANCH  18  19
ENDBRANCH  17  18
ENDBRANCH  15  16
ENDBRANCH   1  15
TORSDOF 11
ENDMDL
