MODEL 1
REMARK VINA RESULT: -8.480127032      0.000      0.000
REMARK  10 active torsions:
REMARK  status: ('A' for Active; 'I' for Inactive)
REMARK    1  A    between atoms: O1_1  and  C1_3 
REMARK    2  A    between atoms: C2_4  and  N1_5 
REMARK    3  A    between atoms: N1_5  and  C3_8 
REMARK    4  A    between atoms: C3_8  and  C4_9 
REMARK    5  A    between atoms: C4_9  and  C5_10 
REMARK    6  A    between atoms: C5_10  and  N2_11 
REMARK    7  A    between atoms: N2_11  and  C6_13 
REMARK    8  A    between atoms: C6_13  and  C7_14 
REMARK    9  A    between atoms: C7_14  and  N3_15 
REMARK   10  A    between atoms: C16_26  and  O4_27 
ROOT
HETATM    1  N1  UNL     1      -2.069  -5.010  -7.564  1.00  0.00    -0.046 N 
ATOM      2  H11 UNL     1      -1.342  -4.961  -8.278  1.00  0.00     0.280 HD
ATOM      3  H12 UNL     1      -2.555  -4.136  -7.761  1.00  0.00     0.280 HD
ENDROOT
BRANCH   1   4
HETATM    4  C2  UNL     1      -1.491  -4.994  -6.236  1.00  0.00     0.353 C 
HETATM    5  C1  UNL     1      -2.175  -4.171  -5.213  1.00  0.00     0.205 C 
HETATM    6  C16 UNL     1      -3.142  -4.858  -4.320  1.00  0.00     0.182 C 
HETATM    7  C15 UNL     1      -2.731  -6.247  -3.998  1.00  0.00     0.183 C 
HETATM    8  C13 UNL     1      -1.610  -6.829  -4.758  1.00  0.00     0.179 C 
HETATM    9  O3  UNL     1      -1.984  -6.340  -2.810  1.00  0.00    -0.378 OA
HETATM   10  O2  UNL     1      -1.190  -6.276  -5.896  1.00  0.00    -0.347 OA
HETATM   11  C14 UNL     1      -0.801  -6.602  -3.503  1.00  0.00     0.203 C 
BRANCH   5  12
HETATM   12  O1  UNL     1      -2.791  -3.060  -5.773  1.00  0.00    -0.388 OA
ATOM     13  H1  UNL     1      -2.879  -2.351  -5.146  1.00  0.00     0.210 HD
ENDBRANCH   5  12
BRANCH   6  14
HETATM   14  O4  UNL     1      -3.152  -4.116  -3.096  1.00  0.00    -0.390 OA
ATOM     15  H4  UNL     1      -3.091  -4.757  -2.398  1.00  0.00     0.210 HD
ENDBRANCH   6  14
ENDBRANCH   1   4
BRANCH   1  16
HETATM   16  C3  UNL     1      -2.922  -6.128  -7.781  1.00  0.00     0.240 C 
BRANCH  16  17
HETATM   17  C4  UNL     1      -4.368  -5.829  -7.809  1.00  0.00     0.072 C 
BRANCH  17  18
HETATM   18  C5  UNL     1      -5.300  -6.452  -6.870  1.00  0.00     0.057 C 
BRANCH  18  19
HETATM   19  N2  UNL     1      -6.555  -6.908  -7.231  1.00  0.00    -0.401 N 
ATOM     20  H2  UNL     1      -7.347  -6.618  -6.658  1.00  0.00     0.158 HD
BRANCH  19  21
HETATM   21  C6  UNL     1      -6.815  -7.732  -8.322  1.00  0.00     0.138 C 
BRANCH  21  22
HETATM   22  C7  UNL     1      -7.725  -6.966  -9.309  1.00  0.00     0.141 C 
BRANCH  22  23
HETATM   23  N3  UNL     1      -8.860  -7.693  -9.649  1.00  0.00    -0.392 N 
HETATM   24  C8  UNL     1      -8.803  -8.545 -10.776  1.00  0.00     0.122 C 
HETATM   25  C9  UNL     1     -10.124  -8.503 -11.505  1.00  0.00     0.020 C 
HETATM   26  C10 UNL     1     -11.305  -8.685 -10.632  1.00  0.00     0.007 C 
HETATM   27  C11 UNL     1     -11.170  -8.358  -9.201  1.00  0.00     0.044 C 
HETATM   28  C12 UNL     1      -9.761  -8.171  -8.696  1.00  0.00     0.058 C 
ENDBRANCH  22  23
ENDBRANCH  21  22
ENDBRANCH  19  21
ENDBRANCH  18  19
ENDBRANCH  17  18
ENDBRANCH  16  17
ENDBRANCH   1  16
TORSDOF 10
ENDMDL
MODEL 2
REMARK VINA RESULT: -8.421762412      0.400      1.102
REMARK  10 active torsions:
REMARK  status: ('A' for Active; 'I' for Inactive)
REMARK    1  A    between atoms: O1_1  and  C1_3 
REMARK    2  A    between atoms: C2_4  and  N1_5 
REMARK    3  A    between atoms: N1_5  and  C3_8 
REMARK    4  A    between atoms: C3_8  and  C4_9 
REMARK    5  A    between atoms: C4_9  and  C5_10 
REMARK    6  A    between atoms: C5_10  and  N2_11 
REMARK    7  A    between atoms: N2_11  and  C6_13 
REMARK    8  A    between atoms: C6_13  and  C7_14 
REMARK    9  A    between atoms: C7_14  and  N3_15 
REMARK   10  A    between atoms: C16_26  and  O4_27 
ROOT
HETATM    1  N1  UNL     1      -2.027  -4.942  -7.535  1.00  0.00    -0.046 N 
ATOM      2  H11 UNL     1      -1.303  -4.865  -8.248  1.00  0.00     0.280 HD
ATOM      3  H12 UNL     1      -2.536  -4.078  -7.721  1.00  0.00     0.280 HD
ENDROOT
BRANCH   1   4
HETATM    4  C2  UNL     1      -1.450  -4.928  -6.207  1.00  0.00     0.353 C 
HETATM    5  C1  UNL     1      -2.140  -4.115  -5.180  1.00  0.00     0.205 C 
HETATM    6  C16 UNL     1      -3.103  -4.814  -4.290  1.00  0.00     0.182 C 
HETATM    7  C15 UNL     1      -2.680  -6.202  -3.975  1.00  0.00     0.183 C 
HETATM    8  C13 UNL     1      -1.555  -6.771  -4.738  1.00  0.00     0.179 C 
HETATM    9  O3  UNL     1      -1.933  -6.295  -2.787  1.00  0.00    -0.378 OA
HETATM   10  O2  UNL     1      -1.139  -6.209  -5.872  1.00  0.00    -0.347 OA
HETATM   11  C14 UNL     1      -0.748  -6.543  -3.481  1.00  0.00     0.203 C 
BRANCH   5  12
HETATM   12  O1  UNL     1      -2.766  -3.006  -5.734  1.00  0.00    -0.388 OA
ATOM     13  H1  UNL     1      -2.707  -2.247  -5.166  1.00  0.00     0.210 HD
ENDBRANCH   5  12
BRANCH   6  14
HETATM   14  O4  UNL     1      -3.119  -4.079  -3.063  1.00  0.00    -0.390 OA
ATOM     15  H4  UNL     1      -4.022  -4.070  -2.771  1.00  0.00     0.210 HD
ENDBRANCH   6  14
ENDBRANCH   1   4
BRANCH   1  16
HETATM   16  C3  UNL     1      -2.851  -6.078  -7.766  1.00  0.00     0.240 C 
BRANCH  16  17
HETATM   17  C4  UNL     1      -4.306  -5.833  -7.708  1.00  0.00     0.072 C 
BRANCH  17  18
HETATM   18  C5  UNL     1      -5.168  -6.537  -6.759  1.00  0.00     0.057 C 
BRANCH  18  19
HETATM   19  N2  UNL     1      -6.469  -6.912  -7.045  1.00  0.00    -0.401 N 
ATOM     20  H2  UNL     1      -7.040  -7.260  -6.275  1.00  0.00     0.158 HD
BRANCH  19  21
HETATM   21  C6  UNL     1      -7.053  -6.847  -8.306  1.00  0.00     0.138 C 
BRANCH  21  22
HETATM   22  C7  UNL     1      -7.425  -8.281  -8.747  1.00  0.00     0.141 C 
BRANCH  22  23
HETATM   23  N3  UNL     1      -8.646  -8.326  -9.412  1.00  0.00    -0.392 N 
HETATM   24  C8  UNL     1      -9.799  -7.865  -8.737  1.00  0.00     0.122 C 
HETATM   25  C9  UNL     1     -10.976  -8.738  -9.100  1.00  0.00     0.020 C 
HETATM   26  C10 UNL     1     -11.140  -8.962 -10.553  1.00  0.00     0.007 C 
HETATM   27  C11 UNL     1      -9.955  -8.817 -11.418  1.00  0.00     0.044 C 
HETATM   28  C12 UNL     1      -8.758  -8.145 -10.792  1.00  0.00     0.058 C 
ENDBRANCH  22  23
ENDBRANCH  21  22
ENDBRANCH  19  21
ENDBRANCH  18  19
ENDBRANCH  17  18
ENDBRANCH  16  17
ENDBRANCH   1  16
TORSDOF 10
ENDMDL
MODEL 3
REMARK VINA RESULT: -8.275583208      1.636      2.567
REMARK  10 active torsions:
REMARK  status: ('A' for Active; 'I' for Inactive)
REMARK    1  A    between atoms: O1_1  and  C1_3 
REMARK    2  A    between atoms: C2_4  and  N1_5 
REMARK    3  A    between atoms: N1_5  and  C3_8 
REMARK    4  A    between atoms: C3_8  and  C4_9 
REMARK    5  A    between atoms: C4_9  and  C5_10 
REMARK    6  A    between atoms: C5_10  and  N2_11 
REMARK    7  A    between atoms: N2_11  and  C6_13 
REMARK    8  A    between atoms: C6_13  and  C7_14 
REMARK    9  A    between atoms: C7_14  and  N3_15 
REMARK   10  A    between atoms: C16_26  and  O4_27 
ROOT
HETATM    1  N1  UNL     1      -4.520  -5.954  -7.430  1.00  0.00    -0.046 N 
ATOM      2  H11 UNL     1      -4.497  -5.816  -8.441  1.00  0.00     0.280 HD
ATOM      3  H12 UNL     1      -4.502  -4.980  -7.129  1.00  0.00     0.280 HD
ENDROOT
BRANCH   1   4
HETATM    4  C2  UNL     1      -3.339  -6.658  -6.977  1.00  0.00     0.353 C 
HETATM    5  C1  UNL     1      -2.064  -5.907  -6.977  1.00  0.00     0.205 C 
HETATM    6  C16 UNL     1      -1.649  -5.266  -5.703  1.00  0.00     0.182 C 
HETATM    7  C15 UNL     1      -2.037  -6.065  -4.513  1.00  0.00     0.183 C 
HETATM    8  C13 UNL     1      -2.953  -7.203  -4.715  1.00  0.00     0.179 C 
HETATM    9  O3  UNL     1      -1.027  -6.944  -4.085  1.00  0.00    -0.378 OA
HETATM   10  O2  UNL     1      -3.661  -7.325  -5.837  1.00  0.00    -0.347 OA
HETATM   11  C14 UNL     1      -1.724  -8.064  -4.538  1.00  0.00     0.203 C 
BRANCH   5  12
HETATM   12  O1  UNL     1      -2.025  -4.957  -7.990  1.00  0.00    -0.388 OA
ATOM     13  H1  UNL     1      -1.172  -4.541  -8.051  1.00  0.00     0.210 HD
ENDBRANCH   5  12
BRANCH   6  14
HETATM   14  O4  UNL     1      -0.220  -5.204  -5.733  1.00  0.00    -0.390 OA
ATOM     15  H4  UNL     1       0.026  -4.478  -5.173  1.00  0.00     0.210 HD
ENDBRANCH   6  14
ENDBRANCH   1   4
BRANCH   1  16
HETATM   16  C3  UNL     1      -5.728  -6.589  -7.030  1.00  0.00     0.240 C 
BRANCH  16  17
HETATM   17  C4  UNL     1      -6.654  -6.945  -8.124  1.00  0.00     0.072 C 
BRANCH  17  18
HETATM   18  C5  UNL     1      -6.227  -6.945  -9.522  1.00  0.00     0.057 C 
BRANCH  18  19
HETATM   19  N2  UNL     1      -6.856  -7.682 -10.510  1.00  0.00    -0.401 N 
ATOM     20  H2  UNL     1      -6.647  -7.449 -11.480  1.00  0.00     0.158 HD
BRANCH  19  21
HETATM   21  C6  UNL     1      -7.753  -8.720 -10.275  1.00  0.00     0.138 C 
BRANCH  21  22
HETATM   22  C7  UNL     1      -9.081  -8.392 -10.995  1.00  0.00     0.141 C 
BRANCH  22  23
HETATM   23  N3  UNL     1     -10.177  -8.488 -10.144  1.00  0.00    -0.392 N 
HETATM   24  C8  UNL     1     -10.028  -8.071  -8.802  1.00  0.00     0.122 C 
HETATM   25  C9  UNL     1     -10.813  -8.993  -7.900  1.00  0.00     0.020 C 
HETATM   26  C10 UNL     1     -12.206  -9.230  -8.339  1.00  0.00     0.007 C 
HETATM   27  C11 UNL     1     -12.529  -9.040  -9.765  1.00  0.00     0.044 C 
HETATM   28  C12 UNL     1     -11.490  -8.319 -10.587  1.00  0.00     0.058 C 
ENDBRANCH  22  23
ENDBRANCH  21  22
ENDBRANCH  19  21
ENDBRANCH  18  19
ENDBRANCH  17  18
ENDBRANCH  16  17
ENDBRANCH   1  16
TORSDOF 10
ENDMDL
MODEL 4
REMARK VINA RESULT: -8.230894037      1.247      2.348
REMARK  10 active torsions:
REMARK  status: ('A' for Active; 'I' for Inactive)
REMARK    1  A    between atoms: O1_1  and  C1_3 
REMARK    2  A    between atoms: C2_4  and  N1_5 
REMARK    3  A    between atoms: N1_5  and  C3_8 
REMARK    4  A    between atoms: C3_8  and  C4_9 
REMARK    5  A    between atoms: C4_9  and  C5_10 
REMARK    6  A    between atoms: C5_10  and  N2_11 
REMARK    7  A    between atoms: N2_11  and  C6_13 
REMARK    8  A    between atoms: C6_13  and  C7_14 
REMARK    9  A    between atoms: C7_14  and  N3_15 
REMARK   10  A    between atoms: C16_26  and  O4_27 
ROOT
HETATM    1  N1  UNL     1      -1.790  -7.277  -5.207  1.00  0.00    -0.046 N 
ATOM      2  H11 UNL     1      -1.315  -8.092  -4.817  1.00  0.00     0.280 HD
ATOM      3  H12 UNL     1      -1.383  -7.280  -6.142  1.00  0.00     0.280 HD
ENDROOT
BRANCH   1   4
HETATM    4  C2  UNL     1      -1.428  -6.074  -4.489  1.00  0.00     0.353 C 
HETATM    5  C1  UNL     1      -1.188  -4.854  -5.293  1.00  0.00     0.205 C 
HETATM    6  C16 UNL     1      -2.321  -3.908  -5.452  1.00  0.00     0.182 C 
HETATM    7  C15 UNL     1      -3.177  -3.838  -4.241  1.00  0.00     0.183 C 
HETATM    8  C13 UNL     1      -2.960  -4.843  -3.184  1.00  0.00     0.179 C 
HETATM    9  O3  UNL     1      -2.799  -2.813  -3.355  1.00  0.00    -0.378 OA
HETATM   10  O2  UNL     1      -2.264  -5.954  -3.424  1.00  0.00    -0.347 OA
HETATM   11  C14 UNL     1      -2.289  -3.721  -2.426  1.00  0.00     0.203 C 
BRANCH   5  12
HETATM   12  O1  UNL     1      -0.678  -5.157  -6.549  1.00  0.00    -0.388 OA
ATOM     13  H1  UNL     1      -1.315  -5.611  -7.088  1.00  0.00     0.210 HD
ENDBRANCH   5  12
BRANCH   6  14
HETATM   14  O4  UNL     1      -1.738  -2.615  -5.642  1.00  0.00    -0.390 OA
ATOM     15  H4  UNL     1      -0.811  -2.761  -5.791  1.00  0.00     0.210 HD
ENDBRANCH   6  14
ENDBRANCH   1   4
BRANCH   1  16
HETATM   16  C3  UNL     1      -3.196  -7.485  -5.261  1.00  0.00     0.240 C 
BRANCH  16  17
HETATM   17  C4  UNL     1      -3.863  -7.009  -6.489  1.00  0.00     0.072 C 
BRANCH  17  18
HETATM   18  C5  UNL     1      -5.158  -6.330  -6.447  1.00  0.00     0.057 C 
BRANCH  18  19
HETATM   19  N2  UNL     1      -6.340  -6.919  -6.860  1.00  0.00    -0.401 N 
ATOM     20  H2  UNL     1      -6.852  -7.480  -6.180  1.00  0.00     0.158 HD
BRANCH  19  21
HETATM   21  C6  UNL     1      -6.881  -6.798  -8.136  1.00  0.00     0.138 C 
BRANCH  21  22
HETATM   22  C7  UNL     1      -7.223  -8.212  -8.659  1.00  0.00     0.141 C 
BRANCH  22  23
HETATM   23  N3  UNL     1      -8.428  -8.239  -9.352  1.00  0.00    -0.392 N 
HETATM   24  C8  UNL     1      -9.607  -7.861  -8.671  1.00  0.00     0.122 C 
HETATM   25  C9  UNL     1     -10.751  -8.735  -9.125  1.00  0.00     0.020 C 
HETATM   26  C10 UNL     1     -10.879  -8.853 -10.595  1.00  0.00     0.007 C 
HETATM   27  C11 UNL     1      -9.681  -8.611 -11.419  1.00  0.00     0.044 C 
HETATM   28  C12 UNL     1      -8.516  -7.957 -10.717  1.00  0.00     0.058 C 
ENDBRANCH  22  23
ENDBRANCH  21  22
ENDBRANCH  19  21
ENDBRANCH  18  19
ENDBRANCH  17  18
ENDBRANCH  16  17
ENDBRANCH   1  16
TORSDOF 10
ENDMDL
MODEL 5
REMARK VINA RESULT: -8.197260177      1.654      2.458
REMARK  10 active torsions:
REMARK  status: ('A' for Active; 'I' for Inactive)
REMARK    1  A    between atoms: O1_1  and  C1_3 
REMARK    2  A    between atoms: C2_4  and  N1_5 
REMARK    3  A    between atoms: N1_5  and  C3_8 
REMARK    4  A    between atoms: C3_8  and  C4_9 
REMARK    5  A    between atoms: C4_9  and  C5_10 
REMARK    6  A    between atoms: C5_10  and  N2_11 
REMARK    7  A    between atoms: N2_11  and  C6_13 
REMARK    8  A    between atoms: C6_13  and  C7_14 
REMARK    9  A    between atoms: C7_14  and  N3_15 
REMARK   10  A    between atoms: C16_26  and  O4_27 
ROOT
HETATM    1  N1  UNL     1      -4.691  -5.904  -7.232  1.00  0.00    -0.046 N 
ATOM      2  H11 UNL     1      -4.646  -5.601  -8.205  1.00  0.00     0.280 HD
ATOM      3  H12 UNL     1      -4.712  -4.992  -6.776  1.00  0.00     0.280 HD
ENDROOT
BRANCH   1   4
HETATM    4  C2  UNL     1      -3.500  -6.640  -6.864  1.00  0.00     0.353 C 
HETATM    5  C1  UNL     1      -2.211  -5.915  -6.929  1.00  0.00     0.205 C 
HETATM    6  C16 UNL     1      -1.706  -5.306  -5.672  1.00  0.00     0.182 C 
HETATM    7  C15 UNL     1      -2.039  -6.118  -4.474  1.00  0.00     0.183 C 
HETATM    8  C13 UNL     1      -2.990  -7.232  -4.638  1.00  0.00     0.179 C 
HETATM    9  O3  UNL     1      -1.023  -7.025  -4.123  1.00  0.00    -0.378 OA
HETATM   10  O2  UNL     1      -3.767  -7.320  -5.717  1.00  0.00    -0.347 OA
HETATM   11  C14 UNL     1      -1.772  -8.122  -4.551  1.00  0.00     0.203 C 
BRANCH   5  12
HETATM   12  O1  UNL     1      -2.213  -4.948  -7.926  1.00  0.00    -0.388 OA
ATOM     13  H1  UNL     1      -2.064  -5.327  -8.785  1.00  0.00     0.210 HD
ENDBRANCH   5  12
BRANCH   6  14
HETATM   14  O4  UNL     1      -0.281  -5.273  -5.788  1.00  0.00    -0.390 OA
ATOM     15  H4  UNL     1      -0.091  -4.823  -6.602  1.00  0.00     0.210 HD
ENDBRANCH   6  14
ENDBRANCH   1   4
BRANCH   1  16
HETATM   16  C3  UNL     1      -5.888  -6.628  -6.978  1.00  0.00     0.240 C 
BRANCH  16  17
HETATM   17  C4  UNL     1      -6.687  -6.977  -8.170  1.00  0.00     0.072 C 
BRANCH  17  18
HETATM   18  C5  UNL     1      -6.105  -6.981  -9.511  1.00  0.00     0.057 C 
BRANCH  18  19
HETATM   19  N2  UNL     1      -6.632  -7.701 -10.568  1.00  0.00    -0.401 N 
ATOM     20  H2  UNL     1      -6.262  -7.514 -11.500  1.00  0.00     0.158 HD
BRANCH  19  21
HETATM   21  C6  UNL     1      -7.631  -8.663 -10.452  1.00  0.00     0.138 C 
BRANCH  21  22
HETATM   22  C7  UNL     1      -8.950  -8.067 -10.994  1.00  0.00     0.141 C 
BRANCH  22  23
HETATM   23  N3  UNL     1     -10.053  -8.464 -10.245  1.00  0.00    -0.392 N 
HETATM   24  C8  UNL     1     -11.210  -8.901 -10.928  1.00  0.00     0.122 C 
HETATM   25  C9  UNL     1     -12.438  -8.424 -10.190  1.00  0.00     0.020 C 
HETATM   26  C10 UNL     1     -12.418  -8.699  -8.736  1.00  0.00     0.007 C 
HETATM   27  C11 UNL     1     -11.111  -8.879  -8.080  1.00  0.00     0.044 C 
HETATM   28  C12 UNL     1      -9.932  -9.083  -9.000  1.00  0.00     0.058 C 
ENDBRANCH  22  23
ENDBRANCH  21  22
ENDBRANCH  19  21
ENDBRANCH  18  19
ENDBRANCH  17  18
ENDBRANCH  16  17
ENDBRANCH   1  16
TORSDOF 10
ENDMDL
