MODEL 1
REMARK VINA RESULT: -8.266743254      0.000      0.000
REMARK  11 active torsions:
REMARK  status: ('A' for Active; 'I' for Inactive)
REMARK    1  A    between atoms: N2_5  and  C4_6 
REMARK    2  A    between atoms: C4_6  and  C5_7 
REMARK    3  A    between atoms: C5_7  and  C6_8 
REMARK    4  A    between atoms: C6_8  and  C7_9 
REMARK    5  A    between atoms: C7_9  and  C8_10 
REMARK    6  A    between atoms: C8_10  and  N3_11 
REMARK    7  A    between atoms: N3_11  and  C9_14 
REMARK    8  A    between atoms: C9_14  and  C10_15 
REMARK    9  A    between atoms: C12_18  and  O2_19 
REMARK   10  A    between atoms: C13_21  and  O3_22 
REMARK   11  A    between atoms: C14_24  and  O4_25 
ROOT
HETATM    1  N3  UNL     1      -5.963  -6.657  -6.695  1.00  0.00    -0.073 N 
ATOM      2  H31 UNL     1      -5.709  -7.446  -6.100  1.00  0.00     0.277 HD
ATOM      3  H32 UNL     1      -6.474  -6.104  -6.005  1.00  0.00     0.277 HD
ENDROOT
BRANCH   1   4
HETATM    4  C8  UNL     1      -6.800  -7.056  -7.778  1.00  0.00     0.232 C 
BRANCH   4   5
HETATM    5  C7  UNL     1      -6.243  -6.665  -9.101  1.00  0.00     0.028 C 
BRANCH   5   6
HETATM    6  C6  UNL     1      -6.614  -7.638 -10.180  1.00  0.00     0.007 C 
BRANCH   6   7
HETATM    7  C5  UNL     1      -7.719  -8.557  -9.734  1.00  0.00     0.045 C 
BRANCH   7   8
HETATM    8  C4  UNL     1      -9.000  -8.249 -10.405  1.00  0.00     0.068 C 
BRANCH   8   9
HETATM    9  N2  UNL     1     -10.157  -8.380  -9.620  1.00  0.00    -0.351 N 
HETATM   10  C3  UNL     1     -11.361  -8.758 -10.233  1.00  0.00     0.098 C 
HETATM   11  C2  UNL     1     -12.478  -8.553  -9.222  1.00  0.00     0.317 C 
HETATM   12  N1  UNL     1     -12.249  -9.356  -8.036  1.00  0.00     0.093 N 
HETATM   13  C1  UNL     1     -12.678 -10.711  -8.348  1.00  0.00     0.310 C 
HETATM   14  C16 UNL     1     -10.895  -9.303  -7.559  1.00  0.00     0.317 C 
HETATM   15  C15 UNL     1     -10.147  -8.164  -8.244  1.00  0.00     0.098 C 
ENDBRANCH   8   9
ENDBRANCH   7   8
ENDBRANCH   6   7
ENDBRANCH   5   6
ENDBRANCH   4   5
ENDBRANCH   1   4
BRANCH   1  16
HETATM   16  C9  UNL     1      -4.804  -5.962  -7.181  1.00  0.00     0.266 C 
BRANCH  16  17
HETATM   17  C10 UNL     1      -3.605  -6.614  -6.509  1.00  0.00     0.178 C 
HETATM   18  O1  UNL     1      -3.747  -6.781  -5.151  1.00  0.00    -0.379 OA
HETATM   19  C11 UNL     1      -2.715  -7.585  -4.687  1.00  0.00     0.202 C 
HETATM   20  C12 UNL     1      -1.353  -7.100  -5.065  1.00  0.00     0.173 C 
HETATM   21  C13 UNL     1      -1.502  -5.710  -5.646  1.00  0.00     0.180 C 
HETATM   22  C14 UNL     1      -2.400  -5.815  -6.870  1.00  0.00     0.180 C 
BRANCH  20  23
HETATM   23  O2  UNL     1      -0.448  -7.062  -4.032  1.00  0.00    -0.391 OA
ATOM     24  H2  UNL     1       0.370  -7.516  -4.201  1.00  0.00     0.210 HD
ENDBRANCH  20  23
BRANCH  21  25
HETATM   25  O3  UNL     1      -0.289  -5.190  -6.094  1.00  0.00    -0.390 OA
ATOM     26  H3  UNL     1      -0.306  -4.242  -6.165  1.00  0.00     0.210 HD
ENDBRANCH  21  25
BRANCH  22  27
HETATM   27  O4  UNL     1      -2.656  -4.537  -7.322  1.00  0.00    -0.390 OA
ATOM     28  H4  UNL     1      -2.160  -4.272  -8.088  1.00  0.00     0.210 HD
ENDBRANCH  22  27
ENDBRANCH  16  17
ENDBRANCH   1  16
TORSDOF 11
ENDMDL
MODEL 2
REMARK VINA RESULT: -8.177507831      0.841      1.687
REMARK  11 active torsions:
REMARK  status: ('A' for Active; 'I' for Inactive)
REMARK    1  A    between atoms: N2_5  and  C4_6 
REMARK    2  A    between atoms: C4_6  and  C5_7 
REMARK    3  A    between atoms: C5_7  and  C6_8 
REMARK    4  A    between atoms: C6_8  and  C7_9 
REMARK    5  A    between atoms: C7_9  and  C8_10 
REMARK    6  A    between atoms: C8_10  and  N3_11 
REMARK    7  A    between atoms: N3_11  and  C9_14 
REMARK    8  A    between atoms: C9_14  and  C10_15 
REMARK    9  A    between atoms: C12_18  and  O2_19 
REMARK   10  A    between atoms: C13_21  and  O3_22 
REMARK   11  A    between atoms: C14_24  and  O4_25 
ROOT
HETATM    1  N3  UNL     1      -5.033  -6.352  -7.367  1.00  0.00    -0.073 N 
ATOM      2  H31 UNL     1      -4.939  -5.436  -7.806  1.00  0.00     0.277 HD
ATOM      3  H32 UNL     1      -4.144  -6.756  -7.665  1.00  0.00     0.277 HD
ENDROOT
BRANCH   1   4
HETATM    4  C8  UNL     1      -6.144  -7.078  -7.888  1.00  0.00     0.232 C 
BRANCH   4   5
HETATM    5  C7  UNL     1      -6.525  -6.631  -9.256  1.00  0.00     0.028 C 
BRANCH   5   6
HETATM    6  C6  UNL     1      -6.470  -7.749 -10.252  1.00  0.00     0.007 C 
BRANCH   6   7
HETATM    7  C5  UNL     1      -7.620  -8.703 -10.070  1.00  0.00     0.045 C 
BRANCH   7   8
HETATM    8  C4  UNL     1      -8.890  -8.142 -10.581  1.00  0.00     0.068 C 
BRANCH   8   9
HETATM    9  N2  UNL     1     -10.011  -8.292  -9.747  1.00  0.00    -0.351 N 
HETATM   10  C3  UNL     1     -11.225  -8.718 -10.305  1.00  0.00     0.098 C 
HETATM   11  C2  UNL     1     -12.308  -8.527  -9.255  1.00  0.00     0.317 C 
HETATM   12  N1  UNL     1     -12.009  -9.297  -8.063  1.00  0.00     0.093 N 
HETATM   13  C1  UNL     1     -12.408 -10.671  -8.332  1.00  0.00     0.310 C 
HETATM   14  C16 UNL     1     -10.639  -9.194  -7.642  1.00  0.00     0.317 C 
HETATM   15  C15 UNL     1      -9.953  -8.048  -8.377  1.00  0.00     0.098 C 
ENDBRANCH   8   9
ENDBRANCH   7   8
ENDBRANCH   6   7
ENDBRANCH   5   6
ENDBRANCH   4   5
ENDBRANCH   1   4
BRANCH   1  16
HETATM   16  C9  UNL     1      -5.120  -6.252  -5.937  1.00  0.00     0.266 C 
BRANCH  16  17
HETATM   17  C10 UNL     1      -3.806  -5.643  -5.472  1.00  0.00     0.178 C 
HETATM   18  O1  UNL     1      -3.160  -4.905  -6.436  1.00  0.00    -0.379 OA
HETATM   19  C11 UNL     1      -2.113  -4.211  -5.845  1.00  0.00     0.202 C 
HETATM   20  C12 UNL     1      -1.177  -5.078  -5.064  1.00  0.00     0.173 C 
HETATM   21  C13 UNL     1      -1.526  -6.521  -5.365  1.00  0.00     0.180 C 
HETATM   22  C14 UNL     1      -2.966  -6.748  -4.932  1.00  0.00     0.180 C 
BRANCH  20  23
HETATM   23  O2  UNL     1       0.154  -4.871  -5.328  1.00  0.00    -0.391 OA
ATOM     24  H2  UNL     1       0.443  -3.970  -5.238  1.00  0.00     0.210 HD
ENDBRANCH  20  23
BRANCH  21  25
HETATM   25  O3  UNL     1      -0.750  -7.417  -4.631  1.00  0.00    -0.390 OA
ATOM     26  H3  UNL     1      -1.261  -7.893  -3.986  1.00  0.00     0.210 HD
ENDBRANCH  21  25
BRANCH  22  27
HETATM   27  O4  UNL     1      -3.336  -8.017  -5.331  1.00  0.00    -0.390 OA
ATOM     28  H4  UNL     1      -2.618  -8.625  -5.460  1.00  0.00     0.210 HD
ENDBRANCH  22  27
ENDBRANCH  16  17
ENDBRANCH   1  16
TORSDOF 11
ENDMDL
MODEL 3
REMARK VINA RESULT: -8.010734712      1.243      1.276
REMARK  11 active torsions:
REMARK  status: ('A' for Active; 'I' for Inactive)
REMARK    1  A    between atoms: N2_5  and  C4_6 
REMARK    2  A    between atoms: C4_6  and  C5_7 
REMARK    3  A    between atoms: C5_7  and  C6_8 
REMARK    4  A    between atoms: C6_8  and  C7_9 
REMARK    5  A    between atoms: C7_9  and  C8_10 
REMARK    6  A    between atoms: C8_10  and  N3_11 
REMARK    7  A    between atoms: N3_11  and  C9_14 
REMARK    8  A    between atoms: C9_14  and  C10_15 
REMARK    9  A    between atoms: C12_18  and  O2_19 
REMARK   10  A    between atoms: C13_21  and  O3_22 
REMARK   11  A    between atoms: C14_24  and  O4_25 
ROOT
HETATM    1  N3  UNL     1      -4.362  -6.839  -8.360  1.00  0.00    -0.073 N 
ATOM      2  H31 UNL     1      -4.171  -7.020  -9.346  1.00  0.00     0.277 HD
ATOM      3  H32 UNL     1      -3.773  -7.567  -7.954  1.00  0.00     0.277 HD
ENDROOT
BRANCH   1   4
HETATM    4  C8  UNL     1      -5.738  -7.032  -8.042  1.00  0.00     0.232 C 
BRANCH   4   5
HETATM    5  C7  UNL     1      -6.635  -6.731  -9.190  1.00  0.00     0.028 C 
BRANCH   5   6
HETATM    6  C6  UNL     1      -6.555  -7.778 -10.259  1.00  0.00     0.007 C 
BRANCH   6   7
HETATM    7  C5  UNL     1      -7.680  -8.772 -10.140  1.00  0.00     0.045 C 
BRANCH   7   8
HETATM    8  C4  UNL     1      -8.920  -8.283 -10.779  1.00  0.00     0.068 C 
BRANCH   8   9
HETATM    9  N2  UNL     1     -10.081  -8.323  -9.988  1.00  0.00    -0.351 N 
HETATM   10  C3  UNL     1     -11.296  -8.707 -10.575  1.00  0.00     0.098 C 
HETATM   11  C2  UNL     1     -12.405  -8.399  -9.582  1.00  0.00     0.317 C 
HETATM   12  N1  UNL     1     -12.200  -9.122  -8.342  1.00  0.00     0.093 N 
HETATM   13  C1  UNL     1     -12.670 -10.482  -8.558  1.00  0.00     0.310 C 
HETATM   14  C16 UNL     1     -10.844  -9.076  -7.868  1.00  0.00     0.317 C 
HETATM   15  C15 UNL     1     -10.063  -8.012  -8.631  1.00  0.00     0.098 C 
ENDBRANCH   8   9
ENDBRANCH   7   8
ENDBRANCH   6   7
ENDBRANCH   5   6
ENDBRANCH   4   5
ENDBRANCH   1   4
BRANCH   1  16
HETATM   16  C9  UNL     1      -3.931  -5.526  -7.967  1.00  0.00     0.266 C 
BRANCH  16  17
HETATM   17  C10 UNL     1      -3.371  -5.666  -6.560  1.00  0.00     0.178 C 
HETATM   18  O1  UNL     1      -3.857  -4.736  -5.670  1.00  0.00    -0.379 OA
HETATM   19  C11 UNL     1      -3.471  -5.098  -4.387  1.00  0.00     0.202 C 
HETATM   20  C12 UNL     1      -2.000  -5.319  -4.237  1.00  0.00     0.173 C 
HETATM   21  C13 UNL     1      -1.329  -4.832  -5.505  1.00  0.00     0.180 C 
HETATM   22  C14 UNL     1      -1.886  -5.644  -6.664  1.00  0.00     0.180 C 
BRANCH  20  23
HETATM   23  O2  UNL     1      -1.430  -4.693  -3.156  1.00  0.00    -0.391 OA
ATOM     24  H2  UNL     1      -2.006  -4.096  -2.691  1.00  0.00     0.210 HD
ENDBRANCH  20  23
BRANCH  21  25
HETATM   25  O3  UNL     1       0.048  -5.055  -5.495  1.00  0.00    -0.390 OA
ATOM     26  H3  UNL     1       0.374  -5.334  -6.343  1.00  0.00     0.210 HD
ENDBRANCH  21  25
BRANCH  22  27
HETATM   27  O4  UNL     1      -1.386  -5.113  -7.835  1.00  0.00    -0.390 OA
ATOM     28  H4  UNL     1      -1.940  -4.466  -8.255  1.00  0.00     0.210 HD
ENDBRANCH  22  27
ENDBRANCH  16  17
ENDBRANCH   1  16
TORSDOF 11
ENDMDL
MODEL 4
REMARK VINA RESULT: -7.951597111      4.105      8.961
REMARK  11 active torsions:
REMARK  status: ('A' for Active; 'I' for Inactive)
REMARK    1  A    between atoms: N2_5  and  C4_6 
REMARK    2  A    between atoms: C4_6  and  C5_7 
REMARK    3  A    between atoms: C5_7  and  C6_8 
REMARK    4  A    between atoms: C6_8  and  C7_9 
REMARK    5  A    between atoms: C7_9  and  C8_10 
REMARK    6  A    between atoms: C8_10  and  N3_11 
REMARK    7  A    between atoms: N3_11  and  C9_14 
REMARK    8  A    between atoms: C9_14  and  C10_15 
REMARK    9  A    between atoms: C12_18  and  O2_19 
REMARK   10  A    between atoms: C13_21  and  O3_22 
REMARK   11  A    between atoms: C14_24  and  O4_25 
ROOT
HETATM    1  N3  UNL     1      -7.497  -6.551  -9.261  1.00  0.00    -0.073 N 
ATOM      2  H31 UNL     1      -8.065  -6.701 -10.095  1.00  0.00     0.277 HD
ATOM      3  H32 UNL     1      -7.769  -5.588  -9.062  1.00  0.00     0.277 HD
ENDROOT
BRANCH   1   4
HETATM    4  C8  UNL     1      -6.103  -6.658  -9.543  1.00  0.00     0.232 C 
BRANCH   4   5
HETATM    5  C7  UNL     1      -5.305  -7.014  -8.338  1.00  0.00     0.028 C 
BRANCH   5   6
HETATM    6  C6  UNL     1      -3.835  -6.819  -8.557  1.00  0.00     0.007 C 
BRANCH   6   7
HETATM    7  C5  UNL     1      -3.403  -5.428  -8.177  1.00  0.00     0.045 C 
BRANCH   7   8
HETATM    8  C4  UNL     1      -2.264  -5.440  -7.234  1.00  0.00     0.068 C 
BRANCH   8   9
HETATM    9  N2  UNL     1      -2.585  -5.624  -5.879  1.00  0.00    -0.351 N 
HETATM   10  C3  UNL     1      -1.705  -6.347  -5.060  1.00  0.00     0.098 C 
HETATM   11  C2  UNL     1      -2.420  -6.623  -3.746  1.00  0.00     0.317 C 
HETATM   12  N1  UNL     1      -2.798  -5.382  -3.098  1.00  0.00     0.093 N 
HETATM   13  C1  UNL     1      -1.611  -4.869  -2.431  1.00  0.00     0.310 C 
HETATM   14  C16 UNL     1      -3.385  -4.423  -3.992  1.00  0.00     0.317 C 
HETATM   15  C15 UNL     1      -3.742  -5.095  -5.314  1.00  0.00     0.098 C 
ENDBRANCH   8   9
ENDBRANCH   7   8
ENDBRANCH   6   7
ENDBRANCH   5   6
ENDBRANCH   4   5
ENDBRANCH   1   4
BRANCH   1  16
HETATM   16  C9  UNL     1      -7.868  -7.440  -8.196  1.00  0.00     0.266 C 
BRANCH  16  17
HETATM   17  C10 UNL     1      -8.925  -8.371  -8.768  1.00  0.00     0.178 C 
HETATM   18  O1  UNL     1      -9.362  -8.018 -10.024  1.00  0.00    -0.379 OA
HETATM   19  C11 UNL     1     -10.134  -9.050 -10.538  1.00  0.00     0.202 C 
HETATM   20  C12 UNL     1     -11.253  -9.473  -9.641  1.00  0.00     0.173 C 
HETATM   21  C13 UNL     1     -11.357  -8.458  -8.523  1.00  0.00     0.180 C 
HETATM   22  C14 UNL     1     -10.032  -8.457  -7.775  1.00  0.00     0.180 C 
BRANCH  20  23
HETATM   23  O2  UNL     1     -12.474  -9.590 -10.259  1.00  0.00    -0.391 OA
ATOM     24  H2  UNL     1     -13.063 -10.222  -9.863  1.00  0.00     0.210 HD
ENDBRANCH  20  23
BRANCH  21  25
HETATM   25  O3  UNL     1     -12.334  -8.798  -7.587  1.00  0.00    -0.390 OA
ATOM     26  H3  UNL     1     -13.213  -8.734  -7.944  1.00  0.00     0.210 HD
ENDBRANCH  21  25
BRANCH  22  27
HETATM   27  O4  UNL     1     -10.068  -7.438  -6.845  1.00  0.00    -0.390 OA
ATOM     28  H4  UNL     1      -9.244  -7.259  -6.408  1.00  0.00     0.210 HD
ENDBRANCH  22  27
ENDBRANCH  16  17
ENDBRANCH   1  16
TORSDOF 11
ENDMDL
MODEL 5
REMARK VINA RESULT: -7.940197216      4.139      9.092
REMARK  11 active torsions:
REMARK  status: ('A' for Active; 'I' for Inactive)
REMARK    1  A    between atoms: N2_5  and  C4_6 
REMARK    2  A    between atoms: C4_6  and  C5_7 
REMARK    3  A    between atoms: C5_7  and  C6_8 
REMARK    4  A    between atoms: C6_8  and  C7_9 
REMARK    5  A    between atoms: C7_9  and  C8_10 
REMARK    6  A    between atoms: C8_10  and  N3_11 
REMARK    7  A    between atoms: N3_11  and  C9_14 
REMARK    8  A    between atoms: C9_14  and  C10_15 
REMARK    9  A    between atoms: C12_18  and  O2_19 
REMARK   10  A    between atoms: C13_21  and  O3_22 
REMARK   11  A    between atoms: C14_24  and  O4_25 
ROOT
HETATM    1  N3  UNL     1      -7.440  -6.632  -9.439  1.00  0.00    -0.073 N 
ATOM      2  H31 UNL     1      -8.089  -6.677 -10.224  1.00  0.00     0.277 HD
ATOM      3  H32 UNL     1      -7.507  -5.633  -9.241  1.00  0.00     0.277 HD
ENDROOT
BRANCH   1   4
HETATM    4  C8  UNL     1      -6.119  -7.009  -9.821  1.00  0.00     0.232 C 
BRANCH   4   5
HETATM    5  C7  UNL     1      -5.076  -6.197  -9.138  1.00  0.00     0.028 C 
BRANCH   5   6
HETATM    6  C6  UNL     1      -3.915  -7.031  -8.687  1.00  0.00     0.007 C 
BRANCH   6   7
HETATM    7  C5  UNL     1      -3.786  -7.027  -7.187  1.00  0.00     0.045 C 
BRANCH   7   8
HETATM    8  C4  UNL     1      -4.248  -5.752  -6.596  1.00  0.00     0.068 C 
BRANCH   8   9
HETATM    9  N2  UNL     1      -3.307  -5.054  -5.821  1.00  0.00    -0.351 N 
HETATM   10  C3  UNL     1      -3.675  -4.596  -4.547  1.00  0.00     0.098 C 
HETATM   11  C2  UNL     1      -2.583  -3.656  -4.062  1.00  0.00     0.317 C 
HETATM   12  N1  UNL     1      -1.307  -4.342  -3.995  1.00  0.00     0.093 N 
HETATM   13  C1  UNL     1      -1.299  -5.110  -2.759  1.00  0.00     0.310 C 
HETATM   14  C16 UNL     1      -1.031  -5.153  -5.149  1.00  0.00     0.317 C 
HETATM   15  C15 UNL     1      -2.010  -4.816  -6.268  1.00  0.00     0.098 C 
ENDBRANCH   8   9
ENDBRANCH   7   8
ENDBRANCH   6   7
ENDBRANCH   5   6
ENDBRANCH   4   5
ENDBRANCH   1   4
BRANCH   1  16
HETATM   16  C9  UNL     1      -7.892  -7.426  -8.330  1.00  0.00     0.266 C 
BRANCH  16  17
HETATM   17  C10 UNL     1      -8.943  -8.374  -8.885  1.00  0.00     0.178 C 
HETATM   18  O1  UNL     1      -9.422  -8.015 -10.124  1.00  0.00    -0.379 OA
HETATM   19  C11 UNL     1     -10.184  -9.059 -10.631  1.00  0.00     0.202 C 
HETATM   20  C12 UNL     1     -11.267  -9.520  -9.709  1.00  0.00     0.173 C 
HETATM   21  C13 UNL     1     -11.364  -8.522  -8.574  1.00  0.00     0.180 C 
HETATM   22  C14 UNL     1     -10.019  -8.499  -7.863  1.00  0.00     0.180 C 
BRANCH  20  23
HETATM   23  O2  UNL     1     -12.502  -9.658 -10.295  1.00  0.00    -0.391 OA
ATOM     24  H2  UNL     1     -12.493 -10.065 -11.154  1.00  0.00     0.210 HD
ENDBRANCH  20  23
BRANCH  21  25
HETATM   25  O3  UNL     1     -12.306  -8.898  -7.617  1.00  0.00    -0.390 OA
ATOM     26  H3  UNL     1     -12.044  -9.676  -7.139  1.00  0.00     0.210 HD
ENDBRANCH  21  25
BRANCH  22  27
HETATM   27  O4  UNL     1     -10.053  -7.493  -6.919  1.00  0.00    -0.390 OA
ATOM     28  H4  UNL     1     -10.886  -7.382  -6.477  1.00  0.00     0.210 HD
ENDBRANCH  22  27
ENDBRANCH  16  17
ENDBRANCH   1  16
TORSDOF 11
ENDMDL
