MODEL 1
REMARK VINA RESULT: -8.199764379      0.000      0.000
REMARK  9 active torsions:
REMARK  status: ('A' for Active; 'I' for Inactive)
REMARK    1  A    between atoms: O1_1  and  C1_3 
REMARK    2  A    between atoms: C3_6  and  C4_7 
REMARK    3  A    between atoms: C4_7  and  N1_8 
REMARK    4  A    between atoms: N1_8  and  C5_10 
REMARK    5  A    between atoms: C5_10  and  C6_11 
REMARK    6  A    between atoms: C6_11  and  C7_12 
REMARK    7  A    between atoms: C7_12  and  N2_13 
REMARK    8  A    between atoms: C13_19  and  O3_20 
REMARK    9  A    between atoms: C14_22  and  O4_23 
ROOT
HETATM    1  C1  UNL     1      -1.596  -5.305  -4.723  1.00  0.00     0.173 C 
HETATM    2  C2  UNL     1      -2.589  -4.236  -5.010  1.00  0.00     0.202 C 
HETATM    3  O2  UNL     1      -3.495  -4.596  -5.950  1.00  0.00    -0.379 OA
HETATM    4  C3  UNL     1      -3.034  -5.497  -6.879  1.00  0.00     0.170 C 
HETATM    5  C13 UNL     1      -2.869  -6.844  -6.221  1.00  0.00     0.180 C 
HETATM    6  C14 UNL     1      -2.075  -6.710  -4.945  1.00  0.00     0.180 C 
ENDROOT
BRANCH   4   7
HETATM    7  C4  UNL     1      -4.018  -5.528  -8.040  1.00  0.00     0.148 C 
BRANCH   7   8
HETATM    8  N1  UNL     1      -4.002  -6.763  -8.735  1.00  0.00    -0.419 N 
ATOM      9  H1  UNL     1      -3.184  -7.372  -8.732  1.00  0.00     0.153 HD
BRANCH   8  10
HETATM   10  C5  UNL     1      -5.183  -7.102  -9.431  1.00  0.00     0.115 C 
BRANCH  10  11
HETATM   11  C6  UNL     1      -6.408  -6.829  -8.602  1.00  0.00     0.049 C 
BRANCH  11  12
HETATM   12  C7  UNL     1      -7.642  -7.197  -9.398  1.00  0.00     0.274 C 
BRANCH  12  13
HETATM   13  N2  UNL     1      -7.921  -8.593  -9.396  1.00  0.00     0.088 N 
HETATM   14  C8  UNL     1      -8.074  -9.099 -10.768  1.00  0.00     0.272 C 
HETATM   15  C9  UNL     1      -9.300  -8.572 -11.428  1.00  0.00     0.030 C 
HETATM   16  C10 UNL     1     -10.519  -8.965 -10.621  1.00  0.00     0.003 C 
HETATM   17  C11 UNL     1     -10.360  -8.400  -9.229  1.00  0.00     0.030 C 
HETATM   18  C12 UNL     1      -9.100  -8.959  -8.624  1.00  0.00     0.272 C 
ENDBRANCH  12  13
ENDBRANCH  11  12
ENDBRANCH  10  11
ENDBRANCH   8  10
ENDBRANCH   7   8
ENDBRANCH   4   7
BRANCH   5  19
HETATM   19  O3  UNL     1      -4.089  -7.443  -5.908  1.00  0.00    -0.390 OA
ATOM     20  H3  UNL     1      -4.440  -7.145  -5.077  1.00  0.00     0.210 HD
ENDBRANCH   5  19
BRANCH   6  21
HETATM   21  O4  UNL     1      -0.929  -7.524  -4.982  1.00  0.00    -0.390 OA
ATOM     22  H4  UNL     1      -0.564  -7.439  -5.854  1.00  0.00     0.210 HD
ENDBRANCH   6  21
BRANCH   1  23
HETATM   23  O1  UNL     1      -0.394  -5.048  -5.414  1.00  0.00    -0.391 OA
ATOM     24  H1  UNL     1      -0.206  -5.758  -6.017  1.00  0.00     0.210 HD
ENDBRANCH   1  23
TORSDOF 9
ENDMDL
MODEL 2
REMARK VINA RESULT: -7.689730895      4.240      8.465
REMARK  9 active torsions:
REMARK  status: ('A' for Active; 'I' for Inactive)
REMARK    1  A    between atoms: O1_1  and  C1_3 
REMARK    2  A    between atoms: C3_6  and  C4_7 
REMARK    3  A    between atoms: C4_7  and  N1_8 
REMARK    4  A    between atoms: N1_8  and  C5_10 
REMARK    5  A    between atoms: C5_10  and  C6_11 
REMARK    6  A    between atoms: C6_11  and  C7_12 
REMARK    7  A    between atoms: C7_12  and  N2_13 
REMARK    8  A    between atoms: C13_19  and  O3_20 
REMARK    9  A    between atoms: C14_22  and  O4_23 
ROOT
HETATM    1  C1  UNL     1     -12.210  -9.151 -10.180  1.00  0.00     0.173 C 
HETATM    2  C2  UNL     1     -11.114  -9.163 -11.183  1.00  0.00     0.202 C 
HETATM    3  O2  UNL     1      -9.890  -8.987 -10.631  1.00  0.00    -0.379 OA
HETATM    4  C3  UNL     1      -9.880  -8.236  -9.480  1.00  0.00     0.170 C 
HETATM    5  C13 UNL     1     -10.501  -9.037  -8.363  1.00  0.00     0.180 C 
HETATM    6  C14 UNL     1     -11.829  -9.603  -8.800  1.00  0.00     0.180 C 
ENDROOT
BRANCH   4   7
HETATM    7  C4  UNL     1      -8.441  -7.836  -9.187  1.00  0.00     0.148 C 
BRANCH   7   8
HETATM    8  N1  UNL     1      -8.273  -7.335  -7.872  1.00  0.00    -0.419 N 
ATOM      9  H1  UNL     1      -9.053  -7.264  -7.219  1.00  0.00     0.153 HD
BRANCH   8  10
HETATM   10  C5  UNL     1      -6.964  -6.940  -7.518  1.00  0.00     0.115 C 
BRANCH  10  11
HETATM   11  C6  UNL     1      -5.978  -7.265  -8.606  1.00  0.00     0.049 C 
BRANCH  11  12
HETATM   12  C7  UNL     1      -4.573  -7.043  -8.089  1.00  0.00     0.274 C 
BRANCH  12  13
HETATM   13  N2  UNL     1      -4.373  -5.749  -7.531  1.00  0.00     0.088 N 
HETATM   14  C8  UNL     1      -3.348  -5.007  -8.281  1.00  0.00     0.272 C 
HETATM   15  C9  UNL     1      -1.991  -5.596  -8.109  1.00  0.00     0.030 C 
HETATM   16  C10 UNL     1      -1.621  -5.598  -6.641  1.00  0.00     0.003 C 
HETATM   17  C11 UNL     1      -2.663  -6.399  -5.898  1.00  0.00     0.030 C 
HETATM   18  C12 UNL     1      -4.009  -5.763  -6.121  1.00  0.00     0.272 C 
ENDBRANCH  12  13
ENDBRANCH  11  12
ENDBRANCH  10  11
ENDBRANCH   8  10
ENDBRANCH   7   8
ENDBRANCH   4   7
BRANCH   5  19
HETATM   19  O3  UNL     1      -9.695 -10.098  -7.951  1.00  0.00    -0.390 OA
ATOM     20  H3  UNL     1     -10.188 -10.786  -7.521  1.00  0.00     0.210 HD
ENDBRANCH   5  19
BRANCH   6  21
HETATM   21  O4  UNL     1     -12.859  -9.181  -7.940  1.00  0.00    -0.390 OA
ATOM     22  H4  UNL     1     -12.562  -8.374  -7.537  1.00  0.00     0.210 HD
ENDBRANCH   6  21
BRANCH   1  23
HETATM   23  O1  UNL     1     -12.835  -7.887 -10.160  1.00  0.00    -0.391 OA
ATOM     24  H1  UNL     1     -12.667  -7.428 -10.974  1.00  0.00     0.210 HD
ENDBRANCH   1  23
TORSDOF 9
ENDMDL
MODEL 3
REMARK VINA RESULT: -7.620607591      0.596      1.262
REMARK  9 active torsions:
REMARK  status: ('A' for Active; 'I' for Inactive)
REMARK    1  A    between atoms: O1_1  and  C1_3 
REMARK    2  A    between atoms: C3_6  and  C4_7 
REMARK    3  A    between atoms: C4_7  and  N1_8 
REMARK    4  A    between atoms: N1_8  and  C5_10 
REMARK    5  A    between atoms: C5_10  and  C6_11 
REMARK    6  A    between atoms: C6_11  and  C7_12 
REMARK    7  A    between atoms: C7_12  and  N2_13 
REMARK    8  A    between atoms: C13_19  and  O3_20 
REMARK    9  A    between atoms: C14_22  and  O4_23 
ROOT
HETATM    1  C1  UNL     1      -1.491  -5.361  -4.680  1.00  0.00     0.173 C 
HETATM    2  C2  UNL     1      -2.493  -4.288  -4.913  1.00  0.00     0.202 C 
HETATM    3  O2  UNL     1      -3.425  -4.628  -5.835  1.00  0.00    -0.379 OA
HETATM    4  C3  UNL     1      -2.989  -5.505  -6.799  1.00  0.00     0.170 C 
HETATM    5  C13 UNL     1      -2.803  -6.867  -6.179  1.00  0.00     0.180 C 
HETATM    6  C14 UNL     1      -1.973  -6.762  -4.923  1.00  0.00     0.180 C 
ENDROOT
BRANCH   4   7
HETATM    7  C4  UNL     1      -4.006  -5.510  -7.931  1.00  0.00     0.148 C 
BRANCH   7   8
HETATM    8  N1  UNL     1      -3.930  -6.680  -8.726  1.00  0.00    -0.419 N 
ATOM      9  H1  UNL     1      -3.062  -7.208  -8.827  1.00  0.00     0.153 HD
BRANCH   8  10
HETATM   10  C5  UNL     1      -5.122  -7.075  -9.372  1.00  0.00     0.115 C 
BRANCH  10  11
HETATM   11  C6  UNL     1      -6.258  -7.209  -8.395  1.00  0.00     0.049 C 
BRANCH  11  12
HETATM   12  C7  UNL     1      -7.316  -8.120  -8.981  1.00  0.00     0.274 C 
BRANCH  12  13
HETATM   13  N2  UNL     1      -8.433  -7.419  -9.515  1.00  0.00     0.088 N 
HETATM   14  C8  UNL     1      -9.671  -7.792  -8.814  1.00  0.00     0.272 C 
HETATM   15  C9  UNL     1     -10.069  -9.201  -9.089  1.00  0.00     0.030 C 
HETATM   16  C10 UNL     1     -10.271  -9.389 -10.578  1.00  0.00     0.003 C 
HETATM   17  C11 UNL     1      -8.977  -9.040 -11.274  1.00  0.00     0.030 C 
HETATM   18  C12 UNL     1      -8.623  -7.614 -10.946  1.00  0.00     0.272 C 
ENDBRANCH  12  13
ENDBRANCH  11  12
ENDBRANCH  10  11
ENDBRANCH   8  10
ENDBRANCH   7   8
ENDBRANCH   4   7
BRANCH   5  19
HETATM   19  O3  UNL     1      -4.013  -7.476  -5.846  1.00  0.00    -0.390 OA
ATOM     20  H3  UNL     1      -4.569  -7.622  -6.602  1.00  0.00     0.210 HD
ENDBRANCH   5  19
BRANCH   6  21
HETATM   21  O4  UNL     1      -0.827  -7.571  -5.012  1.00  0.00    -0.390 OA
ATOM     22  H4  UNL     1      -1.100  -8.454  -4.791  1.00  0.00     0.210 HD
ENDBRANCH   6  21
BRANCH   1  23
HETATM   23  O1  UNL     1      -0.310  -5.084  -5.400  1.00  0.00    -0.391 OA
ATOM     24  H1  UNL     1      -0.367  -4.227  -5.803  1.00  0.00     0.210 HD
ENDBRANCH   1  23
TORSDOF 9
ENDMDL
MODEL 4
REMARK VINA RESULT: -7.573478804      1.043      1.784
REMARK  9 active torsions:
REMARK  status: ('A' for Active; 'I' for Inactive)
REMARK    1  A    between atoms: O1_1  and  C1_3 
REMARK    2  A    between atoms: C3_6  and  C4_7 
REMARK    3  A    between atoms: C4_7  and  N1_8 
REMARK    4  A    between atoms: N1_8  and  C5_10 
REMARK    5  A    between atoms: C5_10  and  C6_11 
REMARK    6  A    between atoms: C6_11  and  C7_12 
REMARK    7  A    between atoms: C7_12  and  N2_13 
REMARK    8  A    between atoms: C13_19  and  O3_20 
REMARK    9  A    between atoms: C14_22  and  O4_23 
ROOT
HETATM    1  C1  UNL     1      -1.563  -6.583  -4.516  1.00  0.00     0.173 C 
HETATM    2  C2  UNL     1      -2.267  -7.662  -5.256  1.00  0.00     0.202 C 
HETATM    3  O2  UNL     1      -2.912  -7.213  -6.359  1.00  0.00    -0.379 OA
HETATM    4  C3  UNL     1      -3.350  -5.913  -6.279  1.00  0.00     0.170 C 
HETATM    5  C13 UNL     1      -2.162  -4.987  -6.340  1.00  0.00     0.180 C 
HETATM    6  C14 UNL     1      -1.111  -5.417  -5.346  1.00  0.00     0.180 C 
ENDROOT
BRANCH   4   7
HETATM    7  C4  UNL     1      -4.338  -5.675  -7.413  1.00  0.00     0.148 C 
BRANCH   7   8
HETATM    8  N1  UNL     1      -4.045  -6.450  -8.562  1.00  0.00    -0.419 N 
ATOM      9  H1  UNL     1      -3.088  -6.689  -8.821  1.00  0.00     0.153 HD
BRANCH   8  10
HETATM   10  C5  UNL     1      -5.153  -6.872  -9.330  1.00  0.00     0.115 C 
BRANCH  10  11
HETATM   11  C6  UNL     1      -6.426  -6.823  -8.530  1.00  0.00     0.049 C 
BRANCH  11  12
HETATM   12  C7  UNL     1      -7.591  -7.196  -9.421  1.00  0.00     0.274 C 
BRANCH  12  13
HETATM   13  N2  UNL     1      -7.893  -8.587  -9.403  1.00  0.00     0.088 N 
HETATM   14  C8  UNL     1      -8.065  -9.104 -10.769  1.00  0.00     0.272 C 
HETATM   15  C9  UNL     1      -9.287  -8.563 -11.426  1.00  0.00     0.030 C 
HETATM   16  C10 UNL     1     -10.507  -8.927 -10.606  1.00  0.00     0.003 C 
HETATM   17  C11 UNL     1     -10.328  -8.351  -9.221  1.00  0.00     0.030 C 
HETATM   18  C12 UNL     1      -9.073  -8.925  -8.619  1.00  0.00     0.272 C 
ENDBRANCH  12  13
ENDBRANCH  11  12
ENDBRANCH  10  11
ENDBRANCH   8  10
ENDBRANCH   7   8
ENDBRANCH   4   7
BRANCH   5  19
HETATM   19  O3  UNL     1      -1.571  -4.953  -7.604  1.00  0.00    -0.390 OA
ATOM     20  H3  UNL     1      -1.440  -4.068  -7.922  1.00  0.00     0.210 HD
ENDBRANCH   5  19
BRANCH   6  21
HETATM   21  O4  UNL     1      -0.816  -4.375  -4.449  1.00  0.00    -0.390 OA
ATOM     22  H4  UNL     1       0.054  -4.548  -4.109  1.00  0.00     0.210 HD
ENDBRANCH   6  21
BRANCH   1  23
HETATM   23  O1  UNL     1      -2.337  -6.168  -3.412  1.00  0.00    -0.391 OA
ATOM     24  H1  UNL     1      -2.210  -6.763  -2.683  1.00  0.00     0.210 HD
ENDBRANCH   1  23
TORSDOF 9
ENDMDL
MODEL 5
REMARK VINA RESULT: -7.543236128      1.196      2.139
REMARK  9 active torsions:
REMARK  status: ('A' for Active; 'I' for Inactive)
REMARK    1  A    between atoms: O1_1  and  C1_3 
REMARK    2  A    between atoms: C3_6  and  C4_7 
REMARK    3  A    between atoms: C4_7  and  N1_8 
REMARK    4  A    between atoms: N1_8  and  C5_10 
REMARK    5  A    between atoms: C5_10  and  C6_11 
REMARK    6  A    between atoms: C6_11  and  C7_12 
REMARK    7  A    between atoms: C7_12  and  N2_13 
REMARK    8  A    between atoms: C13_19  and  O3_20 
REMARK    9  A    between atoms: C14_22  and  O4_23 
ROOT
HETATM    1  C1  UNL     1      -2.506  -4.388  -4.248  1.00  0.00     0.173 C 
HETATM    2  C2  UNL     1      -2.204  -5.833  -4.072  1.00  0.00     0.202 C 
HETATM    3  O2  UNL     1      -2.310  -6.539  -5.223  1.00  0.00    -0.379 OA
HETATM    4  C3  UNL     1      -3.222  -6.040  -6.122  1.00  0.00     0.170 C 
HETATM    5  C13 UNL     1      -2.686  -4.760  -6.711  1.00  0.00     0.180 C 
HETATM    6  C14 UNL     1      -2.228  -3.830  -5.614  1.00  0.00     0.180 C 
ENDROOT
BRANCH   4   7
HETATM    7  C4  UNL     1      -3.482  -7.108  -7.176  1.00  0.00     0.148 C 
BRANCH   7   8
HETATM    8  N1  UNL     1      -4.170  -6.600  -8.306  1.00  0.00    -0.419 N 
ATOM      9  H1  UNL     1      -3.698  -6.045  -9.019  1.00  0.00     0.153 HD
BRANCH   8  10
HETATM   10  C5  UNL     1      -5.546  -6.908  -8.388  1.00  0.00     0.115 C 
BRANCH  10  11
HETATM   11  C6  UNL     1      -6.047  -6.813  -9.803  1.00  0.00     0.049 C 
BRANCH  11  12
HETATM   12  C7  UNL     1      -7.528  -7.125  -9.830  1.00  0.00     0.274 C 
BRANCH  12  13
HETATM   13  N2  UNL     1      -7.817  -8.508  -9.661  1.00  0.00     0.088 N 
HETATM   14  C8  UNL     1      -8.212  -9.122 -10.938  1.00  0.00     0.272 C 
HETATM   15  C9  UNL     1      -9.528  -8.620 -11.420  1.00  0.00     0.030 C 
HETATM   16  C10 UNL     1     -10.593  -8.914 -10.384  1.00  0.00     0.003 C 
HETATM   17  C11 UNL     1     -10.189  -8.241  -9.094  1.00  0.00     0.030 C 
HETATM   18  C12 UNL     1      -8.848  -8.779  -8.669  1.00  0.00     0.272 C 
ENDBRANCH  12  13
ENDBRANCH  11  12
ENDBRANCH  10  11
ENDBRANCH   8  10
ENDBRANCH   7   8
ENDBRANCH   4   7
BRANCH   5  19
HETATM   19  O3  UNL     1      -1.610  -4.974  -7.572  1.00  0.00    -0.390 OA
ATOM     20  H3  UNL     1      -0.948  -5.541  -7.195  1.00  0.00     0.210 HD
ENDBRANCH   5  19
BRANCH   6  21
HETATM   21  O4  UNL     1      -2.902  -2.598  -5.689  1.00  0.00    -0.390 OA
ATOM     22  H4  UNL     1      -3.014  -2.407  -6.613  1.00  0.00     0.210 HD
ENDBRANCH   6  21
BRANCH   1  23
HETATM   23  O1  UNL     1      -3.826  -4.115  -3.832  1.00  0.00    -0.391 OA
ATOM     24  H1  UNL     1      -4.169  -4.848  -3.335  1.00  0.00     0.210 HD
ENDBRANCH   1  23
TORSDOF 9
ENDMDL
