MODEL 1
REMARK VINA RESULT: -5.662754090      0.000      0.000
REMARK  7 active torsions:
REMARK  status: ('A' for Active; 'I' for Inactive)
REMARK    1  A    between atoms: O1_2  and  C2_3 
REMARK    2  A    between atoms: C2_3  and  C3_4 
REMARK    3  A    between atoms: C3_4  and  N1_5 
REMARK    4  A    between atoms: N1_5  and  C4_7 
REMARK    5  A    between atoms: C4_7  and  C9_14 
REMARK    6  A    between atoms: N2_8  and  C5_10 
REMARK    7  A    between atoms: N3_17  and  C12_18 
ROOT
HETATM    1  C4  UNL     1       1.055  -7.952   3.651  1.00  0.00     0.107 C 
HETATM    2  N2  UNL     1       0.890  -9.152   3.966  1.00  0.00    -0.370 N 
ATOM      3  H2  UNL     1       0.244  -9.258   4.749  1.00  0.00     0.161 HD
ENDROOT
BRANCH   1   4
HETATM    4  N1  UNL     1       1.916  -7.605   2.583  1.00  0.00    -0.376 N 
ATOM      5  H1  UNL     1       2.894  -7.370   2.755  1.00  0.00     0.160 HD
BRANCH   4   6
HETATM    6  C3  UNL     1       1.372  -7.593   1.238  1.00  0.00     0.147 C 
BRANCH   6   7
HETATM    7  C2  UNL     1       1.965  -6.536   0.351  1.00  0.00     0.186 C 
BRANCH   7   8
HETATM    8  O1  UNL     1       2.718  -5.608   1.044  1.00  0.00    -0.394 OA
HETATM    9  C1  UNL     1       2.716  -4.368   0.442  1.00  0.00     0.201 C 
ENDBRANCH   7   8
ENDBRANCH   6   7
ENDBRANCH   4   6
ENDBRANCH   1   4
BRANCH   1  10
HETATM   10  C9  UNL     1       0.388  -6.860   4.347  1.00  0.00     0.291 C 
HETATM   11  C10 UNL     1       0.566  -5.471   3.742  1.00  0.00     0.074 C 
HETATM   12  C11 UNL     1       0.297  -5.064   5.205  1.00  0.00     0.276 C 
HETATM   13  N3  UNL     1       0.918  -6.353   5.575  1.00  0.00     0.105 N 
BRANCH  13  14
HETATM   14  C12 UNL     1       2.291  -6.153   5.770  1.00  0.00     0.228 C 
HETATM   15  C13 UNL     1       2.473  -5.301   7.034  1.00  0.00     0.062 C 
HETATM   16  C14 UNL     1       3.528  -5.909   7.930  1.00  0.00     0.169 C 
HETATM   17  O2  UNL     1       4.727  -6.169   7.336  1.00  0.00    -0.391 OA
HETATM   18  C15 UNL     1       4.565  -6.828   6.145  1.00  0.00     0.169 C 
HETATM   19  C16 UNL     1       3.134  -7.377   6.010  1.00  0.00     0.062 C 
ENDBRANCH  13  14
ENDBRANCH   1  10
BRANCH   2  20
HETATM   20  C5  UNL     1       1.370 -10.382   3.512  1.00  0.00     0.020 C 
HETATM   21  C6  UNL     1       0.549 -10.966   2.352  1.00  0.00     0.037 C 
HETATM   22  C7  UNL     1       1.185 -11.382   4.668  1.00  0.00     0.037 C 
HETATM   23  C8  UNL     1       2.799 -10.488   3.103  1.00  0.00     0.037 C 
ENDBRANCH   2  20
TORSDOF 7
ENDMDL
MODEL 2
REMARK VINA RESULT: -5.564154004      1.193      1.496
REMARK  7 active torsions:
REMARK  status: ('A' for Active; 'I' for Inactive)
REMARK    1  A    between atoms: O1_2  and  C2_3 
REMARK    2  A    between atoms: C2_3  and  C3_4 
REMARK    3  A    between atoms: C3_4  and  N1_5 
REMARK    4  A    between atoms: N1_5  and  C4_7 
REMARK    5  A    between atoms: C4_7  and  C9_14 
REMARK    6  A    between atoms: N2_8  and  C5_10 
REMARK    7  A    between atoms: N3_17  and  C12_18 
ROOT
HETATM    1  C4  UNL     1       1.033  -7.958   3.614  1.00  0.00     0.107 C 
HETATM    2  N2  UNL     1       0.868  -9.151   3.953  1.00  0.00    -0.370 N 
ATOM      3  H2  UNL     1       0.229  -9.241   4.743  1.00  0.00     0.161 HD
ENDROOT
BRANCH   1   4
HETATM    4  N1  UNL     1       1.885  -7.632   2.532  1.00  0.00    -0.376 N 
ATOM      5  H1  UNL     1       2.874  -7.435   2.686  1.00  0.00     0.160 HD
BRANCH   4   6
HETATM    6  C3  UNL     1       1.315  -7.587   1.198  1.00  0.00     0.147 C 
BRANCH   6   7
HETATM    7  C2  UNL     1       2.295  -7.908   0.107  1.00  0.00     0.186 C 
BRANCH   7   8
HETATM    8  O1  UNL     1       2.358  -9.258  -0.184  1.00  0.00    -0.394 OA
HETATM    9  C1  UNL     1       3.649  -9.696  -0.387  1.00  0.00     0.201 C 
ENDBRANCH   7   8
ENDBRANCH   6   7
ENDBRANCH   4   6
ENDBRANCH   1   4
BRANCH   1  10
HETATM   10  C9  UNL     1       0.374  -6.851   4.295  1.00  0.00     0.291 C 
HETATM   11  C10 UNL     1       0.566  -5.471   3.674  1.00  0.00     0.074 C 
HETATM   12  C11 UNL     1       0.297  -5.044   5.130  1.00  0.00     0.276 C 
HETATM   13  N3  UNL     1       0.905  -6.334   5.518  1.00  0.00     0.105 N 
BRANCH  13  14
HETATM   14  C12 UNL     1       2.280  -6.144   5.714  1.00  0.00     0.228 C 
HETATM   15  C13 UNL     1       2.467  -5.281   6.970  1.00  0.00     0.062 C 
HETATM   16  C14 UNL     1       3.515  -5.889   7.874  1.00  0.00     0.169 C 
HETATM   17  O2  UNL     1       4.712  -6.165   7.285  1.00  0.00    -0.391 OA
HETATM   18  C15 UNL     1       4.547  -6.834   6.099  1.00  0.00     0.169 C 
HETATM   19  C16 UNL     1       3.112  -7.372   5.967  1.00  0.00     0.062 C 
ENDBRANCH  13  14
ENDBRANCH   1  10
BRANCH   2  20
HETATM   20  C5  UNL     1       1.343 -10.390   3.518  1.00  0.00     0.020 C 
HETATM   21  C6  UNL     1       0.539 -10.973   2.346  1.00  0.00     0.037 C 
HETATM   22  C7  UNL     1       1.120 -11.379   4.677  1.00  0.00     0.037 C 
HETATM   23  C8  UNL     1       2.778 -10.517   3.142  1.00  0.00     0.037 C 
ENDBRANCH   2  20
TORSDOF 7
ENDMDL
MODEL 3
REMARK VINA RESULT: -5.336353181      1.896      4.119
REMARK  7 active torsions:
REMARK  status: ('A' for Active; 'I' for Inactive)
REMARK    1  A    between atoms: O1_2  and  C2_3 
REMARK    2  A    between atoms: C2_3  and  C3_4 
REMARK    3  A    between atoms: C3_4  and  N1_5 
REMARK    4  A    between atoms: N1_5  and  C4_7 
REMARK    5  A    between atoms: C4_7  and  C9_14 
REMARK    6  A    between atoms: N2_8  and  C5_10 
REMARK    7  A    between atoms: N3_17  and  C12_18 
ROOT
HETATM    1  C4  UNL     1       1.529  -6.172   4.434  1.00  0.00     0.107 C 
HETATM    2  N2  UNL     1       1.290  -5.266   3.604  1.00  0.00    -0.370 N 
ATOM      3  H2  UNL     1       0.750  -4.503   4.013  1.00  0.00     0.161 HD
ENDROOT
BRANCH   1   4
HETATM    4  N1  UNL     1       2.270  -7.315   4.052  1.00  0.00    -0.376 N 
ATOM      5  H1  UNL     1       3.266  -7.248   3.842  1.00  0.00     0.160 HD
BRANCH   4   6
HETATM    6  C3  UNL     1       1.575  -8.587   3.968  1.00  0.00     0.147 C 
BRANCH   6   7
HETATM    7  C2  UNL     1       2.381  -9.680   3.327  1.00  0.00     0.186 C 
BRANCH   7   8
HETATM    8  O1  UNL     1       2.814 -10.633   4.229  1.00  0.00    -0.394 OA
HETATM    9  C1  UNL     1       1.781 -11.389   4.739  1.00  0.00     0.201 C 
ENDBRANCH   7   8
ENDBRANCH   6   7
ENDBRANCH   4   6
ENDBRANCH   1   4
BRANCH   1  10
HETATM   10  C9  UNL     1       1.070  -6.110   5.816  1.00  0.00     0.291 C 
HETATM   11  C10 UNL     1       1.027  -4.721   6.445  1.00  0.00     0.074 C 
HETATM   12  C11 UNL     1       1.191  -5.562   7.727  1.00  0.00     0.276 C 
HETATM   13  N3  UNL     1       1.925  -6.528   6.883  1.00  0.00     0.105 N 
BRANCH  13  14
HETATM   14  C12 UNL     1       3.289  -6.210   6.916  1.00  0.00     0.228 C 
HETATM   15  C13 UNL     1       3.716  -6.094   8.385  1.00  0.00     0.062 C 
HETATM   16  C14 UNL     1       4.992  -6.868   8.625  1.00  0.00     0.169 C 
HETATM   17  O2  UNL     1       6.026  -6.573   7.789  1.00  0.00    -0.391 OA
HETATM   18  C15 UNL     1       5.624  -6.558   6.478  1.00  0.00     0.169 C 
HETATM   19  C16 UNL     1       4.241  -7.212   6.320  1.00  0.00     0.062 C 
ENDBRANCH  13  14
ENDBRANCH   1  10
BRANCH   2  20
HETATM   20  C5  UNL     1       1.578  -5.042   2.257  1.00  0.00     0.020 C 
HETATM   21  C6  UNL     1       3.055  -4.707   1.997  1.00  0.00     0.037 C 
HETATM   22  C7  UNL     1       0.809  -3.773   1.846  1.00  0.00     0.037 C 
HETATM   23  C8  UNL     1       1.208  -6.085   1.260  1.00  0.00     0.037 C 
ENDBRANCH   2  20
TORSDOF 7
ENDMDL
MODEL 4
REMARK VINA RESULT: -5.309672192      1.987      2.932
REMARK  7 active torsions:
REMARK  status: ('A' for Active; 'I' for Inactive)
REMARK    1  A    between atoms: O1_2  and  C2_3 
REMARK    2  A    between atoms: C2_3  and  C3_4 
REMARK    3  A    between atoms: C3_4  and  N1_5 
REMARK    4  A    between atoms: N1_5  and  C4_7 
REMARK    5  A    between atoms: C4_7  and  C9_14 
REMARK    6  A    between atoms: N2_8  and  C5_10 
REMARK    7  A    between atoms: N3_17  and  C12_18 
ROOT
HETATM    1  C4  UNL     1       1.285  -6.131   4.509  1.00  0.00     0.107 C 
HETATM    2  N2  UNL     1       1.140  -7.224   3.917  1.00  0.00    -0.370 N 
ATOM      3  H2  UNL     1       0.737  -7.939   4.523  1.00  0.00     0.161 HD
ENDROOT
BRANCH   1   4
HETATM    4  N1  UNL     1       1.829  -5.016   3.829  1.00  0.00    -0.376 N 
ATOM      5  H1  UNL     1       2.839  -4.885   3.762  1.00  0.00     0.160 HD
BRANCH   4   6
HETATM    6  C3  UNL     1       0.913  -4.062   3.231  1.00  0.00     0.147 C 
BRANCH   6   7
HETATM    7  C2  UNL     1       1.542  -2.739   2.899  1.00  0.00     0.186 C 
BRANCH   7   8
HETATM    8  O1  UNL     1       2.139  -2.135   3.990  1.00  0.00    -0.394 OA
HETATM    9  C1  UNL     1       1.342  -1.168   4.562  1.00  0.00     0.201 C 
ENDBRANCH   7   8
ENDBRANCH   6   7
ENDBRANCH   4   6
ENDBRANCH   1   4
BRANCH   1  10
HETATM   10  C9  UNL     1       0.914  -5.941   5.905  1.00  0.00     0.291 C 
HETATM   11  C10 UNL     1       0.997  -4.512   6.432  1.00  0.00     0.074 C 
HETATM   12  C11 UNL     1       1.182  -5.270   7.761  1.00  0.00     0.276 C 
HETATM   13  N3  UNL     1       1.803  -6.340   6.952  1.00  0.00     0.105 N 
BRANCH  13  14
HETATM   14  C12 UNL     1       3.184  -6.113   6.886  1.00  0.00     0.228 C 
HETATM   15  C13 UNL     1       3.727  -6.066   8.321  1.00  0.00     0.062 C 
HETATM   16  C14 UNL     1       4.962  -6.930   8.444  1.00  0.00     0.169 C 
HETATM   17  O2  UNL     1       5.948  -6.679   7.537  1.00  0.00    -0.391 OA
HETATM   18  C15 UNL     1       5.450  -6.603   6.262  1.00  0.00     0.169 C 
HETATM   19  C16 UNL     1       4.017  -7.160   6.196  1.00  0.00     0.062 C 
ENDBRANCH  13  14
ENDBRANCH   1  10
BRANCH   2  20
HETATM   20  C5  UNL     1       1.394  -7.707   2.632  1.00  0.00     0.020 C 
HETATM   21  C6  UNL     1       0.119  -8.064   1.853  1.00  0.00     0.037 C 
HETATM   22  C7  UNL     1       2.137  -9.045   2.802  1.00  0.00     0.037 C 
HETATM   23  C8  UNL     1       2.229  -6.890   1.708  1.00  0.00     0.037 C 
ENDBRANCH   2  20
TORSDOF 7
ENDMDL
MODEL 5
REMARK VINA RESULT: -5.209847366      1.749      6.182
REMARK  7 active torsions:
REMARK  status: ('A' for Active; 'I' for Inactive)
REMARK    1  A    between atoms: O1_2  and  C2_3 
REMARK    2  A    between atoms: C2_3  and  C3_4 
REMARK    3  A    between atoms: C3_4  and  N1_5 
REMARK    4  A    between atoms: N1_5  and  C4_7 
REMARK    5  A    between atoms: C4_7  and  C9_14 
REMARK    6  A    between atoms: N2_8  and  C5_10 
REMARK    7  A    between atoms: N3_17  and  C12_18 
ROOT
HETATM    1  C4  UNL     1       1.884  -7.321   4.198  1.00  0.00     0.107 C 
HETATM    2  N2  UNL     1       1.298  -6.228   4.023  1.00  0.00    -0.370 N 
ATOM      3  H2  UNL     1       0.341  -6.354   3.696  1.00  0.00     0.161 HD
ENDROOT
BRANCH   1   4
HETATM    4  N1  UNL     1       3.223  -7.351   4.653  1.00  0.00    -0.376 N 
ATOM      5  H1  UNL     1       3.998  -7.415   3.994  1.00  0.00     0.160 HD
BRANCH   4   6
HETATM    6  C3  UNL     1       3.463  -7.287   6.083  1.00  0.00     0.147 C 
BRANCH   6   7
HETATM    7  C2  UNL     1       4.627  -6.419   6.467  1.00  0.00     0.186 C 
BRANCH   7   8
HETATM    8  O1  UNL     1       5.828  -7.103   6.491  1.00  0.00    -0.394 OA
HETATM    9  C1  UNL     1       6.396  -7.133   7.745  1.00  0.00     0.201 C 
ENDBRANCH   7   8
ENDBRANCH   6   7
ENDBRANCH   4   6
ENDBRANCH   1   4
BRANCH   1  10
HETATM   10  C9  UNL     1       1.239  -8.603   3.947  1.00  0.00     0.291 C 
HETATM   11  C10 UNL     1       2.148  -9.828   3.983  1.00  0.00     0.074 C 
HETATM   12  C11 UNL     1       1.045 -10.374   3.055  1.00  0.00     0.276 C 
HETATM   13  N3  UNL     1       0.853  -8.974   2.621  1.00  0.00     0.105 N 
BRANCH  13  14
HETATM   14  C12 UNL     1       1.671  -8.730   1.510  1.00  0.00     0.228 C 
HETATM   15  C13 UNL     1       1.325  -9.762   0.427  1.00  0.00     0.062 C 
HETATM   16  C14 UNL     1       1.141  -9.080  -0.910  1.00  0.00     0.169 C 
HETATM   17  O2  UNL     1       2.168  -8.278  -1.307  1.00  0.00    -0.391 OA
HETATM   18  C15 UNL     1       2.563  -7.432  -0.303  1.00  0.00     0.169 C 
HETATM   19  C16 UNL     1       1.521  -7.396   0.828  1.00  0.00     0.062 C 
ENDBRANCH  13  14
ENDBRANCH   1  10
BRANCH   2  20
HETATM   20  C5  UNL     1       1.632  -4.880   4.166  1.00  0.00     0.020 C 
HETATM   21  C6  UNL     1       1.585  -4.391   5.621  1.00  0.00     0.037 C 
HETATM   22  C7  UNL     1       0.535  -4.075   3.444  1.00  0.00     0.037 C 
HETATM   23  C8  UNL     1       2.927  -4.398   3.608  1.00  0.00     0.037 C 
ENDBRANCH   2  20
TORSDOF 7
ENDMDL
