MODEL 1
REMARK VINA RESULT: -6.543847095      0.000      0.000
REMARK  7 active torsions:
REMARK  status: ('A' for Active; 'I' for Inactive)
REMARK    1  A    between atoms: N1_2  and  C2_3 
REMARK       I    between atoms: N1_2  and  C9_15 
REMARK    2  A    between atoms: C2_3  and  C3_4 
REMARK    3  A    between atoms: C3_4  and  N2_5 
REMARK    4  A    between atoms: C3_4  and  C4_9 
REMARK    5  A    between atoms: C4_9  and  O1_10 
REMARK    6  A    between atoms: O1_10  and  C5_11 
REMARK    7  A    between atoms: C9_15  and  C10_17 
ROOT
HETATM    1  C2  UNL     1       6.732  -6.890   8.611  1.00  0.00     0.160 C 
ENDROOT
BRANCH   1   2
HETATM    2  N1  UNL     1       6.712  -7.719   9.753  1.00  0.00    -0.353 N 
HETATM    3  C1  UNL     1       5.449  -7.901  10.528  1.00  0.00     0.152 C 
HETATM    4  C9  UNL     1       7.802  -8.485  10.150  1.00  0.00     0.234 C 
HETATM    5  O2  UNL     1       7.600  -9.398  11.043  1.00  0.00    -0.272 OA
BRANCH   4   6
HETATM    6  C10 UNL     1       9.164  -8.301   9.621  1.00  0.00     0.148 C 
HETATM    7  C11 UNL     1      10.109  -8.509  10.798  1.00  0.00     0.098 C 
HETATM    8  S1  UNL     1      11.823  -8.565  10.275  1.00  0.00    -0.167 SA
HETATM    9  C12 UNL     1      11.992  -9.981   9.128  1.00  0.00     0.084 C 
HETATM   10  C13 UNL     1      11.206  -9.628   7.883  1.00  0.00     0.085 C 
HETATM   11  S2  UNL     1       9.454  -9.551   8.338  1.00  0.00    -0.153 SA
ENDBRANCH   4   6
ENDBRANCH   1   2
BRANCH   1  12
HETATM   12  C3  UNL     1       5.585  -7.092   7.627  1.00  0.00     0.225 C 
BRANCH  12  13
HETATM   13  N2  UNL     1       6.072  -6.765   6.275  1.00  0.00    -0.071 N 
ATOM     14  H23 UNL     1       5.819  -5.820   5.984  1.00  0.00     0.274 HD
ATOM     15  H22 UNL     1       7.086  -6.654   6.239  1.00  0.00     0.274 HD
ATOM     16  H21 UNL     1       5.733  -7.480   5.631  1.00  0.00     0.274 HD
ENDBRANCH  12  13
BRANCH  12  17
HETATM   17  C4  UNL     1       4.411  -6.303   8.001  1.00  0.00     0.203 C 
BRANCH  17  18
HETATM   18  O1  UNL     1       3.849  -5.572   7.031  1.00  0.00    -0.379 OA
BRANCH  18  19
HETATM   19  C5  UNL     1       2.567  -5.619   6.659  1.00  0.00     0.050 C 
HETATM   20  C6  UNL     1       1.464  -5.538   7.647  1.00  0.00     0.045 C 
HETATM   21  C7  UNL     1       2.382  -6.944   5.857  1.00  0.00     0.045 C 
HETATM   22  C8  UNL     1       2.360  -4.461   5.654  1.00  0.00     0.045 C 
ENDBRANCH  18  19
ENDBRANCH  17  18
ENDBRANCH  12  17
ENDBRANCH   1  12
TORSDOF 7
ENDMDL
MODEL 2
REMARK VINA RESULT: -6.418575154      3.874      7.825
REMARK  7 active torsions:
REMARK  status: ('A' for Active; 'I' for Inactive)
REMARK    1  A    between atoms: N1_2  and  C2_3 
REMARK       I    between atoms: N1_2  and  C9_15 
REMARK    2  A    between atoms: C2_3  and  C3_4 
REMARK    3  A    between atoms: C3_4  and  N2_5 
REMARK    4  A    between atoms: C3_4  and  C4_9 
REMARK    5  A    between atoms: C4_9  and  O1_10 
REMARK    6  A    between atoms: O1_10  and  C5_11 
REMARK    7  A    between atoms: C9_15  and  C10_17 
ROOT
HETATM    1  C2  UNL     1       4.309  -7.082   7.417  1.00  0.00     0.160 C 
ENDROOT
BRANCH   1   2
HETATM    2  N1  UNL     1       3.356  -6.041   7.436  1.00  0.00    -0.353 N 
HETATM    3  C1  UNL     1       2.997  -5.373   8.722  1.00  0.00     0.152 C 
HETATM    4  C9  UNL     1       2.794  -5.510   6.280  1.00  0.00     0.234 C 
HETATM    5  O2  UNL     1       2.141  -4.400   6.386  1.00  0.00    -0.272 OA
BRANCH   4   6
HETATM    6  C10 UNL     1       2.892  -6.151   4.958  1.00  0.00     0.148 C 
HETATM    7  C11 UNL     1       1.736  -7.140   4.878  1.00  0.00     0.098 C 
HETATM    8  S1  UNL     1       1.560  -7.829   3.232  1.00  0.00    -0.167 SA
HETATM    9  C12 UNL     1       1.221  -6.436   2.096  1.00  0.00     0.084 C 
HETATM   10  C13 UNL     1       2.481  -5.600   2.046  1.00  0.00     0.085 C 
HETATM   11  S2  UNL     1       2.726  -4.867   3.686  1.00  0.00    -0.153 SA
ENDBRANCH   4   6
ENDBRANCH   1   2
BRANCH   1  12
HETATM   12  C3  UNL     1       5.700  -6.715   7.922  1.00  0.00     0.225 C 
BRANCH  12  13
HETATM   13  N2  UNL     1       6.685  -7.129   6.906  1.00  0.00    -0.071 N 
ATOM     14  H23 UNL     1       6.343  -7.884   6.312  1.00  0.00     0.274 HD
ATOM     15  H22 UNL     1       6.816  -6.427   6.178  1.00  0.00     0.274 HD
ATOM     16  H21 UNL     1       7.555  -7.367   7.383  1.00  0.00     0.274 HD
ENDBRANCH  12  13
BRANCH  12  17
HETATM   17  C4  UNL     1       5.970  -7.306   9.233  1.00  0.00     0.203 C 
BRANCH  17  18
HETATM   18  O1  UNL     1       7.172  -7.055   9.765  1.00  0.00    -0.379 OA
BRANCH  18  19
HETATM   19  C5  UNL     1       8.050  -7.971  10.182  1.00  0.00     0.050 C 
HETATM   20  C6  UNL     1       8.674  -7.899  11.526  1.00  0.00     0.045 C 
HETATM   21  C7  UNL     1       9.202  -7.997   9.131  1.00  0.00     0.045 C 
HETATM   22  C8  UNL     1       7.335  -9.339  10.088  1.00  0.00     0.045 C 
ENDBRANCH  18  19
ENDBRANCH  17  18
ENDBRANCH  12  17
ENDBRANCH   1  12
TORSDOF 7
ENDMDL
MODEL 3
REMARK VINA RESULT: -6.385020244      1.607      2.029
REMARK  7 active torsions:
REMARK  status: ('A' for Active; 'I' for Inactive)
REMARK    1  A    between atoms: N1_2  and  C2_3 
REMARK       I    between atoms: N1_2  and  C9_15 
REMARK    2  A    between atoms: C2_3  and  C3_4 
REMARK    3  A    between atoms: C3_4  and  N2_5 
REMARK    4  A    between atoms: C3_4  and  C4_9 
REMARK    5  A    between atoms: C4_9  and  O1_10 
REMARK    6  A    between atoms: O1_10  and  C5_11 
REMARK    7  A    between atoms: C9_15  and  C10_17 
ROOT
HETATM    1  C2  UNL     1       7.840  -8.496   8.460  1.00  0.00     0.160 C 
ENDROOT
BRANCH   1   2
HETATM    2  N1  UNL     1       7.965  -8.750   9.844  1.00  0.00    -0.353 N 
HETATM    3  C1  UNL     1       6.751  -8.809  10.710  1.00  0.00     0.152 C 
HETATM    4  C9  UNL     1       9.178  -9.065  10.448  1.00  0.00     0.234 C 
HETATM    5  O2  UNL     1       9.143  -9.531  11.653  1.00  0.00    -0.272 OA
BRANCH   4   6
HETATM    6  C10 UNL     1      10.484  -8.881   9.795  1.00  0.00     0.148 C 
HETATM    7  C11 UNL     1      11.455  -8.473  10.897  1.00  0.00     0.098 C 
HETATM    8  S1  UNL     1      13.152  -8.450  10.316  1.00  0.00    -0.167 SA
HETATM    9  C12 UNL     1      13.560 -10.148   9.773  1.00  0.00     0.084 C 
HETATM   10  C13 UNL     1      12.721 -10.425   8.544  1.00  0.00     0.085 C 
HETATM   11  S2  UNL     1      10.983 -10.461   9.056  1.00  0.00    -0.153 SA
ENDBRANCH   4   6
ENDBRANCH   1   2
BRANCH   1  12
HETATM   12  C3  UNL     1       7.367  -7.097   8.085  1.00  0.00     0.225 C 
BRANCH  12  13
HETATM   13  N2  UNL     1       7.291  -6.289   9.316  1.00  0.00    -0.071 N 
ATOM     14  H23 UNL     1       6.330  -6.101   9.604  1.00  0.00     0.274 HD
ATOM     15  H22 UNL     1       7.586  -6.806  10.144  1.00  0.00     0.274 HD
ATOM     16  H21 UNL     1       7.832  -5.436   9.172  1.00  0.00     0.274 HD
ENDBRANCH  12  13
BRANCH  12  17
HETATM   17  C4  UNL     1       6.093  -7.135   7.365  1.00  0.00     0.203 C 
BRANCH  17  18
HETATM   18  O1  UNL     1       5.177  -6.229   7.726  1.00  0.00    -0.379 OA
BRANCH  18  19
HETATM   19  C5  UNL     1       3.861  -6.440   7.819  1.00  0.00     0.050 C 
HETATM   20  C6  UNL     1       2.898  -5.320   7.957  1.00  0.00     0.045 C 
HETATM   21  C7  UNL     1       3.646  -7.395   9.033  1.00  0.00     0.045 C 
HETATM   22  C8  UNL     1       3.454  -7.233   6.555  1.00  0.00     0.045 C 
ENDBRANCH  18  19
ENDBRANCH  17  18
ENDBRANCH  12  17
ENDBRANCH   1  12
TORSDOF 7
ENDMDL
MODEL 4
REMARK VINA RESULT: -6.338581610      3.529      7.673
REMARK  7 active torsions:
REMARK  status: ('A' for Active; 'I' for Inactive)
REMARK    1  A    between atoms: N1_2  and  C2_3 
REMARK       I    between atoms: N1_2  and  C9_15 
REMARK    2  A    between atoms: C2_3  and  C3_4 
REMARK    3  A    between atoms: C3_4  and  N2_5 
REMARK    4  A    between atoms: C3_4  and  C4_9 
REMARK    5  A    between atoms: C4_9  and  O1_10 
REMARK    6  A    between atoms: O1_10  and  C5_11 
REMARK    7  A    between atoms: C9_15  and  C10_17 
ROOT
HETATM    1  C2  UNL     1       5.877  -7.046   7.697  1.00  0.00     0.160 C 
ENDROOT
BRANCH   1   2
HETATM    2  N1  UNL     1       4.549  -6.945   8.168  1.00  0.00    -0.353 N 
HETATM    3  C1  UNL     1       4.262  -7.028   9.631  1.00  0.00     0.152 C 
HETATM    4  C9  UNL     1       3.472  -6.658   7.337  1.00  0.00     0.234 C 
HETATM    5  O2  UNL     1       2.354  -6.332   7.897  1.00  0.00    -0.272 OA
BRANCH   4   6
HETATM    6  C10 UNL     1       3.538  -6.720   5.868  1.00  0.00     0.148 C 
HETATM    7  C11 UNL     1       2.541  -7.792   5.443  1.00  0.00     0.098 C 
HETATM    8  S1  UNL     1       2.314  -7.823   3.664  1.00  0.00    -0.167 SA
HETATM    9  C12 UNL     1       1.661  -6.186   3.174  1.00  0.00     0.084 C 
HETATM   10  C13 UNL     1       2.770  -5.186   3.416  1.00  0.00     0.085 C 
HETATM   11  S2  UNL     1       3.059  -5.101   5.204  1.00  0.00    -0.153 SA
ENDBRANCH   4   6
ENDBRANCH   1   2
BRANCH   1  12
HETATM   12  C3  UNL     1       6.915  -7.462   8.733  1.00  0.00     0.225 C 
BRANCH  12  13
HETATM   13  N2  UNL     1       7.205  -6.299   9.591  1.00  0.00    -0.071 N 
ATOM     14  H23 UNL     1       6.887  -5.420   9.182  1.00  0.00     0.274 HD
ATOM     15  H22 UNL     1       6.626  -6.278  10.431  1.00  0.00     0.274 HD
ATOM     16  H21 UNL     1       8.203  -6.297   9.802  1.00  0.00     0.274 HD
ENDBRANCH  12  13
BRANCH  12  17
HETATM   17  C4  UNL     1       8.121  -7.999   8.099  1.00  0.00     0.203 C 
BRANCH  17  18
HETATM   18  O1  UNL     1       9.275  -7.792   8.742  1.00  0.00    -0.379 OA
BRANCH  18  19
HETATM   19  C5  UNL     1      10.016  -8.727   9.343  1.00  0.00     0.050 C 
HETATM   20  C6  UNL     1      11.474  -8.552   9.556  1.00  0.00     0.045 C 
HETATM   21  C7  UNL     1       9.815 -10.045   8.534  1.00  0.00     0.045 C 
HETATM   22  C8  UNL     1       9.381  -8.962  10.734  1.00  0.00     0.045 C 
ENDBRANCH  18  19
ENDBRANCH  17  18
ENDBRANCH  12  17
ENDBRANCH   1  12
TORSDOF 7
ENDMDL
MODEL 5
REMARK VINA RESULT: -6.279951063      4.168      8.082
REMARK  7 active torsions:
REMARK  status: ('A' for Active; 'I' for Inactive)
REMARK    1  A    between atoms: N1_2  and  C2_3 
REMARK       I    between atoms: N1_2  and  C9_15 
REMARK    2  A    between atoms: C2_3  and  C3_4 
REMARK    3  A    between atoms: C3_4  and  N2_5 
REMARK    4  A    between atoms: C3_4  and  C4_9 
REMARK    5  A    between atoms: C4_9  and  O1_10 
REMARK    6  A    between atoms: O1_10  and  C5_11 
REMARK    7  A    between atoms: C9_15  and  C10_17 
ROOT
HETATM    1  C2  UNL     1       3.627  -7.108   6.836  1.00  0.00     0.160 C 
ENDROOT
BRANCH   1   2
HETATM    2  N1  UNL     1       2.585  -6.155   6.785  1.00  0.00    -0.353 N 
HETATM    3  C1  UNL     1       2.003  -5.610   8.048  1.00  0.00     0.152 C 
HETATM    4  C9  UNL     1       2.129  -5.596   5.596  1.00  0.00     0.234 C 
HETATM    5  O2  UNL     1       1.367  -4.556   5.677  1.00  0.00    -0.272 OA
BRANCH   4   6
HETATM    6  C10 UNL     1       2.457  -6.134   4.266  1.00  0.00     0.148 C 
HETATM    7  C11 UNL     1       1.361  -7.141   3.933  1.00  0.00     0.098 C 
HETATM    8  S1  UNL     1       1.471  -7.709   2.236  1.00  0.00    -0.167 SA
HETATM    9  C12 UNL     1       1.268  -6.243   1.161  1.00  0.00     0.084 C 
HETATM   10  C13 UNL     1       2.490  -5.376   1.371  1.00  0.00     0.085 C 
HETATM   11  S2  UNL     1       2.448  -4.763   3.076  1.00  0.00    -0.153 SA
ENDBRANCH   4   6
ENDBRANCH   1   2
BRANCH   1  12
HETATM   12  C3  UNL     1       4.944  -6.616   7.424  1.00  0.00     0.225 C 
BRANCH  12  13
HETATM   13  N2  UNL     1       5.985  -6.730   6.387  1.00  0.00    -0.071 N 
ATOM     14  H23 UNL     1       5.596  -6.832   5.450  1.00  0.00     0.274 HD
ATOM     15  H22 UNL     1       6.485  -5.854   6.235  1.00  0.00     0.274 HD
ATOM     16  H21 UNL     1       6.607  -7.498   6.641  1.00  0.00     0.274 HD
ENDBRANCH  12  13
BRANCH  12  17
HETATM   17  C4  UNL     1       5.292  -7.344   8.645  1.00  0.00     0.203 C 
BRANCH  17  18
HETATM   18  O1  UNL     1       6.376  -8.126   8.585  1.00  0.00    -0.379 OA
BRANCH  18  19
HETATM   19  C5  UNL     1       7.403  -8.109   9.439  1.00  0.00     0.050 C 
HETATM   20  C6  UNL     1       7.554  -9.135  10.499  1.00  0.00     0.045 C 
HETATM   21  C7  UNL     1       7.381  -6.714  10.137  1.00  0.00     0.045 C 
HETATM   22  C8  UNL     1       8.688  -8.154   8.580  1.00  0.00     0.045 C 
ENDBRANCH  18  19
ENDBRANCH  17  18
ENDBRANCH  12  17
ENDBRANCH   1  12
TORSDOF 7
ENDMDL
