MODEL 1
REMARK VINA RESULT: -6.848604958      0.000      0.000
REMARK  5 active torsions:
REMARK  status: ('A' for Active; 'I' for Inactive)
REMARK    1  A    between atoms: O1_2  and  C2_3 
REMARK    2  A    between atoms: C2_3  and  C3_4 
REMARK    3  A    between atoms: C3_4  and  C4_5 
REMARK    4  A    between atoms: N1_7  and  C6_8 
REMARK    5  A    between atoms: C6_8  and  C7_9 
ROOT
HETATM    1  C4  UNL     1       2.001  -5.957   3.853  1.00  0.00     0.052 C 
HETATM    2  C5  UNL     1       1.265  -6.753   4.978  1.00  0.00     0.279 C 
HETATM    3  N1  UNL     1       1.811  -6.372   6.259  1.00  0.00     0.089 N 
HETATM    4  C11 UNL     1       1.788  -4.968   6.491  1.00  0.00     0.275 C 
HETATM    5  C12 UNL     1       1.949  -4.054   5.345  1.00  0.00     0.069 C 
HETATM    6  C13 UNL     1       1.486  -4.577   3.997  1.00  0.00     0.132 C 
HETATM    7  C14 UNL     1      -0.023  -4.448   3.960  1.00  0.00     0.039 C 
HETATM    8  C15 UNL     1      -0.505  -3.192   3.298  1.00  0.00     0.004 C 
HETATM    9  C16 UNL     1       0.388  -2.008   3.421  1.00  0.00     0.027 C 
HETATM   10  C17 UNL     1       1.855  -2.290   3.370  1.00  0.00     0.233 C 
HETATM   11  N2  UNL     1       1.995  -3.707   2.970  1.00  0.00    -0.066 N 
ATOM     12  H21 UNL     1       1.558  -3.890   2.067  1.00  0.00     0.278 HD
ATOM     13  H22 UNL     1       2.958  -3.936   2.722  1.00  0.00     0.278 HD
ENDROOT
BRANCH   1  14
HETATM   14  C3  UNL     1       1.832  -6.717   2.615  1.00  0.00     0.035 C 
BRANCH  14  15
HETATM   15  C2  UNL     1       1.105  -8.003   2.615  1.00  0.00     0.167 C 
BRANCH  15  16
HETATM   16  O1  UNL     1       1.938  -9.001   2.008  1.00  0.00    -0.396 OA
HETATM   17  C1  UNL     1       2.468  -9.765   3.048  1.00  0.00     0.201 C 
ENDBRANCH  15  16
ENDBRANCH  14  15
ENDBRANCH   1  14
BRANCH   3  18
HETATM   18  C6  UNL     1       3.068  -7.030   6.519  1.00  0.00     0.279 C 
BRANCH  18  19
HETATM   19  C7  UNL     1       4.104  -6.206   7.188  1.00  0.00     0.040 C 
HETATM   20  C8  UNL     1       4.260  -6.507   8.659  1.00  0.00     0.035 C 
HETATM   21  C9  UNL     1       5.561  -7.317   8.682  1.00  0.00     0.168 C 
HETATM   22  O2  UNL     1       6.327  -6.625   7.724  1.00  0.00    -0.391 OA
HETATM   23  C10 UNL     1       5.463  -6.665   6.632  1.00  0.00     0.173 C 
ENDBRANCH  18  19
ENDBRANCH   3  18
TORSDOF 5
ENDMDL
MODEL 2
REMARK VINA RESULT: -6.585627116      1.620      2.001
REMARK  5 active torsions:
REMARK  status: ('A' for Active; 'I' for Inactive)
REMARK    1  A    between atoms: O1_2  and  C2_3 
REMARK    2  A    between atoms: C2_3  and  C3_4 
REMARK    3  A    between atoms: C3_4  and  C4_5 
REMARK    4  A    between atoms: N1_7  and  C6_8 
REMARK    5  A    between atoms: C6_8  and  C7_9 
ROOT
HETATM    1  C4  UNL     1       2.930  -7.357   4.785  1.00  0.00     0.052 C 
HETATM    2  C5  UNL     1       2.569  -7.708   6.264  1.00  0.00     0.279 C 
HETATM    3  N1  UNL     1       3.310  -6.841   7.149  1.00  0.00     0.089 N 
HETATM    4  C11 UNL     1       3.133  -5.457   6.866  1.00  0.00     0.275 C 
HETATM    5  C12 UNL     1       2.918  -5.037   5.469  1.00  0.00     0.069 C 
HETATM    6  C13 UNL     1       2.263  -6.057   4.554  1.00  0.00     0.132 C 
HETATM    7  C14 UNL     1       0.777  -6.035   4.849  1.00  0.00     0.039 C 
HETATM    8  C15 UNL     1      -0.009  -5.153   3.927  1.00  0.00     0.004 C 
HETATM    9  C16 UNL     1       0.710  -3.962   3.396  1.00  0.00     0.027 C 
HETATM   10  C17 UNL     1       2.159  -4.160   3.088  1.00  0.00     0.233 C 
HETATM   11  N2  UNL     1       2.415  -5.613   3.193  1.00  0.00    -0.066 N 
ATOM     12  H21 UNL     1       1.829  -6.148   2.553  1.00  0.00     0.278 HD
ATOM     13  H22 UNL     1       3.327  -5.864   2.813  1.00  0.00     0.278 HD
ENDROOT
BRANCH   1  14
HETATM   14  C3  UNL     1       2.617  -8.537   3.980  1.00  0.00     0.035 C 
BRANCH  14  15
HETATM   15  C2  UNL     1       1.845  -9.658   4.556  1.00  0.00     0.167 C 
BRANCH  15  16
HETATM   16  O1  UNL     1       2.616 -10.860   4.425  1.00  0.00    -0.396 OA
HETATM   17  C1  UNL     1       2.652 -11.166   3.065  1.00  0.00     0.201 C 
ENDBRANCH  15  16
ENDBRANCH  14  15
ENDBRANCH   1  14
BRANCH   3  18
HETATM   18  C6  UNL     1       4.675  -7.280   7.304  1.00  0.00     0.279 C 
BRANCH  18  19
HETATM   19  C7  UNL     1       5.461  -6.591   8.356  1.00  0.00     0.040 C 
HETATM   20  C8  UNL     1       5.155  -7.072   9.754  1.00  0.00     0.035 C 
HETATM   21  C9  UNL     1       6.379  -7.939  10.068  1.00  0.00     0.168 C 
HETATM   22  O2  UNL     1       7.408  -7.174   9.485  1.00  0.00    -0.391 OA
HETATM   23  C10 UNL     1       6.922  -7.044   8.186  1.00  0.00     0.173 C 
ENDBRANCH  18  19
ENDBRANCH   3  18
TORSDOF 5
ENDMDL
MODEL 3
REMARK VINA RESULT: -6.584608405      2.342      6.217
REMARK  5 active torsions:
REMARK  status: ('A' for Active; 'I' for Inactive)
REMARK    1  A    between atoms: O1_2  and  C2_3 
REMARK    2  A    between atoms: C2_3  and  C3_4 
REMARK    3  A    between atoms: C3_4  and  C4_5 
REMARK    4  A    between atoms: N1_7  and  C6_8 
REMARK    5  A    between atoms: C6_8  and  C7_9 
ROOT
HETATM    1  C4  UNL     1       2.091  -5.243   5.054  1.00  0.00     0.052 C 
HETATM    2  C5  UNL     1       0.652  -5.852   5.116  1.00  0.00     0.279 C 
HETATM    3  N1  UNL     1       0.628  -7.080   4.358  1.00  0.00     0.089 N 
HETATM    4  C11 UNL     1       1.625  -8.014   4.758  1.00  0.00     0.275 C 
HETATM    5  C12 UNL     1       2.917  -7.507   5.256  1.00  0.00     0.069 C 
HETATM    6  C13 UNL     1       2.894  -6.139   5.915  1.00  0.00     0.132 C 
HETATM    7  C14 UNL     1       2.362  -6.328   7.321  1.00  0.00     0.039 C 
HETATM    8  C15 UNL     1       3.435  -6.474   8.357  1.00  0.00     0.004 C 
HETATM    9  C16 UNL     1       4.702  -7.108   7.898  1.00  0.00     0.027 C 
HETATM   10  C17 UNL     1       5.132  -6.770   6.508  1.00  0.00     0.233 C 
HETATM   11  N2  UNL     1       4.250  -5.675   6.050  1.00  0.00    -0.066 N 
ATOM     12  H21 UNL     1       4.312  -4.860   6.659  1.00  0.00     0.278 HD
ATOM     13  H22 UNL     1       4.592  -5.249   5.189  1.00  0.00     0.278 HD
ENDROOT
BRANCH   1  14
HETATM   14  C3  UNL     1       1.959  -3.815   5.340  1.00  0.00     0.035 C 
BRANCH  14  15
HETATM   15  C2  UNL     1       1.641  -2.857   4.261  1.00  0.00     0.167 C 
BRANCH  15  16
HETATM   16  O1  UNL     1       2.016  -1.541   4.691  1.00  0.00    -0.396 OA
HETATM   17  C1  UNL     1       1.248  -0.645   3.947  1.00  0.00     0.201 C 
ENDBRANCH  15  16
ENDBRANCH  14  15
ENDBRANCH   1  14
BRANCH   3  18
HETATM   18  C6  UNL     1       0.537  -6.829   2.940  1.00  0.00     0.279 C 
BRANCH  18  19
HETATM   19  C7  UNL     1       0.981  -7.933   2.057  1.00  0.00     0.040 C 
HETATM   20  C8  UNL     1      -0.144  -8.589   1.293  1.00  0.00     0.035 C 
HETATM   21  C9  UNL     1       0.051  -8.014  -0.115  1.00  0.00     0.168 C 
HETATM   22  O2  UNL     1       1.456  -8.020  -0.217  1.00  0.00    -0.391 OA
HETATM   23  C10 UNL     1       1.795  -7.292   0.920  1.00  0.00     0.173 C 
ENDBRANCH  18  19
ENDBRANCH   3  18
TORSDOF 5
ENDMDL
MODEL 4
REMARK VINA RESULT: -6.547513497      1.455      1.664
REMARK  5 active torsions:
REMARK  status: ('A' for Active; 'I' for Inactive)
REMARK    1  A    between atoms: O1_2  and  C2_3 
REMARK    2  A    between atoms: C2_3  and  C3_4 
REMARK    3  A    between atoms: C3_4  and  C4_5 
REMARK    4  A    between atoms: N1_7  and  C6_8 
REMARK    5  A    between atoms: C6_8  and  C7_9 
ROOT
HETATM    1  C4  UNL     1       1.920  -7.029   4.096  1.00  0.00     0.052 C 
HETATM    2  C5  UNL     1       1.215  -6.688   5.449  1.00  0.00     0.279 C 
HETATM    3  N1  UNL     1       2.133  -5.955   6.287  1.00  0.00     0.089 N 
HETATM    4  C11 UNL     1       2.678  -4.800   5.658  1.00  0.00     0.275 C 
HETATM    5  C12 UNL     1       2.902  -4.822   4.200  1.00  0.00     0.069 C 
HETATM    6  C13 UNL     1       1.991  -5.729   3.393  1.00  0.00     0.132 C 
HETATM    7  C14 UNL     1       0.667  -5.010   3.236  1.00  0.00     0.039 C 
HETATM    8  C15 UNL     1       0.543  -4.249   1.951  1.00  0.00     0.004 C 
HETATM    9  C16 UNL     1       1.810  -3.704   1.392  1.00  0.00     0.027 C 
HETATM   10  C17 UNL     1       3.021  -4.562   1.567  1.00  0.00     0.233 C 
HETATM   11  N2  UNL     1       2.540  -5.867   2.070  1.00  0.00    -0.066 N 
ATOM     12  H21 UNL     1       1.876  -6.299   1.428  1.00  0.00     0.278 HD
ATOM     13  H22 UNL     1       3.271  -6.578   2.036  1.00  0.00     0.278 HD
ENDROOT
BRANCH   1  14
HETATM   14  C3  UNL     1       1.212  -8.176   3.527  1.00  0.00     0.035 C 
BRANCH  14  15
HETATM   15  C2  UNL     1       1.910  -9.460   3.312  1.00  0.00     0.167 C 
BRANCH  15  16
HETATM   16  O1  UNL     1       2.348  -9.961   4.582  1.00  0.00    -0.396 OA
HETATM   17  C1  UNL     1       1.935 -11.292   4.651  1.00  0.00     0.201 C 
ENDBRANCH  15  16
ENDBRANCH  14  15
ENDBRANCH   1  14
BRANCH   3  18
HETATM   18  C6  UNL     1       3.087  -6.830   6.924  1.00  0.00     0.279 C 
BRANCH  18  19
HETATM   19  C7  UNL     1       4.255  -6.167   7.552  1.00  0.00     0.040 C 
HETATM   20  C8  UNL     1       4.490  -6.582   8.984  1.00  0.00     0.035 C 
HETATM   21  C9  UNL     1       5.692  -7.525   8.850  1.00  0.00     0.168 C 
HETATM   22  O2  UNL     1       6.453  -6.853   7.873  1.00  0.00    -0.391 OA
HETATM   23  C10 UNL     1       5.509  -6.728   6.857  1.00  0.00     0.173 C 
ENDBRANCH  18  19
ENDBRANCH   3  18
TORSDOF 5
ENDMDL
MODEL 5
REMARK VINA RESULT: -6.545356989      2.505      6.213
REMARK  5 active torsions:
REMARK  status: ('A' for Active; 'I' for Inactive)
REMARK    1  A    between atoms: O1_2  and  C2_3 
REMARK    2  A    between atoms: C2_3  and  C3_4 
REMARK    3  A    between atoms: C3_4  and  C4_5 
REMARK    4  A    between atoms: N1_7  and  C6_8 
REMARK    5  A    between atoms: C6_8  and  C7_9 
ROOT
HETATM    1  C4  UNL     1       2.683  -5.540   4.147  1.00  0.00     0.052 C 
HETATM    2  C5  UNL     1       1.205  -5.846   3.743  1.00  0.00     0.279 C 
HETATM    3  N1  UNL     1       1.098  -7.235   3.366  1.00  0.00     0.089 N 
HETATM    4  C11 UNL     1       1.580  -8.132   4.361  1.00  0.00     0.275 C 
HETATM    5  C12 UNL     1       2.703  -7.709   5.218  1.00  0.00     0.069 C 
HETATM    6  C13 UNL     1       2.843  -6.215   5.454  1.00  0.00     0.132 C 
HETATM    7  C14 UNL     1       1.822  -5.830   6.505  1.00  0.00     0.039 C 
HETATM    8  C15 UNL     1       2.374  -5.794   7.898  1.00  0.00     0.004 C 
HETATM    9  C16 UNL     1       3.483  -6.746   8.183  1.00  0.00     0.027 C 
HETATM   10  C17 UNL     1       4.451  -6.971   7.067  1.00  0.00     0.233 C 
HETATM   11  N2  UNL     1       4.137  -5.964   6.030  1.00  0.00    -0.066 N 
ATOM     12  H21 UNL     1       4.212  -5.013   6.392  1.00  0.00     0.278 HD
ATOM     13  H22 UNL     1       4.865  -5.914   5.318  1.00  0.00     0.278 HD
ENDROOT
BRANCH   1  14
HETATM   14  C3  UNL     1       2.874  -4.098   3.996  1.00  0.00     0.035 C 
BRANCH  14  15
HETATM   15  C2  UNL     1       1.719  -3.178   4.030  1.00  0.00     0.167 C 
BRANCH  15  16
HETATM   16  O1  UNL     1       1.946  -2.193   5.048  1.00  0.00    -0.396 OA
HETATM   17  C1  UNL     1       1.247  -1.050   4.660  1.00  0.00     0.201 C 
ENDBRANCH  15  16
ENDBRANCH  14  15
ENDBRANCH   1  14
BRANCH   3  18
HETATM   18  C6  UNL     1       1.584  -7.464   2.027  1.00  0.00     0.279 C 
BRANCH  18  19
HETATM   19  C7  UNL     1       1.259  -6.414   1.033  1.00  0.00     0.040 C 
HETATM   20  C8  UNL     1       2.467  -5.860   0.318  1.00  0.00     0.035 C 
HETATM   21  C9  UNL     1       2.361  -6.533  -1.055  1.00  0.00     0.168 C 
HETATM   22  O2  UNL     1       0.970  -6.483  -1.274  1.00  0.00    -0.391 OA
HETATM   23  C10 UNL     1       0.511  -7.110  -0.118  1.00  0.00     0.173 C 
ENDBRANCH  18  19
ENDBRANCH   3  18
TORSDOF 5
ENDMDL
