MODEL 1
REMARK VINA RESULT: -7.827003019      0.000      0.000
REMARK  7 active torsions:
REMARK  status: ('A' for Active; 'I' for Inactive)
REMARK    1  A    between atoms: C2_2  and  N1_4 
REMARK    2  A    between atoms: N1_4  and  C4_5 
REMARK    3  A    between atoms: N1_4  and  C11_19 
REMARK    4  A    between atoms: C4_5  and  C5_6 
REMARK    5  A    between atoms: N2_7  and  N3_9 
REMARK    6  A    between atoms: N3_9  and  C6_11 
REMARK    7  A    between atoms: C6_11  and  N4_13 
ROOT
HETATM    1  C5  UNL     1       8.174  -8.060   8.387  1.00  0.00     0.124 C 
HETATM    2  N2  UNL     1       7.556  -7.136   7.790  1.00  0.00    -0.308 N 
ATOM      3  H2  UNL     1       8.094  -6.271   7.733  1.00  0.00     0.186 HD
ENDROOT
BRANCH   2   4
HETATM    4  N3  UNL     1       6.347  -7.037   7.214  1.00  0.00    -0.277 N 
ATOM      5  H3  UNL     1       6.324  -7.165   6.202  1.00  0.00     0.189 HD
BRANCH   4   6
HETATM    6  C6  UNL     1       5.114  -6.781   7.830  1.00  0.00     0.188 C 
HETATM    7  S1  UNL     1       4.872  -6.979   9.428  1.00  0.00    -0.039 SA
BRANCH   6   8
HETATM    8  N4  UNL     1       3.967  -6.318   7.086  1.00  0.00    -0.356 N 
HETATM    9  C7  UNL     1       4.034  -6.084   5.671  1.00  0.00     0.135 C 
HETATM   10  C8  UNL     1       3.016  -6.933   4.927  1.00  0.00     0.093 C 
HETATM   11  S2  UNL     1       1.375  -6.369   5.485  1.00  0.00    -0.166 SA
HETATM   12  C9  UNL     1       1.653  -5.464   7.036  1.00  0.00     0.093 C 
HETATM   13  C10 UNL     1       2.750  -6.099   7.846  1.00  0.00     0.135 C 
ENDBRANCH   6   8
ENDBRANCH   4   6
ENDBRANCH   2   4
BRANCH   1  14
HETATM   14  C4  UNL     1       9.538  -7.885   8.941  1.00  0.00     0.105 C 
BRANCH  14  15
HETATM   15  N1  UNL     1      10.206  -9.071   9.160  1.00  0.00    -0.381 N 
BRANCH  15  16
HETATM   16  C2  UNL     1      10.356 -10.079   8.229  1.00  0.00     0.076 C 
HETATM   17  C1  UNL     1      10.767  -9.703   6.836  1.00  0.00     0.032 C 
HETATM   18  C3  UNL     1      11.326 -11.197   8.658  1.00  0.00     0.032 C 
ENDBRANCH  15  16
BRANCH  15  19
HETATM   19  C11 UNL     1      10.917  -9.205  10.402  1.00  0.00     0.076 C 
HETATM   20  C12 UNL     1      12.145  -8.358  10.522  1.00  0.00     0.032 C 
HETATM   21  C13 UNL     1       9.958  -9.067  11.560  1.00  0.00     0.032 C 
ENDBRANCH  15  19
ENDBRANCH  14  15
ENDBRANCH   1  14
TORSDOF 7
ENDMDL
MODEL 2
REMARK VINA RESULT: -7.634668241      0.147      2.017
REMARK  7 active torsions:
REMARK  status: ('A' for Active; 'I' for Inactive)
REMARK    1  A    between atoms: C2_2  and  N1_4 
REMARK    2  A    between atoms: N1_4  and  C4_5 
REMARK    3  A    between atoms: N1_4  and  C11_19 
REMARK    4  A    between atoms: C4_5  and  C5_6 
REMARK    5  A    between atoms: N2_7  and  N3_9 
REMARK    6  A    between atoms: N3_9  and  C6_11 
REMARK    7  A    between atoms: C6_11  and  N4_13 
ROOT
HETATM    1  C5  UNL     1       8.239  -8.079   8.271  1.00  0.00     0.124 C 
HETATM    2  N2  UNL     1       7.569  -7.220   7.634  1.00  0.00    -0.308 N 
ATOM      3  H2  UNL     1       8.084  -6.353   7.476  1.00  0.00     0.186 HD
ENDROOT
BRANCH   2   4
HETATM    4  N3  UNL     1       6.331  -7.193   7.117  1.00  0.00    -0.277 N 
ATOM      5  H3  UNL     1       6.254  -7.437   6.129  1.00  0.00     0.189 HD
BRANCH   4   6
HETATM    6  C6  UNL     1       5.130  -6.871   7.766  1.00  0.00     0.188 C 
HETATM    7  S1  UNL     1       4.934  -7.022   9.375  1.00  0.00    -0.039 SA
BRANCH   6   8
HETATM    8  N4  UNL     1       3.978  -6.380   7.048  1.00  0.00    -0.356 N 
HETATM    9  C7  UNL     1       4.013  -6.163   5.629  1.00  0.00     0.135 C 
HETATM   10  C8  UNL     1       2.949  -6.987   4.923  1.00  0.00     0.093 C 
HETATM   11  S2  UNL     1       1.343  -6.364   5.520  1.00  0.00    -0.166 SA
HETATM   12  C9  UNL     1       1.693  -5.451   7.052  1.00  0.00     0.093 C 
HETATM   13  C10 UNL     1       2.791  -6.113   7.839  1.00  0.00     0.135 C 
ENDBRANCH   6   8
ENDBRANCH   4   6
ENDBRANCH   2   4
BRANCH   1  14
HETATM   14  C4  UNL     1       9.626  -7.832   8.734  1.00  0.00     0.105 C 
BRANCH  14  15
HETATM   15  N1  UNL     1      10.300  -8.976   9.107  1.00  0.00    -0.381 N 
BRANCH  15  16
HETATM   16  C2  UNL     1      10.810  -9.220  10.366  1.00  0.00     0.076 C 
HETATM   17  C1  UNL     1      12.031  -8.462  10.796  1.00  0.00     0.032 C 
HETATM   18  C3  UNL     1       9.789  -9.040  11.507  1.00  0.00     0.032 C 
ENDBRANCH  15  16
BRANCH  15  19
HETATM   19  C11 UNL     1      10.351 -10.049   8.152  1.00  0.00     0.076 C 
HETATM   20  C12 UNL     1      10.782  -9.651   6.776  1.00  0.00     0.032 C 
HETATM   21  C13 UNL     1      11.123 -11.212   8.727  1.00  0.00     0.032 C 
ENDBRANCH  15  19
ENDBRANCH  14  15
ENDBRANCH   1  14
TORSDOF 7
ENDMDL
MODEL 3
REMARK VINA RESULT: -7.597506052      0.580      2.135
REMARK  7 active torsions:
REMARK  status: ('A' for Active; 'I' for Inactive)
REMARK    1  A    between atoms: C2_2  and  N1_4 
REMARK    2  A    between atoms: N1_4  and  C4_5 
REMARK    3  A    between atoms: N1_4  and  C11_19 
REMARK    4  A    between atoms: C4_5  and  C5_6 
REMARK    5  A    between atoms: N2_7  and  N3_9 
REMARK    6  A    between atoms: N3_9  and  C6_11 
REMARK    7  A    between atoms: C6_11  and  N4_13 
ROOT
HETATM    1  C5  UNL     1       8.224  -8.153   8.649  1.00  0.00     0.124 C 
HETATM    2  N2  UNL     1       7.370  -7.956   7.742  1.00  0.00    -0.308 N 
ATOM      3  H2  UNL     1       7.308  -8.730   7.080  1.00  0.00     0.186 HD
ENDROOT
BRANCH   2   4
HETATM    4  N3  UNL     1       6.524  -6.954   7.454  1.00  0.00    -0.277 N 
ATOM      5  H3  UNL     1       6.863  -6.262   6.785  1.00  0.00     0.189 HD
BRANCH   4   6
HETATM    6  C6  UNL     1       5.233  -6.741   7.957  1.00  0.00     0.188 C 
HETATM    7  S1  UNL     1       4.859  -6.941   9.529  1.00  0.00    -0.039 SA
BRANCH   6   8
HETATM    8  N4  UNL     1       4.139  -6.327   7.111  1.00  0.00    -0.356 N 
HETATM    9  C7  UNL     1       4.232  -6.386   5.679  1.00  0.00     0.135 C 
HETATM   10  C8  UNL     1       3.138  -7.263   5.094  1.00  0.00     0.093 C 
HETATM   11  S2  UNL     1       1.559  -6.445   5.494  1.00  0.00    -0.166 SA
HETATM   12  C9  UNL     1       1.921  -5.281   6.842  1.00  0.00     0.093 C 
HETATM   13  C10 UNL     1       2.948  -5.846   7.786  1.00  0.00     0.135 C 
ENDBRANCH   6   8
ENDBRANCH   4   6
ENDBRANCH   2   4
BRANCH   1  14
HETATM   14  C4  UNL     1       9.043  -9.388   8.725  1.00  0.00     0.105 C 
BRANCH  14  15
HETATM   15  N1  UNL     1      10.376  -9.156   8.994  1.00  0.00    -0.381 N 
BRANCH  15  16
HETATM   16  C2  UNL     1      10.856  -8.505  10.113  1.00  0.00     0.076 C 
HETATM   17  C1  UNL     1      10.450  -9.020  11.462  1.00  0.00     0.032 C 
HETATM   18  C3  UNL     1      12.392  -8.383  10.163  1.00  0.00     0.032 C 
ENDBRANCH  15  16
BRANCH  15  19
HETATM   19  C11 UNL     1      11.338  -9.760   8.115  1.00  0.00     0.076 C 
HETATM   20  C12 UNL     1      11.735 -11.156   8.475  1.00  0.00     0.032 C 
HETATM   21  C13 UNL     1      10.896  -9.596   6.680  1.00  0.00     0.032 C 
ENDBRANCH  15  19
ENDBRANCH  14  15
ENDBRANCH   1  14
TORSDOF 7
ENDMDL
MODEL 4
REMARK VINA RESULT: -7.588610180      0.814      2.003
REMARK  7 active torsions:
REMARK  status: ('A' for Active; 'I' for Inactive)
REMARK    1  A    between atoms: C2_2  and  N1_4 
REMARK    2  A    between atoms: N1_4  and  C4_5 
REMARK    3  A    between atoms: N1_4  and  C11_19 
REMARK    4  A    between atoms: C4_5  and  C5_6 
REMARK    5  A    between atoms: N2_7  and  N3_9 
REMARK    6  A    between atoms: N3_9  and  C6_11 
REMARK    7  A    between atoms: C6_11  and  N4_13 
ROOT
HETATM    1  C5  UNL     1       8.506  -7.579   7.992  1.00  0.00     0.124 C 
HETATM    2  N2  UNL     1       7.407  -7.694   7.383  1.00  0.00    -0.308 N 
ATOM      3  H2  UNL     1       7.243  -8.639   7.034  1.00  0.00     0.186 HD
ENDROOT
BRANCH   2   4
HETATM    4  N3  UNL     1       6.404  -6.850   7.092  1.00  0.00    -0.277 N 
ATOM      5  H3  UNL     1       6.563  -6.224   6.302  1.00  0.00     0.189 HD
BRANCH   4   6
HETATM    6  C6  UNL     1       5.167  -6.723   7.739  1.00  0.00     0.188 C 
HETATM    7  S1  UNL     1       4.961  -7.066   9.317  1.00  0.00    -0.039 SA
BRANCH   6   8
HETATM    8  N4  UNL     1       3.982  -6.274   7.046  1.00  0.00    -0.356 N 
HETATM    9  C7  UNL     1       3.990  -6.014   5.634  1.00  0.00     0.135 C 
HETATM   10  C8  UNL     1       2.965  -6.873   4.913  1.00  0.00     0.093 C 
HETATM   11  S2  UNL     1       1.334  -6.358   5.542  1.00  0.00    -0.166 SA
HETATM   12  C9  UNL     1       1.649  -5.473   7.098  1.00  0.00     0.093 C 
HETATM   13  C10 UNL     1       2.790  -6.097   7.855  1.00  0.00     0.135 C 
ENDBRANCH   6   8
ENDBRANCH   4   6
ENDBRANCH   2   4
BRANCH   1  14
HETATM   14  C4  UNL     1       9.447  -8.711   8.168  1.00  0.00     0.105 C 
BRANCH  14  15
HETATM   15  N1  UNL     1       9.829  -8.919   9.477  1.00  0.00    -0.381 N 
BRANCH  15  16
HETATM   16  C2  UNL     1       9.067  -8.602  10.584  1.00  0.00     0.076 C 
HETATM   17  C1  UNL     1       7.757  -9.310  10.768  1.00  0.00     0.032 C 
HETATM   18  C3  UNL     1       9.809  -8.751  11.926  1.00  0.00     0.032 C 
ENDBRANCH  15  16
BRANCH  15  19
HETATM   19  C11 UNL     1      11.048  -9.646   9.698  1.00  0.00     0.076 C 
HETATM   20  C12 UNL     1      11.139 -10.959   8.987  1.00  0.00     0.032 C 
HETATM   21  C13 UNL     1      12.235  -8.740   9.472  1.00  0.00     0.032 C 
ENDBRANCH  15  19
ENDBRANCH  14  15
ENDBRANCH   1  14
TORSDOF 7
ENDMDL
MODEL 5
REMARK VINA RESULT: -7.569184453      0.668      1.385
REMARK  7 active torsions:
REMARK  status: ('A' for Active; 'I' for Inactive)
REMARK    1  A    between atoms: C2_2  and  N1_4 
REMARK    2  A    between atoms: N1_4  and  C4_5 
REMARK    3  A    between atoms: N1_4  and  C11_19 
REMARK    4  A    between atoms: C4_5  and  C5_6 
REMARK    5  A    between atoms: N2_7  and  N3_9 
REMARK    6  A    between atoms: N3_9  and  C6_11 
REMARK    7  A    between atoms: C6_11  and  N4_13 
ROOT
HETATM    1  C5  UNL     1       8.598  -8.288   8.290  1.00  0.00     0.124 C 
HETATM    2  N2  UNL     1       7.975  -7.384   7.668  1.00  0.00    -0.308 N 
ATOM      3  H2  UNL     1       8.546  -6.558   7.491  1.00  0.00     0.186 HD
ENDROOT
BRANCH   2   4
HETATM    4  N3  UNL     1       6.727  -7.268   7.186  1.00  0.00    -0.277 N 
ATOM      5  H3  UNL     1       6.627  -7.375   6.177  1.00  0.00     0.189 HD
BRANCH   4   6
HETATM    6  C6  UNL     1       5.545  -7.020   7.899  1.00  0.00     0.188 C 
HETATM    7  S1  UNL     1       5.476  -7.054   9.525  1.00  0.00    -0.039 SA
BRANCH   6   8
HETATM    8  N4  UNL     1       4.300  -6.713   7.236  1.00  0.00    -0.356 N 
HETATM    9  C7  UNL     1       3.039  -6.837   7.910  1.00  0.00     0.135 C 
HETATM   10  C8  UNL     1       2.292  -5.513   7.922  1.00  0.00     0.093 C 
HETATM   11  S2  UNL     1       1.930  -5.115   6.181  1.00  0.00    -0.166 SA
HETATM   12  C9  UNL     1       3.055  -6.138   5.185  1.00  0.00     0.093 C 
HETATM   13  C10 UNL     1       4.396  -6.278   5.854  1.00  0.00     0.135 C 
ENDBRANCH   6   8
ENDBRANCH   4   6
ENDBRANCH   2   4
BRANCH   1  14
HETATM   14  C4  UNL     1      10.012  -8.142   8.712  1.00  0.00     0.105 C 
BRANCH  14  15
HETATM   15  N1  UNL     1      10.593  -9.321   9.129  1.00  0.00    -0.381 N 
BRANCH  15  16
HETATM   16  C2  UNL     1      10.746 -10.448   8.347  1.00  0.00     0.076 C 
HETATM   17  C1  UNL     1      10.783 -10.277   6.857  1.00  0.00     0.032 C 
HETATM   18  C3  UNL     1      11.984 -11.297   8.695  1.00  0.00     0.032 C 
ENDBRANCH  15  16
BRANCH  15  19
HETATM   19  C11 UNL     1      11.209  -9.326  10.427  1.00  0.00     0.076 C 
HETATM   20  C12 UNL     1      12.333  -8.354  10.598  1.00  0.00     0.032 C 
HETATM   21  C13 UNL     1      10.149  -9.237  11.499  1.00  0.00     0.032 C 
ENDBRANCH  15  19
ENDBRANCH  14  15
ENDBRANCH   1  14
TORSDOF 7
ENDMDL
