MODEL 1
REMARK VINA RESULT: -7.015866419      0.000      0.000
REMARK  8 active torsions:
REMARK  status: ('A' for Active; 'I' for Inactive)
REMARK    1  A    between atoms: C2_2  and  C3_3 
REMARK    2  A    between atoms: C3_3  and  C4_4 
REMARK    3  A    between atoms: C3_3  and  N3_9 
REMARK    4  A    between atoms: C3_3  and  C6_13 
REMARK    5  A    between atoms: C4_4  and  N1_5 
REMARK    6  A    between atoms: N1_5  and  N2_6 
REMARK    7  A    between atoms: N3_9  and  C5_11 
REMARK    8  A    between atoms: C8_18  and  C9_19 
ROOT
HETATM    1  C6  UNL     1     -11.999  -4.717 -19.713  1.00  0.00     0.118 A 
HETATM    2  N4  UNL     1     -12.839  -4.839 -18.671  1.00  0.00    -0.332 N 
ATOM      3  H4  UNL     1     -13.812  -4.535 -18.675  1.00  0.00     0.168 HD
HETATM    4  C7  UNL     1     -12.227  -5.414 -17.622  1.00  0.00     0.135 A 
HETATM    5 CL1  UNL     1     -12.902  -5.775 -16.056  1.00  0.00    -0.062 Cl
HETATM    6  C8  UNL     1     -10.943  -5.665 -18.028  1.00  0.00     0.116 A 
HETATM    7  N7  UNL     1     -10.834  -5.233 -19.295  1.00  0.00    -0.338 N 
ATOM      8  H7  UNL     1      -9.985  -5.290 -19.859  1.00  0.00     0.167 HD
ENDROOT
BRANCH   1   9
HETATM    9  C3  UNL     1     -12.320  -4.120 -21.065  1.00  0.00     0.137 C 
BRANCH   9  10
HETATM   10  C2  UNL     1     -13.596  -4.833 -21.499  1.00  0.00     0.042 C 
HETATM   11  C1  UNL     1     -14.670  -3.834 -21.878  1.00  0.00     0.008 C 
ENDBRANCH   9  10
BRANCH   9  12
HETATM   12  C4  UNL     1     -12.541  -2.672 -20.966  1.00  0.00     0.220 C 
BRANCH  12  13
HETATM   13  N1  UNL     1     -12.513  -2.146 -19.832  1.00  0.00    -0.347 NA
BRANCH  13  14
HETATM   14  N2  UNL     1     -12.719  -1.430 -18.840  1.00  0.00    -0.281 N 
ATOM     15  H22 UNL     1     -13.101  -2.197 -18.287  1.00  0.00     0.191 HD
ATOM     16  H21 UNL     1     -12.783  -0.648 -18.187  1.00  0.00     0.191 HD
ENDBRANCH  13  14
ENDBRANCH  12  13
ENDBRANCH   9  12
BRANCH   9  17
HETATM   17  N3  UNL     1     -11.245  -4.431 -21.961  1.00  0.00    -0.347 N 
ATOM     18  H3  UNL     1     -10.297  -4.460 -21.585  1.00  0.00     0.163 HD
BRANCH  17  19
HETATM   19  C5  UNL     1     -11.425  -4.695 -23.321  1.00  0.00     0.349 C 
HETATM   20  O1  UNL     1     -11.489  -3.829 -24.220  1.00  0.00    -0.284 OA
ENDBRANCH  17  19
ENDBRANCH   9  17
ENDBRANCH   1   9
BRANCH   6  21
HETATM   21  C9  UNL     1      -9.841  -6.294 -17.264  1.00  0.00     0.127 C 
HETATM   22  N5  UNL     1      -8.662  -6.491 -17.733  1.00  0.00    -0.373 N 
HETATM   23  C10 UNL     1      -7.826  -7.127 -16.720  1.00  0.00     0.141 C 
ATOM     24  H5  UNL     1      -8.356  -6.240 -18.673  1.00  0.00     0.161 HD
HETATM   25  C11 UNL     1      -8.553  -6.786 -15.422  1.00  0.00     0.141 C 
HETATM   26  N6  UNL     1      -9.933  -6.770 -15.936  1.00  0.00    -0.373 N 
ATOM     27  H6  UNL     1     -10.779  -7.044 -15.438  1.00  0.00     0.161 HD
ENDBRANCH   6  21
TORSDOF 8
ENDMDL
MODEL 2
REMARK VINA RESULT: -6.813490972      1.902      2.202
REMARK  8 active torsions:
REMARK  status: ('A' for Active; 'I' for Inactive)
REMARK    1  A    between atoms: C2_2  and  C3_3 
REMARK    2  A    between atoms: C3_3  and  C4_4 
REMARK    3  A    between atoms: C3_3  and  N3_9 
REMARK    4  A    between atoms: C3_3  and  C6_13 
REMARK    5  A    between atoms: C4_4  and  N1_5 
REMARK    6  A    between atoms: N1_5  and  N2_6 
REMARK    7  A    between atoms: N3_9  and  C5_11 
REMARK    8  A    between atoms: C8_18  and  C9_19 
ROOT
HETATM    1  C6  UNL     1     -11.717  -5.819 -18.897  1.00  0.00     0.118 A 
HETATM    2  N4  UNL     1     -12.359  -6.340 -17.837  1.00  0.00    -0.332 N 
ATOM      3  H4  UNL     1     -13.372  -6.433 -17.764  1.00  0.00     0.168 HD
HETATM    4  C7  UNL     1     -11.491  -6.722 -16.886  1.00  0.00     0.135 A 
HETATM    5 CL1  UNL     1     -11.846  -7.443 -15.339  1.00  0.00    -0.062 Cl
HETATM    6  C8  UNL     1     -10.245  -6.427 -17.375  1.00  0.00     0.116 A 
HETATM    7  N7  UNL     1     -10.412  -5.882 -18.591  1.00  0.00    -0.338 N 
ATOM      8  H7  UNL     1      -9.656  -5.562 -19.195  1.00  0.00     0.167 HD
ENDROOT
BRANCH   1   9
HETATM    9  C3  UNL     1     -12.351  -5.281 -20.159  1.00  0.00     0.137 C 
BRANCH   9  10
HETATM   10  C2  UNL     1     -13.844  -5.259 -19.853  1.00  0.00     0.042 C 
HETATM   11  C1  UNL     1     -14.614  -4.586 -20.970  1.00  0.00     0.008 C 
ENDBRANCH   9  10
BRANCH   9  12
HETATM   12  C4  UNL     1     -11.862  -3.930 -20.464  1.00  0.00     0.220 C 
BRANCH  12  13
HETATM   13  N1  UNL     1     -11.990  -3.045 -19.590  1.00  0.00    -0.347 NA
BRANCH  13  14
HETATM   14  N2  UNL     1     -12.431  -2.168 -18.830  1.00  0.00    -0.281 N 
ATOM     15  H22 UNL     1     -11.738  -2.359 -18.106  1.00  0.00     0.191 HD
ATOM     16  H21 UNL     1     -12.969  -1.411 -18.410  1.00  0.00     0.191 HD
ENDBRANCH  13  14
ENDBRANCH  12  13
ENDBRANCH   9  12
BRANCH   9  17
HETATM   17  N3  UNL     1     -12.074  -6.196 -21.228  1.00  0.00    -0.347 N 
ATOM     18  H3  UNL     1     -11.387  -5.922 -21.931  1.00  0.00     0.163 HD
BRANCH  17  19
HETATM   19  C5  UNL     1     -12.693  -7.442 -21.358  1.00  0.00     0.349 C 
HETATM   20  O1  UNL     1     -12.217  -8.527 -20.962  1.00  0.00    -0.284 OA
ENDBRANCH  17  19
ENDBRANCH   9  17
ENDBRANCH   1   9
BRANCH   6  21
HETATM   21  C9  UNL     1      -8.927  -6.646 -16.734  1.00  0.00     0.127 C 
HETATM   22  N5  UNL     1      -8.740  -6.668 -15.464  1.00  0.00    -0.373 N 
HETATM   23  C10 UNL     1      -7.330  -6.907 -15.177  1.00  0.00     0.141 C 
ATOM     24  H5  UNL     1      -9.468  -6.537 -14.762  1.00  0.00     0.161 HD
HETATM   25  C11 UNL     1      -6.826  -7.544 -16.469  1.00  0.00     0.141 C 
HETATM   26  N6  UNL     1      -7.708  -6.847 -17.420  1.00  0.00    -0.373 N 
ATOM     27  H6  UNL     1      -7.486  -6.567 -18.375  1.00  0.00     0.161 HD
ENDBRANCH   6  21
TORSDOF 8
ENDMDL
MODEL 3
REMARK VINA RESULT: -6.786651266      3.129      4.547
REMARK  8 active torsions:
REMARK  status: ('A' for Active; 'I' for Inactive)
REMARK    1  A    between atoms: C2_2  and  C3_3 
REMARK    2  A    between atoms: C3_3  and  C4_4 
REMARK    3  A    between atoms: C3_3  and  N3_9 
REMARK    4  A    between atoms: C3_3  and  C6_13 
REMARK    5  A    between atoms: C4_4  and  N1_5 
REMARK    6  A    between atoms: N1_5  and  N2_6 
REMARK    7  A    between atoms: N3_9  and  C5_11 
REMARK    8  A    between atoms: C8_18  and  C9_19 
ROOT
HETATM    1  C6  UNL     1      -9.622  -6.574 -16.981  1.00  0.00     0.118 A 
HETATM    2  N4  UNL     1      -9.562  -6.749 -15.649  1.00  0.00    -0.332 N 
ATOM      3  H4  UNL     1     -10.327  -6.547 -15.006  1.00  0.00     0.168 HD
HETATM    4  C7  UNL     1      -8.362  -7.224 -15.278  1.00  0.00     0.135 A 
HETATM    5 CL1  UNL     1      -7.812  -7.604 -13.667  1.00  0.00    -0.062 Cl
HETATM    6  C8  UNL     1      -7.636  -7.354 -16.433  1.00  0.00     0.116 A 
HETATM    7  N7  UNL     1      -8.422  -6.954 -17.445  1.00  0.00    -0.338 N 
ATOM      8  H7  UNL     1      -8.146  -6.941 -18.427  1.00  0.00     0.167 HD
ENDROOT
BRANCH   1   9
HETATM    9  C3  UNL     1     -10.803  -6.057 -17.770  1.00  0.00     0.137 C 
BRANCH   9  10
HETATM   10  C2  UNL     1     -11.514  -5.109 -16.809  1.00  0.00     0.042 C 
HETATM   11  C1  UNL     1     -12.969  -5.497 -16.647  1.00  0.00     0.008 C 
ENDBRANCH   9  10
BRANCH   9  12
HETATM   12  C4  UNL     1     -10.364  -5.342 -18.975  1.00  0.00     0.220 C 
BRANCH  12  13
HETATM   13  N1  UNL     1     -11.049  -4.372 -19.368  1.00  0.00    -0.347 NA
BRANCH  13  14
HETATM   14  N2  UNL     1     -11.842  -3.634 -19.974  1.00  0.00    -0.281 N 
ATOM     15  H22 UNL     1     -11.849  -4.222 -20.807  1.00  0.00     0.191 HD
ATOM     16  H21 UNL     1     -12.479  -2.884 -20.241  1.00  0.00     0.191 HD
ENDBRANCH  13  14
ENDBRANCH  12  13
ENDBRANCH   9  12
BRANCH   9  17
HETATM   17  N3  UNL     1     -11.650  -7.168 -18.093  1.00  0.00    -0.347 N 
ATOM     18  H3  UNL     1     -12.158  -7.624 -17.336  1.00  0.00     0.163 HD
BRANCH  17  19
HETATM   19  C5  UNL     1     -11.816  -7.659 -19.391  1.00  0.00     0.349 C 
HETATM   20  O1  UNL     1     -11.549  -8.822 -19.760  1.00  0.00    -0.284 OA
ENDBRANCH  17  19
ENDBRANCH   9  17
ENDBRANCH   1   9
BRANCH   6  21
HETATM   21  C9  UNL     1      -6.247  -7.842 -16.599  1.00  0.00     0.127 C 
HETATM   22  N5  UNL     1      -5.366  -7.265 -17.334  1.00  0.00    -0.373 N 
HETATM   23  C10 UNL     1      -4.109  -8.004 -17.271  1.00  0.00     0.141 C 
ATOM     24  H5  UNL     1      -5.521  -6.417 -17.879  1.00  0.00     0.161 HD
HETATM   25  C11 UNL     1      -4.250  -8.797 -15.974  1.00  0.00     0.141 C 
HETATM   26  N6  UNL     1      -5.708  -8.998 -15.993  1.00  0.00    -0.373 N 
ATOM     27  H6  UNL     1      -6.222  -9.806 -15.640  1.00  0.00     0.161 HD
ENDBRANCH   6  21
TORSDOF 8
ENDMDL
MODEL 4
REMARK VINA RESULT: -6.640635429      1.897      2.854
REMARK  8 active torsions:
REMARK  status: ('A' for Active; 'I' for Inactive)
REMARK    1  A    between atoms: C2_2  and  C3_3 
REMARK    2  A    between atoms: C3_3  and  C4_4 
REMARK    3  A    between atoms: C3_3  and  N3_9 
REMARK    4  A    between atoms: C3_3  and  C6_13 
REMARK    5  A    between atoms: C4_4  and  N1_5 
REMARK    6  A    between atoms: N1_5  and  N2_6 
REMARK    7  A    between atoms: N3_9  and  C5_11 
REMARK    8  A    between atoms: C8_18  and  C9_19 
ROOT
HETATM    1  C6  UNL     1     -11.711  -5.201 -18.497  1.00  0.00     0.118 A 
HETATM    2  N4  UNL     1     -12.368  -5.842 -17.514  1.00  0.00    -0.332 N 
ATOM      3  H4  UNL     1     -13.381  -5.839 -17.400  1.00  0.00     0.168 HD
HETATM    4  C7  UNL     1     -11.514  -6.485 -16.700  1.00  0.00     0.135 A 
HETATM    5 CL1  UNL     1     -11.891  -7.443 -15.294  1.00  0.00    -0.062 Cl
HETATM    6  C8  UNL     1     -10.262  -6.237 -17.199  1.00  0.00     0.116 A 
HETATM    7  N7  UNL     1     -10.411  -5.459 -18.283  1.00  0.00    -0.338 N 
ATOM      8  H7  UNL     1      -9.646  -5.113 -18.862  1.00  0.00     0.167 HD
ENDROOT
BRANCH   1   9
HETATM    9  C3  UNL     1     -12.326  -4.372 -19.600  1.00  0.00     0.137 C 
BRANCH   9  10
HETATM   10  C2  UNL     1     -11.247  -4.315 -20.676  1.00  0.00     0.042 C 
HETATM   11  C1  UNL     1     -11.859  -4.408 -22.058  1.00  0.00     0.008 C 
ENDBRANCH   9  10
BRANCH   9  12
HETATM   12  C4  UNL     1     -13.547  -5.001 -20.120  1.00  0.00     0.220 C 
BRANCH  12  13
HETATM   13  N1  UNL     1     -13.665  -6.241 -20.007  1.00  0.00    -0.347 NA
BRANCH  13  14
HETATM   14  N2  UNL     1     -13.845  -7.450 -20.221  1.00  0.00    -0.281 N 
ATOM     15  H22 UNL     1     -13.661  -7.712 -19.253  1.00  0.00     0.191 HD
ATOM     16  H21 UNL     1     -14.039  -8.354 -20.651  1.00  0.00     0.191 HD
ENDBRANCH  13  14
ENDBRANCH  12  13
ENDBRANCH   9  12
BRANCH   9  17
HETATM   17  N3  UNL     1     -12.587  -3.059 -19.085  1.00  0.00    -0.347 N 
ATOM     18  H3  UNL     1     -12.564  -2.925 -18.074  1.00  0.00     0.163 HD
BRANCH  17  19
HETATM   19  C5  UNL     1     -12.872  -1.955 -19.893  1.00  0.00     0.349 C 
HETATM   20  O1  UNL     1     -12.171  -0.925 -19.976  1.00  0.00    -0.284 OA
ENDBRANCH  17  19
ENDBRANCH   9  17
ENDBRANCH   1   9
BRANCH   6  21
HETATM   21  C9  UNL     1      -8.955  -6.711 -16.687  1.00  0.00     0.127 C 
HETATM   22  N5  UNL     1      -7.908  -6.857 -17.416  1.00  0.00    -0.373 N 
HETATM   23  C10 UNL     1      -6.799  -7.336 -16.598  1.00  0.00     0.141 C 
ATOM     24  H5  UNL     1      -7.859  -6.666 -18.417  1.00  0.00     0.161 HD
HETATM   25  C11 UNL     1      -7.226  -6.941 -15.187  1.00  0.00     0.141 C 
HETATM   26  N6  UNL     1      -8.683  -7.075 -15.349  1.00  0.00    -0.373 N 
ATOM     27  H6  UNL     1      -9.357  -7.370 -14.642  1.00  0.00     0.161 HD
ENDBRANCH   6  21
TORSDOF 8
ENDMDL
MODEL 5
REMARK VINA RESULT: -6.613870936      3.060      6.327
REMARK  8 active torsions:
REMARK  status: ('A' for Active; 'I' for Inactive)
REMARK    1  A    between atoms: C2_2  and  C3_3 
REMARK    2  A    between atoms: C3_3  and  C4_4 
REMARK    3  A    between atoms: C3_3  and  N3_9 
REMARK    4  A    between atoms: C3_3  and  C6_13 
REMARK    5  A    between atoms: C4_4  and  N1_5 
REMARK    6  A    between atoms: N1_5  and  N2_6 
REMARK    7  A    between atoms: N3_9  and  C5_11 
REMARK    8  A    between atoms: C8_18  and  C9_19 
ROOT
HETATM    1  C6  UNL     1     -11.623  -5.018 -19.369  1.00  0.00     0.118 A 
HETATM    2  N4  UNL     1     -11.465  -5.177 -20.695  1.00  0.00    -0.332 N 
ATOM      3  H4  UNL     1     -11.038  -5.994 -21.131  1.00  0.00     0.168 HD
HETATM    4  C7  UNL     1     -11.944  -4.119 -21.370  1.00  0.00     0.135 A 
HETATM    5 CL1  UNL     1     -11.961  -3.868 -23.095  1.00  0.00    -0.062 Cl
HETATM    6  C8  UNL     1     -12.426  -3.256 -20.421  1.00  0.00     0.116 A 
HETATM    7  N7  UNL     1     -12.219  -3.824 -19.222  1.00  0.00    -0.338 N 
ATOM      8  H7  UNL     1     -12.477  -3.408 -18.328  1.00  0.00     0.167 HD
ENDROOT
BRANCH   1   9
HETATM    9  C3  UNL     1     -11.209  -5.990 -18.289  1.00  0.00     0.137 C 
BRANCH   9  10
HETATM   10  C2  UNL     1     -11.567  -5.283 -16.987  1.00  0.00     0.042 C 
HETATM   11  C1  UNL     1     -12.906  -5.759 -16.464  1.00  0.00     0.008 C 
ENDBRANCH   9  10
BRANCH   9  12
HETATM   12  C4  UNL     1     -11.939  -7.259 -18.409  1.00  0.00     0.220 C 
BRANCH  12  13
HETATM   13  N1  UNL     1     -11.671  -8.003 -19.378  1.00  0.00    -0.347 NA
BRANCH  13  14
HETATM   14  N2  UNL     1     -11.683  -8.607 -20.462  1.00  0.00    -0.281 N 
ATOM     15  H22 UNL     1     -11.754  -9.524 -20.022  1.00  0.00     0.191 HD
ATOM     16  H21 UNL     1     -11.674  -8.849 -21.453  1.00  0.00     0.191 HD
ENDBRANCH  13  14
ENDBRANCH  12  13
ENDBRANCH   9  12
BRANCH   9  17
HETATM   17  N3  UNL     1      -9.791  -6.186 -18.378  1.00  0.00    -0.347 N 
ATOM     18  H3  UNL     1      -9.331  -5.980 -19.265  1.00  0.00     0.163 HD
BRANCH  17  19
HETATM   19  C5  UNL     1      -9.007  -6.644 -17.316  1.00  0.00     0.349 C 
HETATM   20  O1  UNL     1      -7.758  -6.656 -17.297  1.00  0.00    -0.284 OA
ENDBRANCH  17  19
ENDBRANCH   9  17
ENDBRANCH   1   9
BRANCH   6  21
HETATM   21  C9  UNL     1     -13.069  -1.936 -20.617  1.00  0.00     0.127 C 
HETATM   22  N5  UNL     1     -12.449  -0.814 -20.531  1.00  0.00    -0.373 N 
HETATM   23  C10 UNL     1     -13.376   0.284 -20.780  1.00  0.00     0.141 C 
ATOM     24  H5  UNL     1     -11.457  -0.708 -20.320  1.00  0.00     0.161 HD
HETATM   25  C11 UNL     1     -14.510  -0.399 -21.541  1.00  0.00     0.141 C 
HETATM   26  N6  UNL     1     -14.435  -1.726 -20.909  1.00  0.00    -0.373 N 
ATOM     27  H6  UNL     1     -15.210  -2.363 -20.721  1.00  0.00     0.161 HD
ENDBRANCH   6  21
TORSDOF 8
ENDMDL
