MODEL 1
REMARK VINA RESULT: -6.878916724      0.000      0.000
REMARK  8 active torsions:
REMARK  status: ('A' for Active; 'I' for Inactive)
REMARK    1  A    between atoms: C2_2  and  C3_3 
REMARK    2  A    between atoms: C8_12  and  O1_13 
REMARK    3  A    between atoms: C9_15  and  O2_16 
REMARK    4  A    between atoms: C10_18  and  O3_19 
REMARK    5  A    between atoms: O3_19  and  C11_20 
REMARK    6  A    between atoms: C11_20  and  C12_21 
REMARK    7  A    between atoms: C12_21  and  C13_22 
REMARK    8  A    between atoms: C13_22  and  C14_23 
ROOT
HETATM    1  C3  UNL     1     -12.692  -6.292 -20.313  1.00  0.00     0.071 C 
HETATM    2  C4  UNL     1     -13.867  -5.688 -20.969  1.00  0.00     0.227 C 
HETATM    3  C5  UNL     1     -13.527  -5.004 -22.294  1.00  0.00     0.308 C 
HETATM    4  N1  UNL     1     -13.766  -3.629 -22.024  1.00  0.00     0.120 N 
HETATM    5  C6  UNL     1     -12.976  -2.712 -22.786  1.00  0.00     0.312 C 
HETATM    6  C7  UNL     1     -13.739  -3.451 -20.608  1.00  0.00     0.450 C 
HETATM    7  N2  UNL     1     -14.361  -4.628 -20.093  1.00  0.00    -0.034 N 
ATOM      8  H21 UNL     1     -14.198  -4.791 -19.099  1.00  0.00     0.280 HD
ATOM      9  H22 UNL     1     -15.377  -4.574 -20.027  1.00  0.00     0.280 HD
HETATM   10  C8  UNL     1     -12.418  -3.101 -20.048  1.00  0.00     0.210 C 
HETATM   11  C9  UNL     1     -11.442  -4.157 -19.821  1.00  0.00     0.180 C 
HETATM   12  C10 UNL     1     -11.984  -5.489 -19.279  1.00  0.00     0.162 C 
ENDROOT
BRANCH  12  13
HETATM   13  O3  UNL     1     -12.670  -5.261 -18.104  1.00  0.00    -0.382 OA
BRANCH  13  14
HETATM   14  C11 UNL     1     -11.776  -5.260 -17.031  1.00  0.00     0.168 C 
BRANCH  14  15
HETATM   15  C12 UNL     1     -11.281  -6.622 -16.690  1.00  0.00     0.029 C 
BRANCH  15  16
HETATM   16  C13 UNL     1      -9.957  -6.743 -16.051  1.00  0.00     0.033 C 
BRANCH  16  17
HETATM   17  C14 UNL     1      -8.776  -6.727 -16.978  1.00  0.00     0.222 C 
HETATM   18  F1  UNL     1      -9.085  -6.712 -18.285  1.00  0.00    -0.255 F 
ENDBRANCH  16  17
ENDBRANCH  15  16
ENDBRANCH  14  15
ENDBRANCH  13  14
ENDBRANCH  12  13
BRANCH   1  19
HETATM   19  C2  UNL     1     -12.941  -7.634 -19.765  1.00  0.00    -0.028 C 
HETATM   20  C1  UNL     1     -12.298  -8.714 -19.712  1.00  0.00     0.007 C 
ENDBRANCH   1  19
BRANCH  11  21
HETATM   21  O2  UNL     1     -10.565  -4.470 -20.845  1.00  0.00    -0.390 OA
ATOM     22  H2  UNL     1      -9.904  -5.134 -20.684  1.00  0.00     0.210 HD
ENDBRANCH  11  21
BRANCH  10  23
HETATM   23  O1  UNL     1     -12.615  -2.357 -18.859  1.00  0.00    -0.389 OA
ATOM     24  H1  UNL     1     -11.873  -1.776 -18.740  1.00  0.00     0.210 HD
ENDBRANCH  10  23
TORSDOF 8
ENDMDL
MODEL 2
REMARK VINA RESULT: -5.971707697      1.291      1.375
REMARK  8 active torsions:
REMARK  status: ('A' for Active; 'I' for Inactive)
REMARK    1  A    between atoms: C2_2  and  C3_3 
REMARK    2  A    between atoms: C8_12  and  O1_13 
REMARK    3  A    between atoms: C9_15  and  O2_16 
REMARK    4  A    between atoms: C10_18  and  O3_19 
REMARK    5  A    between atoms: O3_19  and  C11_20 
REMARK    6  A    between atoms: C11_20  and  C12_21 
REMARK    7  A    between atoms: C12_21  and  C13_22 
REMARK    8  A    between atoms: C13_22  and  C14_23 
ROOT
HETATM    1  C3  UNL     1     -13.143  -5.921 -21.355  1.00  0.00     0.071 C 
HETATM    2  C4  UNL     1     -14.245  -4.974 -21.611  1.00  0.00     0.227 C 
HETATM    3  C5  UNL     1     -13.905  -3.936 -22.681  1.00  0.00     0.308 C 
HETATM    4  N1  UNL     1     -13.871  -2.715 -21.955  1.00  0.00     0.120 N 
HETATM    5  C6  UNL     1     -13.001  -1.713 -22.487  1.00  0.00     0.312 C 
HETATM    6  C7  UNL     1     -13.691  -3.033 -20.575  1.00  0.00     0.450 C 
HETATM    7  N2  UNL     1     -14.465  -4.216 -20.382  1.00  0.00    -0.034 N 
ATOM      8  H21 UNL     1     -14.248  -4.727 -19.526  1.00  0.00     0.280 HD
ATOM      9  H22 UNL     1     -15.446  -4.047 -20.159  1.00  0.00     0.280 HD
HETATM   10  C8  UNL     1     -12.285  -3.080 -20.124  1.00  0.00     0.210 C 
HETATM   11  C9  UNL     1     -11.497  -4.275 -20.387  1.00  0.00     0.180 C 
HETATM   12  C10 UNL     1     -12.217  -5.623 -20.228  1.00  0.00     0.162 C 
ENDROOT
BRANCH  12  13
HETATM   13  O3  UNL     1     -12.748  -5.713 -18.958  1.00  0.00    -0.382 OA
BRANCH  13  14
HETATM   14  C11 UNL     1     -11.937  -6.530 -18.168  1.00  0.00     0.168 C 
BRANCH  14  15
HETATM   15  C12 UNL     1     -11.787  -6.025 -16.777  1.00  0.00     0.029 C 
BRANCH  15  16
HETATM   16  C13 UNL     1     -11.093  -6.880 -15.795  1.00  0.00     0.033 C 
BRANCH  16  17
HETATM   17  C14 UNL     1      -9.617  -6.647 -15.646  1.00  0.00     0.222 C 
HETATM   18  F1  UNL     1      -9.110  -6.989 -14.450  1.00  0.00    -0.255 F 
ENDBRANCH  16  17
ENDBRANCH  15  16
ENDBRANCH  14  15
ENDBRANCH  13  14
ENDBRANCH  12  13
BRANCH   1  19
HETATM   19  C2  UNL     1     -13.578  -7.321 -21.236  1.00  0.00    -0.028 C 
HETATM   20  C1  UNL     1     -13.037  -8.445 -21.397  1.00  0.00     0.007 C 
ENDBRANCH   1  19
BRANCH  11  21
HETATM   21  O2  UNL     1     -10.781  -4.341 -21.569  1.00  0.00    -0.390 OA
ATOM     22  H2  UNL     1     -10.832  -3.604 -22.167  1.00  0.00     0.210 HD
ENDBRANCH  11  21
BRANCH  10  23
HETATM   23  O1  UNL     1     -12.244  -2.763 -18.744  1.00  0.00    -0.389 OA
ATOM     24  H1  UNL     1     -11.826  -3.480 -18.282  1.00  0.00     0.210 HD
ENDBRANCH  10  23
TORSDOF 8
ENDMDL
MODEL 3
REMARK VINA RESULT: -5.935056978      1.797      3.481
REMARK  8 active torsions:
REMARK  status: ('A' for Active; 'I' for Inactive)
REMARK    1  A    between atoms: C2_2  and  C3_3 
REMARK    2  A    between atoms: C8_12  and  O1_13 
REMARK    3  A    between atoms: C9_15  and  O2_16 
REMARK    4  A    between atoms: C10_18  and  O3_19 
REMARK    5  A    between atoms: O3_19  and  C11_20 
REMARK    6  A    between atoms: C11_20  and  C12_21 
REMARK    7  A    between atoms: C12_21  and  C13_22 
REMARK    8  A    between atoms: C13_22  and  C14_23 
ROOT
HETATM    1  C3  UNL     1     -12.955  -3.416 -20.221  1.00  0.00     0.071 C 
HETATM    2  C4  UNL     1     -12.750  -3.713 -21.651  1.00  0.00     0.227 C 
HETATM    3  C5  UNL     1     -13.999  -4.277 -22.330  1.00  0.00     0.308 C 
HETATM    4  N1  UNL     1     -13.625  -5.609 -22.653  1.00  0.00     0.120 N 
HETATM    5  C6  UNL     1     -14.700  -6.551 -22.699  1.00  0.00     0.312 C 
HETATM    6  C7  UNL     1     -12.518  -5.964 -21.824  1.00  0.00     0.450 C 
HETATM    7  N2  UNL     1     -11.743  -4.768 -21.739  1.00  0.00    -0.034 N 
ATOM      8  H21 UNL     1     -11.058  -4.762 -20.984  1.00  0.00     0.280 HD
ATOM      9  H22 UNL     1     -11.069  -4.647 -22.496  1.00  0.00     0.280 HD
HETATM   10  C8  UNL     1     -12.877  -6.612 -20.546  1.00  0.00     0.210 C 
HETATM   11  C9  UNL     1     -13.305  -5.784 -19.428  1.00  0.00     0.180 C 
HETATM   12  C10 UNL     1     -12.559  -4.455 -19.231  1.00  0.00     0.162 C 
ENDROOT
BRANCH  12  13
HETATM   13  O3  UNL     1     -11.207  -4.701 -19.108  1.00  0.00    -0.382 OA
BRANCH  13  14
HETATM   14  C11 UNL     1     -10.940  -5.229 -17.843  1.00  0.00     0.168 C 
BRANCH  14  15
HETATM   15  C12 UNL     1      -9.874  -6.266 -17.862  1.00  0.00     0.029 C 
BRANCH  15  16
HETATM   16  C13 UNL     1      -9.231  -6.630 -16.585  1.00  0.00     0.033 C 
BRANCH  16  17
HETATM   17  C14 UNL     1     -10.087  -6.503 -15.359  1.00  0.00     0.222 C 
HETATM   18  F1  UNL     1     -11.158  -7.313 -15.332  1.00  0.00    -0.255 F 
ENDBRANCH  16  17
ENDBRANCH  15  16
ENDBRANCH  14  15
ENDBRANCH  13  14
ENDBRANCH  12  13
BRANCH   1  19
HETATM   19  C2  UNL     1     -12.384  -2.130 -19.792  1.00  0.00    -0.028 C 
HETATM   20  C1  UNL     1     -12.828  -0.968 -19.611  1.00  0.00     0.007 C 
ENDBRANCH   1  19
BRANCH  11  21
HETATM   21  O2  UNL     1     -14.654  -5.509 -19.295  1.00  0.00    -0.390 OA
ATOM     22  H2  UNL     1     -14.950  -4.620 -19.456  1.00  0.00     0.210 HD
ENDBRANCH  11  21
BRANCH  10  23
HETATM   23  O1  UNL     1     -11.807  -7.450 -20.150  1.00  0.00    -0.389 OA
ATOM     24  H1  UNL     1     -11.747  -7.437 -19.202  1.00  0.00     0.210 HD
ENDBRANCH  10  23
TORSDOF 8
ENDMDL
MODEL 4
REMARK VINA RESULT: -5.826107952      2.392      4.083
REMARK  8 active torsions:
REMARK  status: ('A' for Active; 'I' for Inactive)
REMARK    1  A    between atoms: C2_2  and  C3_3 
REMARK    2  A    between atoms: C8_12  and  O1_13 
REMARK    3  A    between atoms: C9_15  and  O2_16 
REMARK    4  A    between atoms: C10_18  and  O3_19 
REMARK    5  A    between atoms: O3_19  and  C11_20 
REMARK    6  A    between atoms: C11_20  and  C12_21 
REMARK    7  A    between atoms: C12_21  and  C13_22 
REMARK    8  A    between atoms: C13_22  and  C14_23 
ROOT
HETATM    1  C3  UNL     1     -11.649  -5.321 -18.997  1.00  0.00     0.071 C 
HETATM    2  C4  UNL     1     -11.391  -4.400 -20.120  1.00  0.00     0.227 C 
HETATM    3  C5  UNL     1     -12.327  -3.191 -20.129  1.00  0.00     0.308 C 
HETATM    4  N1  UNL     1     -13.106  -3.388 -21.301  1.00  0.00     0.120 N 
HETATM    5  C6  UNL     1     -14.423  -2.830 -21.258  1.00  0.00     0.312 C 
HETATM    6  C7  UNL     1     -13.022  -4.768 -21.654  1.00  0.00     0.450 C 
HETATM    7  N2  UNL     1     -11.674  -5.127 -21.355  1.00  0.00    -0.034 N 
ATOM      8  H21 UNL     1     -11.506  -6.132 -21.302  1.00  0.00     0.280 HD
ATOM      9  H22 UNL     1     -11.012  -4.948 -22.111  1.00  0.00     0.280 HD
HETATM   10  C8  UNL     1     -14.078  -5.625 -21.078  1.00  0.00     0.210 C 
HETATM   11  C9  UNL     1     -13.947  -6.084 -19.703  1.00  0.00     0.180 C 
HETATM   12  C10 UNL     1     -12.537  -6.490 -19.245  1.00  0.00     0.162 C 
ENDROOT
BRANCH  12  13
HETATM   13  O3  UNL     1     -12.044  -7.466 -20.087  1.00  0.00    -0.382 OA
BRANCH  13  14
HETATM   14  C11 UNL     1     -12.485  -8.720 -19.659  1.00  0.00     0.168 C 
BRANCH  14  15
HETATM   15  C12 UNL     1     -12.166  -9.806 -20.625  1.00  0.00     0.029 C 
BRANCH  15  16
HETATM   16  C13 UNL     1     -12.068 -11.187 -20.115  1.00  0.00     0.033 C 
BRANCH  16  17
HETATM   17  C14 UNL     1     -13.248 -11.683 -19.331  1.00  0.00     0.222 C 
HETATM   18  F1  UNL     1     -12.945 -12.229 -18.141  1.00  0.00    -0.255 F 
ENDBRANCH  16  17
ENDBRANCH  15  16
ENDBRANCH  14  15
ENDBRANCH  13  14
ENDBRANCH  12  13
BRANCH   1  19
HETATM   19  C2  UNL     1     -10.430  -5.802 -18.329  1.00  0.00    -0.028 C 
HETATM   20  C1  UNL     1     -10.137  -6.195 -17.171  1.00  0.00     0.007 C 
ENDBRANCH   1  19
BRANCH  11  21
HETATM   21  O2  UNL     1     -14.483  -5.301 -18.696  1.00  0.00    -0.390 OA
ATOM     22  H2  UNL     1     -14.243  -4.383 -18.664  1.00  0.00     0.210 HD
ENDBRANCH  11  21
BRANCH  10  23
HETATM   23  O1  UNL     1     -14.285  -6.728 -21.941  1.00  0.00    -0.389 OA
ATOM     24  H1  UNL     1     -15.189  -6.720 -22.232  1.00  0.00     0.210 HD
ENDBRANCH  10  23
TORSDOF 8
ENDMDL
MODEL 5
REMARK VINA RESULT: -5.790945294      2.373      4.138
REMARK  8 active torsions:
REMARK  status: ('A' for Active; 'I' for Inactive)
REMARK    1  A    between atoms: C2_2  and  C3_3 
REMARK    2  A    between atoms: C8_12  and  O1_13 
REMARK    3  A    between atoms: C9_15  and  O2_16 
REMARK    4  A    between atoms: C10_18  and  O3_19 
REMARK    5  A    between atoms: O3_19  and  C11_20 
REMARK    6  A    between atoms: C11_20  and  C12_21 
REMARK    7  A    between atoms: C12_21  and  C13_22 
REMARK    8  A    between atoms: C13_22  and  C14_23 
ROOT
HETATM    1  C3  UNL     1     -12.520  -5.618 -18.057  1.00  0.00     0.071 C 
HETATM    2  C4  UNL     1     -11.558  -4.603 -18.525  1.00  0.00     0.227 C 
HETATM    3  C5  UNL     1     -12.231  -3.306 -18.979  1.00  0.00     0.308 C 
HETATM    4  N1  UNL     1     -11.974  -3.275 -20.376  1.00  0.00     0.120 N 
HETATM    5  C6  UNL     1     -12.952  -2.586 -21.160  1.00  0.00     0.312 C 
HETATM    6  C7  UNL     1     -11.660  -4.604 -20.792  1.00  0.00     0.450 C 
HETATM    7  N2  UNL     1     -10.898  -5.140 -19.712  1.00  0.00    -0.034 N 
ATOM      8  H21 UNL     1     -10.809  -6.157 -19.722  1.00  0.00     0.280 HD
ATOM      9  H22 UNL     1      -9.898  -4.946 -19.764  1.00  0.00     0.280 HD
HETATM   10  C8  UNL     1     -12.815  -5.404 -21.249  1.00  0.00     0.210 C 
HETATM   11  C9  UNL     1     -13.675  -6.036 -20.259  1.00  0.00     0.180 C 
HETATM   12  C10 UNL     1     -12.978  -6.645 -19.032  1.00  0.00     0.162 C 
ENDROOT
BRANCH  12  13
HETATM   13  O3  UNL     1     -12.034  -7.561 -19.448  1.00  0.00    -0.382 OA
BRANCH  13  14
HETATM   14  C11 UNL     1     -12.652  -8.783 -19.716  1.00  0.00     0.168 C 
BRANCH  14  15
HETATM   15  C12 UNL     1     -11.852  -9.649 -20.624  1.00  0.00     0.029 C 
BRANCH  15  16
HETATM   16  C13 UNL     1     -12.035 -11.111 -20.536  1.00  0.00     0.033 C 
BRANCH  16  17
HETATM   17  C14 UNL     1     -13.154 -11.581 -19.653  1.00  0.00     0.222 C 
HETATM   18  F1  UNL     1     -12.774 -11.988 -18.430  1.00  0.00    -0.255 F 
ENDBRANCH  16  17
ENDBRANCH  15  16
ENDBRANCH  14  15
ENDBRANCH  13  14
ENDBRANCH  12  13
BRANCH   1  19
HETATM   19  C2  UNL     1     -12.106  -6.306 -16.824  1.00  0.00    -0.028 C 
HETATM   20  C1  UNL     1     -11.014  -6.509 -16.234  1.00  0.00     0.007 C 
ENDBRANCH   1  19
BRANCH  11  21
HETATM   21  O2  UNL     1     -14.765  -5.326 -19.789  1.00  0.00    -0.390 OA
ATOM     22  H2  UNL     1     -14.682  -4.873 -18.958  1.00  0.00     0.210 HD
ENDBRANCH  11  21
BRANCH  10  23
HETATM   23  O1  UNL     1     -12.356  -6.366 -22.181  1.00  0.00    -0.389 OA
ATOM     24  H1  UNL     1     -11.408  -6.324 -22.217  1.00  0.00     0.210 HD
ENDBRANCH  10  23
TORSDOF 8
ENDMDL
