MODEL 1
REMARK VINA RESULT: -6.730344794      0.000      0.000
REMARK  9 active torsions:
REMARK  status: ('A' for Active; 'I' for Inactive)
REMARK    1  A    between atoms: C3_3  and  C4_4 
REMARK    2  A    between atoms: C4_4  and  C5_5 
REMARK    3  A    between atoms: C5_5  and  N1_6 
REMARK    4  A    between atoms: C7_8  and  O1_9 
REMARK    5  A    between atoms: O1_9  and  C8_10 
REMARK    6  A    between atoms: C8_10  and  C9_11 
REMARK    7  A    between atoms: C9_11  and  N2_13 
REMARK    8  A    between atoms: C11_17  and  O2_18 
REMARK    9  A    between atoms: C12_20  and  O3_21 
ROOT
HETATM    1  C1  UNL     1     -13.030 -11.866 -19.282  1.00  0.00     0.012 C 
HETATM    2  C2  UNL     1     -12.574 -10.940 -19.914  1.00  0.00    -0.117 C 
HETATM    3  C3  UNL     1     -12.046  -9.811 -20.679  1.00  0.00     0.095 C 
ENDROOT
BRANCH   3   4
HETATM    4  C4  UNL     1     -12.870  -8.544 -20.400  1.00  0.00     0.042 C 
BRANCH   4   5
HETATM    5  C5  UNL     1     -12.332  -7.968 -19.132  1.00  0.00     0.275 C 
BRANCH   5   6
HETATM    6  N1  UNL     1     -11.511  -6.824 -19.273  1.00  0.00     0.112 N 
HETATM    7  C6  UNL     1     -10.356  -6.967 -18.424  1.00  0.00     0.309 C 
HETATM    8  C7  UNL     1     -10.207  -5.924 -17.374  1.00  0.00     0.181 C 
HETATM    9  C11 UNL     1     -11.575  -5.626 -16.804  1.00  0.00     0.180 C 
HETATM   10  C12 UNL     1     -12.496  -5.070 -17.865  1.00  0.00     0.197 C 
HETATM   11  C13 UNL     1     -12.154  -5.562 -19.239  1.00  0.00     0.349 C 
HETATM   12 CL1  UNL     1     -11.102  -4.355 -20.012  1.00  0.00    -0.089 Cl
BRANCH   8  13
HETATM   13  O1  UNL     1      -9.332  -6.399 -16.401  1.00  0.00    -0.379 OA
BRANCH  13  14
HETATM   14  C8  UNL     1      -8.139  -6.869 -16.947  1.00  0.00     0.200 C 
BRANCH  14  15
HETATM   15  C9  UNL     1      -7.401  -7.572 -15.804  1.00  0.00     0.203 C 
HETATM   16  C10 UNL     1      -8.021  -7.208 -14.461  1.00  0.00     0.042 C 
BRANCH  15  17
HETATM   17  N2  UNL     1      -6.018  -7.139 -15.757  1.00  0.00    -0.073 N 
ATOM     18  H23 UNL     1      -5.936  -6.123 -15.793  1.00  0.00     0.274 HD
ATOM     19  H22 UNL     1      -5.603  -7.293 -14.839  1.00  0.00     0.274 HD
ATOM     20  H21 UNL     1      -5.481  -7.591 -16.498  1.00  0.00     0.274 HD
ENDBRANCH  15  17
ENDBRANCH  14  15
ENDBRANCH  13  14
ENDBRANCH   8  13
BRANCH   9  21
HETATM   21  O2  UNL     1     -11.442  -4.779 -15.710  1.00  0.00    -0.390 OA
ATOM     22  H2  UNL     1     -12.073  -5.026 -15.044  1.00  0.00     0.210 HD
ENDBRANCH   9  21
BRANCH  10  23
HETATM   23  O3  UNL     1     -13.839  -5.312 -17.525  1.00  0.00    -0.390 OA
ATOM     24  H3  UNL     1     -14.397  -4.626 -17.871  1.00  0.00     0.210 HD
ENDBRANCH  10  23
ENDBRANCH   5   6
ENDBRANCH   4   5
ENDBRANCH   3   4
TORSDOF 9
ENDMDL
MODEL 2
REMARK VINA RESULT: -6.702993993      2.418      5.587
REMARK  9 active torsions:
REMARK  status: ('A' for Active; 'I' for Inactive)
REMARK    1  A    between atoms: C3_3  and  C4_4 
REMARK    2  A    between atoms: C4_4  and  C5_5 
REMARK    3  A    between atoms: C5_5  and  N1_6 
REMARK    4  A    between atoms: C7_8  and  O1_9 
REMARK    5  A    between atoms: O1_9  and  C8_10 
REMARK    6  A    between atoms: C8_10  and  C9_11 
REMARK    7  A    between atoms: C9_11  and  N2_13 
REMARK    8  A    between atoms: C11_17  and  O2_18 
REMARK    9  A    between atoms: C12_20  and  O3_21 
ROOT
HETATM    1  C1  UNL     1      -7.382  -7.739 -14.060  1.00  0.00     0.012 C 
HETATM    2  C2  UNL     1      -8.163  -7.254 -14.846  1.00  0.00    -0.117 C 
HETATM    3  C3  UNL     1      -9.088  -6.662 -15.812  1.00  0.00     0.095 C 
ENDROOT
BRANCH   3   4
HETATM    4  C4  UNL     1      -8.583  -6.889 -17.245  1.00  0.00     0.042 C 
BRANCH   4   5
HETATM    5  C5  UNL     1      -9.541  -6.180 -18.143  1.00  0.00     0.275 C 
BRANCH   5   6
HETATM    6  N1  UNL     1     -10.905  -6.252 -17.771  1.00  0.00     0.112 N 
HETATM    7  C6  UNL     1     -11.529  -7.339 -18.480  1.00  0.00     0.309 C 
HETATM    8  C7  UNL     1     -12.651  -6.950 -19.376  1.00  0.00     0.181 C 
HETATM    9  C11 UNL     1     -12.276  -5.662 -20.074  1.00  0.00     0.180 C 
HETATM   10  C12 UNL     1     -12.084  -4.541 -19.078  1.00  0.00     0.197 C 
HETATM   11  C13 UNL     1     -11.628  -5.034 -17.738  1.00  0.00     0.349 C 
HETATM   12 CL1  UNL     1     -13.062  -5.239 -16.707  1.00  0.00    -0.089 Cl
BRANCH   8  13
HETATM   13  O1  UNL     1     -12.872  -7.984 -20.281  1.00  0.00    -0.379 OA
BRANCH  13  14
HETATM   14  C8  UNL     1     -12.008  -9.059 -20.076  1.00  0.00     0.200 C 
BRANCH  14  15
HETATM   15  C9  UNL     1     -12.889 -10.311 -20.062  1.00  0.00     0.203 C 
HETATM   16  C10 UNL     1     -12.036 -11.565 -19.914  1.00  0.00     0.042 C 
BRANCH  15  17
HETATM   17  N2  UNL     1     -13.604 -10.438 -21.316  1.00  0.00    -0.073 N 
ATOM     18  H23 UNL     1     -14.376  -9.775 -21.383  1.00  0.00     0.274 HD
ATOM     19  H22 UNL     1     -13.050 -10.104 -22.105  1.00  0.00     0.274 HD
ATOM     20  H21 UNL     1     -13.915 -11.400 -21.451  1.00  0.00     0.274 HD
ENDBRANCH  15  17
ENDBRANCH  14  15
ENDBRANCH  13  14
ENDBRANCH   8  13
BRANCH   9  21
HETATM   21  O2  UNL     1     -13.233  -5.368 -21.038  1.00  0.00    -0.390 OA
ATOM     22  H2  UNL     1     -14.091  -5.343 -20.630  1.00  0.00     0.210 HD
ENDBRANCH   9  21
BRANCH  10  23
HETATM   23  O3  UNL     1     -11.235  -3.555 -19.608  1.00  0.00    -0.390 OA
ATOM     24  H3  UNL     1     -11.684  -3.056 -20.279  1.00  0.00     0.210 HD
ENDBRANCH  10  23
ENDBRANCH   5   6
ENDBRANCH   4   5
ENDBRANCH   3   4
TORSDOF 9
ENDMDL
MODEL 3
REMARK VINA RESULT: -6.634985692      2.700      5.889
REMARK  9 active torsions:
REMARK  status: ('A' for Active; 'I' for Inactive)
REMARK    1  A    between atoms: C3_3  and  C4_4 
REMARK    2  A    between atoms: C4_4  and  C5_5 
REMARK    3  A    between atoms: C5_5  and  N1_6 
REMARK    4  A    between atoms: C7_8  and  O1_9 
REMARK    5  A    between atoms: O1_9  and  C8_10 
REMARK    6  A    between atoms: C8_10  and  C9_11 
REMARK    7  A    between atoms: C9_11  and  N2_13 
REMARK    8  A    between atoms: C11_17  and  O2_18 
REMARK    9  A    between atoms: C12_20  and  O3_21 
ROOT
HETATM    1  C1  UNL     1      -6.330  -8.102 -13.684  1.00  0.00     0.012 C 
HETATM    2  C2  UNL     1      -7.279  -7.578 -14.223  1.00  0.00    -0.117 C 
HETATM    3  C3  UNL     1      -8.414  -6.948 -14.897  1.00  0.00     0.095 C 
ENDROOT
BRANCH   3   4
HETATM    4  C4  UNL     1      -8.575  -7.515 -16.316  1.00  0.00     0.042 C 
BRANCH   4   5
HETATM    5  C5  UNL     1      -8.917  -6.355 -17.191  1.00  0.00     0.275 C 
BRANCH   5   6
HETATM    6  N1  UNL     1      -9.897  -6.597 -18.183  1.00  0.00     0.112 N 
HETATM    7  C6  UNL     1     -10.137  -5.379 -18.914  1.00  0.00     0.309 C 
HETATM    8  C7  UNL     1     -11.529  -4.861 -18.843  1.00  0.00     0.181 C 
HETATM    9  C11 UNL     1     -12.033  -5.047 -17.429  1.00  0.00     0.180 C 
HETATM   10  C12 UNL     1     -12.077  -6.511 -17.057  1.00  0.00     0.197 C 
HETATM   11  C13 UNL     1     -11.048  -7.321 -17.787  1.00  0.00     0.349 C 
HETATM   12 CL1  UNL     1     -11.817  -8.022 -19.229  1.00  0.00    -0.089 Cl
BRANCH   8  13
HETATM   13  O1  UNL     1     -11.521  -3.520 -19.217  1.00  0.00    -0.379 OA
BRANCH  13  14
HETATM   14  C8  UNL     1     -12.270  -3.290 -20.370  1.00  0.00     0.200 C 
BRANCH  14  15
HETATM   15  C9  UNL     1     -13.106  -2.038 -20.086  1.00  0.00     0.203 C 
HETATM   16  C10 UNL     1     -12.771  -0.933 -21.079  1.00  0.00     0.042 C 
BRANCH  15  17
HETATM   17  N2  UNL     1     -12.804  -1.520 -18.767  1.00  0.00    -0.073 N 
ATOM     18  H23 UNL     1     -12.849  -0.502 -18.738  1.00  0.00     0.274 HD
ATOM     19  H22 UNL     1     -13.548  -1.723 -18.099  1.00  0.00     0.274 HD
ATOM     20  H21 UNL     1     -11.901  -1.871 -18.447  1.00  0.00     0.274 HD
ENDBRANCH  15  17
ENDBRANCH  14  15
ENDBRANCH  13  14
ENDBRANCH   8  13
BRANCH   9  21
HETATM   21  O2  UNL     1     -13.266  -4.421 -17.295  1.00  0.00    -0.390 OA
ATOM     22  H2  UNL     1     -13.484  -4.353 -16.373  1.00  0.00     0.210 HD
ENDBRANCH   9  21
BRANCH  10  23
HETATM   23  O3  UNL     1     -11.994  -6.666 -15.662  1.00  0.00    -0.390 OA
ATOM     24  H3  UNL     1     -12.106  -7.578 -15.423  1.00  0.00     0.210 HD
ENDBRANCH  10  23
ENDBRANCH   5   6
ENDBRANCH   4   5
ENDBRANCH   3   4
TORSDOF 9
ENDMDL
MODEL 4
REMARK VINA RESULT: -6.326398439      1.056      1.628
REMARK  9 active torsions:
REMARK  status: ('A' for Active; 'I' for Inactive)
REMARK    1  A    between atoms: C3_3  and  C4_4 
REMARK    2  A    between atoms: C4_4  and  C5_5 
REMARK    3  A    between atoms: C5_5  and  N1_6 
REMARK    4  A    between atoms: C7_8  and  O1_9 
REMARK    5  A    between atoms: O1_9  and  C8_10 
REMARK    6  A    between atoms: C8_10  and  C9_11 
REMARK    7  A    between atoms: C9_11  and  N2_13 
REMARK    8  A    between atoms: C11_17  and  O2_18 
REMARK    9  A    between atoms: C12_20  and  O3_21 
ROOT
HETATM    1  C1  UNL     1     -11.323  -8.808 -23.356  1.00  0.00     0.012 C 
HETATM    2  C2  UNL     1     -11.805  -9.140 -22.297  1.00  0.00    -0.117 C 
HETATM    3  C3  UNL     1     -12.383  -9.518 -21.008  1.00  0.00     0.095 C 
ENDROOT
BRANCH   3   4
HETATM    4  C4  UNL     1     -13.064  -8.307 -20.351  1.00  0.00     0.042 C 
BRANCH   4   5
HETATM    5  C5  UNL     1     -12.260  -7.986 -19.134  1.00  0.00     0.275 C 
BRANCH   5   6
HETATM    6  N1  UNL     1     -11.434  -6.841 -19.225  1.00  0.00     0.112 N 
HETATM    7  C6  UNL     1     -10.330  -6.985 -18.310  1.00  0.00     0.309 C 
HETATM    8  C7  UNL     1     -10.244  -5.943 -17.251  1.00  0.00     0.181 C 
HETATM    9  C11 UNL     1     -11.645  -5.648 -16.762  1.00  0.00     0.180 C 
HETATM   10  C12 UNL     1     -12.502  -5.091 -17.875  1.00  0.00     0.197 C 
HETATM   11  C13 UNL     1     -12.079  -5.581 -19.227  1.00  0.00     0.349 C 
HETATM   12 CL1  UNL     1     -10.985  -4.370 -19.935  1.00  0.00    -0.089 Cl
BRANCH   8  13
HETATM   13  O1  UNL     1      -9.428  -6.418 -16.229  1.00  0.00    -0.379 OA
BRANCH  13  14
HETATM   14  C8  UNL     1      -8.229  -6.941 -16.711  1.00  0.00     0.200 C 
BRANCH  14  15
HETATM   15  C9  UNL     1      -7.306  -7.070 -15.495  1.00  0.00     0.203 C 
HETATM   16  C10 UNL     1      -6.616  -8.428 -15.488  1.00  0.00     0.042 C 
BRANCH  15  17
HETATM   17  N2  UNL     1      -8.076  -6.986 -14.270  1.00  0.00    -0.073 N 
ATOM     18  H23 UNL     1      -9.048  -6.735 -14.447  1.00  0.00     0.274 HD
ATOM     19  H22 UNL     1      -8.229  -7.904 -13.854  1.00  0.00     0.274 HD
ATOM     20  H21 UNL     1      -7.630  -6.342 -13.616  1.00  0.00     0.274 HD
ENDBRANCH  15  17
ENDBRANCH  14  15
ENDBRANCH  13  14
ENDBRANCH   8  13
BRANCH   9  21
HETATM   21  O2  UNL     1     -11.577  -4.803 -15.661  1.00  0.00    -0.390 OA
ATOM     22  H2  UNL     1     -12.358  -4.915 -15.131  1.00  0.00     0.210 HD
ENDBRANCH   9  21
BRANCH  10  23
HETATM   23  O3  UNL     1     -13.862  -5.335 -17.614  1.00  0.00    -0.390 OA
ATOM     24  H3  UNL     1     -13.971  -6.169 -17.174  1.00  0.00     0.210 HD
ENDBRANCH  10  23
ENDBRANCH   5   6
ENDBRANCH   4   5
ENDBRANCH   3   4
TORSDOF 9
ENDMDL
MODEL 5
REMARK VINA RESULT: -6.275713264      2.957      5.764
REMARK  9 active torsions:
REMARK  status: ('A' for Active; 'I' for Inactive)
REMARK    1  A    between atoms: C3_3  and  C4_4 
REMARK    2  A    between atoms: C4_4  and  C5_5 
REMARK    3  A    between atoms: C5_5  and  N1_6 
REMARK    4  A    between atoms: C7_8  and  O1_9 
REMARK    5  A    between atoms: O1_9  and  C8_10 
REMARK    6  A    between atoms: C8_10  and  C9_11 
REMARK    7  A    between atoms: C9_11  and  N2_13 
REMARK    8  A    between atoms: C11_17  and  O2_18 
REMARK    9  A    between atoms: C12_20  and  O3_21 
ROOT
HETATM    1  C1  UNL     1      -6.618  -8.602 -14.092  1.00  0.00     0.012 C 
HETATM    2  C2  UNL     1      -7.514  -7.844 -14.388  1.00  0.00    -0.117 C 
HETATM    3  C3  UNL     1      -8.584  -6.923 -14.767  1.00  0.00     0.095 C 
ENDROOT
BRANCH   3   4
HETATM    4  C4  UNL     1      -8.783  -6.931 -16.290  1.00  0.00     0.042 C 
BRANCH   4   5
HETATM    5  C5  UNL     1     -10.054  -6.193 -16.549  1.00  0.00     0.275 C 
BRANCH   5   6
HETATM    6  N1  UNL     1     -10.754  -6.559 -17.723  1.00  0.00     0.112 N 
HETATM    7  C6  UNL     1     -10.265  -5.773 -18.827  1.00  0.00     0.309 C 
HETATM    8  C7  UNL     1     -11.279  -4.908 -19.488  1.00  0.00     0.181 C 
HETATM    9  C11 UNL     1     -12.160  -4.306 -18.415  1.00  0.00     0.180 C 
HETATM   10  C12 UNL     1     -12.906  -5.381 -17.659  1.00  0.00     0.197 C 
HETATM   11  C13 UNL     1     -12.161  -6.681 -17.622  1.00  0.00     0.349 C 
HETATM   12 CL1  UNL     1     -12.754  -7.696 -18.957  1.00  0.00    -0.089 Cl
BRANCH   8  13
HETATM   13  O1  UNL     1     -10.615  -3.930 -20.222  1.00  0.00    -0.379 OA
BRANCH  13  14
HETATM   14  C8  UNL     1     -10.704  -4.150 -21.596  1.00  0.00     0.200 C 
BRANCH  14  15
HETATM   15  C9  UNL     1     -12.182  -4.433 -21.882  1.00  0.00     0.203 C 
HETATM   16  C10 UNL     1     -12.327  -5.353 -23.088  1.00  0.00     0.042 C 
BRANCH  15  17
HETATM   17  N2  UNL     1     -12.875  -3.203 -22.210  1.00  0.00    -0.073 N 
ATOM     18  H23 UNL     1     -12.560  -2.423 -21.632  1.00  0.00     0.274 HD
ATOM     19  H22 UNL     1     -12.595  -2.840 -23.120  1.00  0.00     0.274 HD
ATOM     20  H21 UNL     1     -13.884  -3.339 -22.149  1.00  0.00     0.274 HD
ENDBRANCH  15  17
ENDBRANCH  14  15
ENDBRANCH  13  14
ENDBRANCH   8  13
BRANCH   9  21
HETATM   21  O2  UNL     1     -13.006  -3.367 -18.992  1.00  0.00    -0.390 OA
ATOM     22  H2  UNL     1     -12.492  -2.631 -19.304  1.00  0.00     0.210 HD
ENDBRANCH   9  21
BRANCH  10  23
HETATM   23  O3  UNL     1     -13.258  -4.924 -16.377  1.00  0.00    -0.390 OA
ATOM     24  H3  UNL     1     -13.009  -5.561 -15.719  1.00  0.00     0.210 HD
ENDBRANCH  10  23
ENDBRANCH   5   6
ENDBRANCH   4   5
ENDBRANCH   3   4
TORSDOF 9
ENDMDL
