MODEL 1
REMARK VINA RESULT: -6.455126769      0.000      0.000
REMARK  7 active torsions:
REMARK  status: ('A' for Active; 'I' for Inactive)
REMARK    1  A    between atoms: O1_1  and  C1_3 
REMARK    2  A    between atoms: C1_3  and  C2_4 
REMARK    3  A    between atoms: C2_4  and  O2_5 
REMARK    4  A    between atoms: C2_4  and  C3_7 
REMARK    5  A    between atoms: C3_7  and  C4_8 
REMARK    6  A    between atoms: C4_8  and  N1_9 
REMARK    7  A    between atoms: C7_12  and  O3_13 
ROOT
HETATM    1  N1  UNL     1     -11.014  -6.785 -18.990  1.00  0.00     0.107 N 
HETATM    2  C5  UNL     1     -10.510  -5.567 -19.647  1.00  0.00     0.277 C 
HETATM    3  C6  UNL     1     -11.560  -4.863 -20.457  1.00  0.00     0.062 C 
HETATM    4  C7  UNL     1     -12.487  -4.214 -19.432  1.00  0.00     0.123 C 
HETATM    5  C8  UNL     1     -12.863  -5.240 -18.392  1.00  0.00     0.083 C 
HETATM    6  C9  UNL     1     -12.439  -6.641 -18.708  1.00  0.00     0.320 C 
HETATM    7 CL1  UNL     1     -13.459  -7.437 -19.922  1.00  0.00    -0.092 Cl
ENDROOT
BRANCH   1   8
HETATM    8  C4  UNL     1     -10.312  -6.912 -17.719  1.00  0.00     0.277 C 
BRANCH   8   9
HETATM    9  C3  UNL     1      -8.885  -6.516 -17.903  1.00  0.00     0.064 C 
BRANCH   9  10
HETATM   10  C2  UNL     1      -8.032  -7.071 -16.762  1.00  0.00     0.143 C 
BRANCH  10  11
HETATM   11  C1  UNL     1      -8.751  -6.780 -15.472  1.00  0.00     0.195 C 
BRANCH  11  12
HETATM   12  O1  UNL     1      -8.048  -7.080 -14.336  1.00  0.00    -0.398 OA
ATOM     13  H1  UNL     1      -8.514  -6.926 -13.522  1.00  0.00     0.209 HD
ENDBRANCH  11  12
ENDBRANCH  10  11
BRANCH  10  14
HETATM   14  O2  UNL     1      -6.799  -6.446 -16.727  1.00  0.00    -0.393 OA
ATOM     15  H2  UNL     1      -6.588  -6.147 -17.604  1.00  0.00     0.210 HD
ENDBRANCH  10  14
ENDBRANCH   9  10
ENDBRANCH   8   9
ENDBRANCH   1   8
BRANCH   4  16
HETATM   16  O3  UNL     1     -11.701  -3.210 -18.811  1.00  0.00    -0.395 OA
ATOM     17  H3  UNL     1     -12.050  -2.388 -19.137  1.00  0.00     0.210 HD
ENDBRANCH   4  16
TORSDOF 7
ENDMDL
MODEL 2
REMARK VINA RESULT: -6.309175034      0.869      1.631
REMARK  7 active torsions:
REMARK  status: ('A' for Active; 'I' for Inactive)
REMARK    1  A    between atoms: O1_1  and  C1_3 
REMARK    2  A    between atoms: C1_3  and  C2_4 
REMARK    3  A    between atoms: C2_4  and  O2_5 
REMARK    4  A    between atoms: C2_4  and  C3_7 
REMARK    5  A    between atoms: C3_7  and  C4_8 
REMARK    6  A    between atoms: C4_8  and  N1_9 
REMARK    7  A    between atoms: C7_12  and  O3_13 
ROOT
HETATM    1  N1  UNL     1     -11.080  -6.482 -17.887  1.00  0.00     0.107 N 
HETATM    2  C5  UNL     1     -10.323  -5.438 -18.598  1.00  0.00     0.277 C 
HETATM    3  C6  UNL     1     -10.910  -5.101 -19.939  1.00  0.00     0.062 C 
HETATM    4  C7  UNL     1     -12.177  -4.307 -19.630  1.00  0.00     0.123 C 
HETATM    5  C8  UNL     1     -12.981  -5.049 -18.592  1.00  0.00     0.083 C 
HETATM    6  C9  UNL     1     -12.485  -6.428 -18.280  1.00  0.00     0.320 C 
HETATM    7 CL1  UNL     1     -12.895  -7.630 -19.518  1.00  0.00    -0.092 Cl
ENDROOT
BRANCH   1   8
HETATM    8  C4  UNL     1     -10.996  -6.183 -16.464  1.00  0.00     0.277 C 
BRANCH   8   9
HETATM    9  C3  UNL     1     -10.225  -7.261 -15.778  1.00  0.00     0.064 C 
BRANCH   9  10
HETATM   10  C2  UNL     1      -8.834  -6.755 -15.398  1.00  0.00     0.143 C 
BRANCH  10  11
HETATM   11  C1  UNL     1      -7.858  -7.296 -16.410  1.00  0.00     0.195 C 
BRANCH  11  12
HETATM   12  O1  UNL     1      -7.140  -6.347 -17.088  1.00  0.00    -0.398 OA
ATOM     13  H1  UNL     1      -7.471  -6.134 -17.953  1.00  0.00     0.209 HD
ENDBRANCH  11  12
ENDBRANCH  10  11
BRANCH  10  14
HETATM   14  O2  UNL     1      -8.471  -7.219 -14.148  1.00  0.00    -0.393 OA
ATOM     15  H2  UNL     1      -9.246  -7.242 -13.598  1.00  0.00     0.210 HD
ENDBRANCH  10  14
ENDBRANCH   9  10
ENDBRANCH   8   9
ENDBRANCH   1   8
BRANCH   4  16
HETATM   16  O3  UNL     1     -11.720  -3.091 -19.061  1.00  0.00    -0.395 OA
ATOM     17  H3  UNL     1     -12.490  -2.536 -19.014  1.00  0.00     0.210 HD
ENDBRANCH   4  16
TORSDOF 7
ENDMDL
MODEL 3
REMARK VINA RESULT: -6.208304409      1.232      1.351
REMARK  7 active torsions:
REMARK  status: ('A' for Active; 'I' for Inactive)
REMARK    1  A    between atoms: O1_1  and  C1_3 
REMARK    2  A    between atoms: C1_3  and  C2_4 
REMARK    3  A    between atoms: C2_4  and  O2_5 
REMARK    4  A    between atoms: C2_4  and  C3_7 
REMARK    5  A    between atoms: C3_7  and  C4_8 
REMARK    6  A    between atoms: C4_8  and  N1_9 
REMARK    7  A    between atoms: C7_12  and  O3_13 
ROOT
HETATM    1  N1  UNL     1     -10.448  -6.644 -18.474  1.00  0.00     0.107 N 
HETATM    2  C5  UNL     1     -10.705  -5.207 -18.276  1.00  0.00     0.277 C 
HETATM    3  C6  UNL     1     -11.660  -4.639 -19.286  1.00  0.00     0.062 C 
HETATM    4  C7  UNL     1     -13.031  -5.183 -18.888  1.00  0.00     0.123 C 
HETATM    5  C8  UNL     1     -12.923  -6.671 -18.668  1.00  0.00     0.083 C 
HETATM    6  C9  UNL     1     -11.616  -7.276 -19.080  1.00  0.00     0.320 C 
HETATM    7 CL1  UNL     1     -11.448  -7.481 -20.834  1.00  0.00    -0.092 Cl
ENDROOT
BRANCH   1   8
HETATM    8  C4  UNL     1     -10.248  -7.233 -17.157  1.00  0.00     0.277 C 
BRANCH   8   9
HETATM    9  C3  UNL     1      -9.294  -6.387 -16.379  1.00  0.00     0.064 C 
BRANCH   9  10
HETATM   10  C2  UNL     1      -7.929  -7.069 -16.300  1.00  0.00     0.143 C 
BRANCH  10  11
HETATM   11  C1  UNL     1      -7.431  -6.932 -14.885  1.00  0.00     0.195 C 
BRANCH  11  12
HETATM   12  O1  UNL     1      -8.194  -7.563 -13.939  1.00  0.00    -0.398 OA
ATOM     13  H1  UNL     1      -7.946  -8.462 -13.756  1.00  0.00     0.209 HD
ENDBRANCH  11  12
ENDBRANCH  10  11
BRANCH  10  14
HETATM   14  O2  UNL     1      -7.026  -6.450 -17.144  1.00  0.00    -0.393 OA
ATOM     15  H2  UNL     1      -6.340  -7.071 -17.359  1.00  0.00     0.210 HD
ENDBRANCH  10  14
ENDBRANCH   9  10
ENDBRANCH   8   9
ENDBRANCH   1   8
BRANCH   4  16
HETATM   16  O3  UNL     1     -13.325  -4.563 -17.647  1.00  0.00    -0.395 OA
ATOM     17  H3  UNL     1     -14.101  -4.040 -17.811  1.00  0.00     0.210 HD
ENDBRANCH   4  16
TORSDOF 7
ENDMDL
MODEL 4
REMARK VINA RESULT: -6.189472304      0.637      1.337
REMARK  7 active torsions:
REMARK  status: ('A' for Active; 'I' for Inactive)
REMARK    1  A    between atoms: O1_1  and  C1_3 
REMARK    2  A    between atoms: C1_3  and  C2_4 
REMARK    3  A    between atoms: C2_4  and  O2_5 
REMARK    4  A    between atoms: C2_4  and  C3_7 
REMARK    5  A    between atoms: C3_7  and  C4_8 
REMARK    6  A    between atoms: C4_8  and  N1_9 
REMARK    7  A    between atoms: C7_12  and  O3_13 
ROOT
HETATM    1  N1  UNL     1     -10.999  -6.846 -18.817  1.00  0.00     0.107 N 
HETATM    2  C5  UNL     1     -10.430  -5.647 -19.458  1.00  0.00     0.277 C 
HETATM    3  C6  UNL     1     -11.402  -4.955 -20.370  1.00  0.00     0.062 C 
HETATM    4  C7  UNL     1     -12.405  -4.274 -19.441  1.00  0.00     0.123 C 
HETATM    5  C8  UNL     1     -12.875  -5.272 -18.412  1.00  0.00     0.083 C 
HETATM    6  C9  UNL     1     -12.441  -6.683 -18.658  1.00  0.00     0.320 C 
HETATM    7 CL1  UNL     1     -13.364  -7.500 -19.934  1.00  0.00    -0.092 Cl
ENDROOT
BRANCH   1   8
HETATM    8  C4  UNL     1     -10.407  -6.947 -17.489  1.00  0.00     0.277 C 
BRANCH   8   9
HETATM    9  C3  UNL     1      -8.960  -6.586 -17.567  1.00  0.00     0.064 C 
BRANCH   9  10
HETATM   10  C2  UNL     1      -8.329  -6.636 -16.175  1.00  0.00     0.143 C 
BRANCH  10  11
HETATM   11  C1  UNL     1      -7.128  -7.541 -16.251  1.00  0.00     0.195 C 
BRANCH  11  12
HETATM   12  O1  UNL     1      -6.225  -7.227 -17.232  1.00  0.00    -0.398 OA
ATOM     13  H1  UNL     1      -6.089  -6.297 -17.369  1.00  0.00     0.209 HD
ENDBRANCH  11  12
ENDBRANCH  10  11
BRANCH  10  14
HETATM   14  O2  UNL     1      -9.217  -7.161 -15.256  1.00  0.00    -0.393 OA
ATOM     15  H2  UNL     1      -8.952  -6.882 -14.387  1.00  0.00     0.210 HD
ENDBRANCH  10  14
ENDBRANCH   9  10
ENDBRANCH   8   9
ENDBRANCH   1   8
BRANCH   4  16
HETATM   16  O3  UNL     1     -11.663  -3.261 -18.781  1.00  0.00    -0.395 OA
ATOM     17  H3  UNL     1     -10.794  -3.303 -19.164  1.00  0.00     0.210 HD
ENDBRANCH   4  16
TORSDOF 7
ENDMDL
MODEL 5
REMARK VINA RESULT: -6.184941899      1.676      1.878
REMARK  7 active torsions:
REMARK  status: ('A' for Active; 'I' for Inactive)
REMARK    1  A    between atoms: O1_1  and  C1_3 
REMARK    2  A    between atoms: C1_3  and  C2_4 
REMARK    3  A    between atoms: C2_4  and  O2_5 
REMARK    4  A    between atoms: C2_4  and  C3_7 
REMARK    5  A    between atoms: C3_7  and  C4_8 
REMARK    6  A    between atoms: C4_8  and  N1_9 
REMARK    7  A    between atoms: C7_12  and  O3_13 
ROOT
HETATM    1  N1  UNL     1     -10.869  -6.677 -18.103  1.00  0.00     0.107 N 
HETATM    2  C5  UNL     1     -11.164  -7.281 -19.413  1.00  0.00     0.277 C 
HETATM    3  C6  UNL     1     -12.449  -6.783 -20.010  1.00  0.00     0.062 C 
HETATM    4  C7  UNL     1     -12.151  -5.357 -20.467  1.00  0.00     0.123 C 
HETATM    5  C8  UNL     1     -11.474  -4.613 -19.343  1.00  0.00     0.083 C 
HETATM    6  C9  UNL     1     -11.449  -5.339 -18.033  1.00  0.00     0.320 C 
HETATM    7 CL1  UNL     1     -13.001  -5.311 -17.174  1.00  0.00    -0.092 Cl
ENDROOT
BRANCH   1   8
HETATM    8  C4  UNL     1      -9.421  -6.547 -18.003  1.00  0.00     0.277 C 
BRANCH   8   9
HETATM    9  C3  UNL     1      -9.023  -6.560 -16.564  1.00  0.00     0.064 C 
BRANCH   9  10
HETATM   10  C2  UNL     1      -7.605  -7.109 -16.413  1.00  0.00     0.143 C 
BRANCH  10  11
HETATM   11  C1  UNL     1      -7.194  -6.923 -14.976  1.00  0.00     0.195 C 
BRANCH  11  12
HETATM   12  O1  UNL     1      -7.955  -7.602 -14.062  1.00  0.00    -0.398 OA
ATOM     13  H1  UNL     1      -8.650  -7.093 -13.660  1.00  0.00     0.209 HD
ENDBRANCH  11  12
ENDBRANCH  10  11
BRANCH  10  14
HETATM   14  O2  UNL     1      -6.724  -6.409 -17.215  1.00  0.00    -0.393 OA
ATOM     15  H2  UNL     1      -7.220  -5.790 -17.739  1.00  0.00     0.210 HD
ENDBRANCH  10  14
ENDBRANCH   9  10
ENDBRANCH   8   9
ENDBRANCH   1   8
BRANCH   4  16
HETATM   16  O3  UNL     1     -11.227  -5.500 -21.534  1.00  0.00    -0.395 OA
ATOM     17  H3  UNL     1     -10.425  -5.099 -21.219  1.00  0.00     0.210 HD
ENDBRANCH   4  16
TORSDOF 7
ENDMDL
