MODEL 1
REMARK VINA RESULT: -5.974544363      0.000      0.000
REMARK  7 active torsions:
REMARK  status: ('A' for Active; 'I' for Inactive)
REMARK    1  A    between atoms: O1_1  and  C1_3 
REMARK    2  A    between atoms: C1_3  and  C2_4 
REMARK    3  A    between atoms: C2_4  and  O2_5 
REMARK    4  A    between atoms: C2_4  and  C3_7 
REMARK    5  A    between atoms: C3_7  and  O3_8 
REMARK    6  A    between atoms: C3_7  and  N1_10 
REMARK    7  A    between atoms: C7_14  and  C8_15 
ROOT
HETATM    1  C3  UNL     1      -6.454  -8.565 -14.780  1.00  0.00     0.247 C 
ENDROOT
BRANCH   1   2
HETATM    2  C2  UNL     1      -7.319  -7.304 -14.810  1.00  0.00     0.190 C 
BRANCH   2   3
HETATM    3  C1  UNL     1      -7.862  -7.134 -16.235  1.00  0.00     0.200 C 
BRANCH   3   4
HETATM    4  O1  UNL     1      -6.956  -6.444 -17.011  1.00  0.00    -0.398 OA
ATOM      5  H1  UNL     1      -7.410  -5.923 -17.662  1.00  0.00     0.209 HD
ENDBRANCH   3   4
ENDBRANCH   2   3
BRANCH   2   6
HETATM    6  O2  UNL     1      -8.414  -7.520 -13.973  1.00  0.00    -0.389 OA
ATOM      7  H2  UNL     1      -8.102  -8.007 -13.220  1.00  0.00     0.210 HD
ENDBRANCH   2   6
ENDBRANCH   1   2
BRANCH   1   8
HETATM    8  O3  UNL     1      -6.914  -9.463 -13.847  1.00  0.00    -0.374 OA
ATOM      9  H3  UNL     1      -6.549 -10.327 -13.992  1.00  0.00     0.212 HD
ENDBRANCH   1   8
BRANCH   1  10
HETATM   10  N1  UNL     1      -5.099  -8.159 -14.620  1.00  0.00    -0.381 N 
HETATM   11  C4  UNL     1      -4.499  -8.391 -13.364  1.00  0.00     0.120 C 
HETATM   12  C5  UNL     1      -3.231  -9.166 -13.713  1.00  0.00     0.021 C 
HETATM   13  C6  UNL     1      -2.861  -8.544 -15.055  1.00  0.00     0.027 C 
HETATM   14  C7  UNL     1      -4.225  -8.393 -15.693  1.00  0.00     0.091 C 
BRANCH  14  15
HETATM   15  C8  UNL     1      -4.554  -9.599 -16.554  1.00  0.00     0.110 C 
HETATM   16 BR1  UNL     1      -3.593  -9.357 -18.233  1.00  0.00    -0.094 Br
ENDBRANCH  14  15
ENDBRANCH   1  10
TORSDOF 7
ENDMDL
MODEL 2
REMARK VINA RESULT: -5.969336363      3.155      5.224
REMARK  7 active torsions:
REMARK  status: ('A' for Active; 'I' for Inactive)
REMARK    1  A    between atoms: O1_1  and  C1_3 
REMARK    2  A    between atoms: C1_3  and  C2_4 
REMARK    3  A    between atoms: C2_4  and  O2_5 
REMARK    4  A    between atoms: C2_4  and  C3_7 
REMARK    5  A    between atoms: C3_7  and  O3_8 
REMARK    6  A    between atoms: C3_7  and  N1_10 
REMARK    7  A    between atoms: C7_14  and  C8_15 
ROOT
HETATM    1  C3  UNL     1      -7.252  -6.974 -16.380  1.00  0.00     0.247 C 
ENDROOT
BRANCH   1   2
HETATM    2  C2  UNL     1      -6.559  -8.331 -16.504  1.00  0.00     0.190 C 
BRANCH   2   3
HETATM    3  C1  UNL     1      -5.043  -8.099 -16.438  1.00  0.00     0.200 C 
BRANCH   3   4
HETATM    4  O1  UNL     1      -4.632  -7.329 -17.505  1.00  0.00    -0.398 OA
ATOM      5  H1  UNL     1      -3.851  -7.701 -17.897  1.00  0.00     0.209 HD
ENDBRANCH   3   4
ENDBRANCH   2   3
BRANCH   2   6
HETATM    6  O2  UNL     1      -6.910  -9.091 -15.389  1.00  0.00    -0.389 OA
ATOM      7  H2  UNL     1      -6.604  -9.977 -15.544  1.00  0.00     0.210 HD
ENDBRANCH   2   6
ENDBRANCH   1   2
BRANCH   1   8
HETATM    8  O3  UNL     1      -6.629  -6.180 -15.448  1.00  0.00    -0.374 OA
ATOM      9  H3  UNL     1      -5.966  -6.664 -14.970  1.00  0.00     0.212 HD
ENDBRANCH   1   8
BRANCH   1  10
HETATM   10  N1  UNL     1      -8.637  -7.211 -16.153  1.00  0.00    -0.381 N 
HETATM   11  C4  UNL     1      -9.215  -6.615 -15.012  1.00  0.00     0.120 C 
HETATM   12  C5  UNL     1     -10.412  -5.854 -15.576  1.00  0.00     0.021 C 
HETATM   13  C6  UNL     1     -10.834  -6.767 -16.722  1.00  0.00     0.027 C 
HETATM   14  C7  UNL     1      -9.488  -7.189 -17.270  1.00  0.00     0.091 C 
BRANCH  14  15
HETATM   15  C8  UNL     1      -9.056  -6.277 -18.402  1.00  0.00     0.110 C 
HETATM   16 BR1  UNL     1     -10.658  -5.899 -19.447  1.00  0.00    -0.094 Br
ENDBRANCH  14  15
ENDBRANCH   1  10
TORSDOF 7
ENDMDL
MODEL 3
REMARK VINA RESULT: -5.950850964      0.716      1.595
REMARK  7 active torsions:
REMARK  status: ('A' for Active; 'I' for Inactive)
REMARK    1  A    between atoms: O1_1  and  C1_3 
REMARK    2  A    between atoms: C1_3  and  C2_4 
REMARK    3  A    between atoms: C2_4  and  O2_5 
REMARK    4  A    between atoms: C2_4  and  C3_7 
REMARK    5  A    between atoms: C3_7  and  O3_8 
REMARK    6  A    between atoms: C3_7  and  N1_10 
REMARK    7  A    between atoms: C7_14  and  C8_15 
ROOT
HETATM    1  C3  UNL     1      -6.322  -8.863 -15.538  1.00  0.00     0.247 C 
ENDROOT
BRANCH   1   2
HETATM    2  C2  UNL     1      -7.180  -7.749 -16.137  1.00  0.00     0.190 C 
BRANCH   2   3
HETATM    3  C1  UNL     1      -7.482  -6.733 -15.028  1.00  0.00     0.200 C 
BRANCH   3   4
HETATM    4  O1  UNL     1      -8.464  -7.219 -14.191  1.00  0.00    -0.398 OA
ATOM      5  H1  UNL     1      -9.323  -7.002 -14.531  1.00  0.00     0.209 HD
ENDBRANCH   3   4
ENDBRANCH   2   3
BRANCH   2   6
HETATM    6  O2  UNL     1      -6.415  -7.094 -17.101  1.00  0.00    -0.389 OA
ATOM      7  H2  UNL     1      -6.306  -6.196 -16.812  1.00  0.00     0.210 HD
ENDBRANCH   2   6
ENDBRANCH   1   2
BRANCH   1   8
HETATM    8  O3  UNL     1      -7.075  -9.708 -14.760  1.00  0.00    -0.374 OA
ATOM      9  H3  UNL     1      -6.576 -10.029 -14.017  1.00  0.00     0.212 HD
ENDBRANCH   1   8
BRANCH   1  10
HETATM   10  N1  UNL     1      -5.213  -8.255 -14.884  1.00  0.00    -0.381 N 
HETATM   11  C4  UNL     1      -5.196  -8.294 -13.473  1.00  0.00     0.120 C 
HETATM   12  C5  UNL     1      -3.834  -8.904 -13.151  1.00  0.00     0.021 C 
HETATM   13  C6  UNL     1      -2.982  -8.349 -14.286  1.00  0.00     0.027 C 
HETATM   14  C7  UNL     1      -3.943  -8.449 -15.450  1.00  0.00     0.091 C 
BRANCH  14  15
HETATM   15  C8  UNL     1      -3.753  -9.756 -16.196  1.00  0.00     0.110 C 
HETATM   16 BR1  UNL     1      -3.623  -9.298 -18.087  1.00  0.00    -0.094 Br
ENDBRANCH  14  15
ENDBRANCH   1  10
TORSDOF 7
ENDMDL
MODEL 4
REMARK VINA RESULT: -5.894504522      6.439      7.744
REMARK  7 active torsions:
REMARK  status: ('A' for Active; 'I' for Inactive)
REMARK    1  A    between atoms: O1_1  and  C1_3 
REMARK    2  A    between atoms: C1_3  and  C2_4 
REMARK    3  A    between atoms: C2_4  and  O2_5 
REMARK    4  A    between atoms: C2_4  and  C3_7 
REMARK    5  A    between atoms: C3_7  and  O3_8 
REMARK    6  A    between atoms: C3_7  and  N1_10 
REMARK    7  A    between atoms: C7_14  and  C8_15 
ROOT
HETATM    1  C3  UNL     1     -12.451  -5.040 -18.116  1.00  0.00     0.247 C 
ENDROOT
BRANCH   1   2
HETATM    2  C2  UNL     1     -12.318  -4.026 -19.253  1.00  0.00     0.190 C 
BRANCH   2   3
HETATM    3  C1  UNL     1     -13.446  -4.291 -20.260  1.00  0.00     0.200 C 
BRANCH   3   4
HETATM    4  O1  UNL     1     -14.430  -5.063 -19.681  1.00  0.00    -0.398 OA
ATOM      5  H1  UNL     1     -15.285  -4.684 -19.847  1.00  0.00     0.209 HD
ENDBRANCH   3   4
ENDBRANCH   2   3
BRANCH   2   6
HETATM    6  O2  UNL     1     -12.532  -2.757 -18.718  1.00  0.00    -0.389 OA
ATOM      7  H2  UNL     1     -11.728  -2.263 -18.833  1.00  0.00     0.210 HD
ENDBRANCH   2   6
ENDBRANCH   1   2
BRANCH   1   8
HETATM    8  O3  UNL     1     -13.273  -4.568 -17.121  1.00  0.00    -0.374 OA
ATOM      9  H3  UNL     1     -14.179  -4.800 -17.285  1.00  0.00     0.212 HD
ENDBRANCH   1   8
BRANCH   1  10
HETATM   10  N1  UNL     1     -11.138  -5.405 -17.703  1.00  0.00    -0.381 N 
HETATM   11  C4  UNL     1     -10.848  -5.318 -16.324  1.00  0.00     0.120 C 
HETATM   12  C5  UNL     1     -10.314  -6.707 -15.985  1.00  0.00     0.021 C 
HETATM   13  C6  UNL     1      -9.597  -7.075 -17.279  1.00  0.00     0.027 C 
HETATM   14  C7  UNL     1     -10.559  -6.529 -18.312  1.00  0.00     0.091 C 
BRANCH  14  15
HETATM   15  C8  UNL     1     -11.532  -7.602 -18.764  1.00  0.00     0.110 C 
HETATM   16 BR1  UNL     1     -11.562  -7.534 -20.712  1.00  0.00    -0.094 Br
ENDBRANCH  14  15
ENDBRANCH   1  10
TORSDOF 7
ENDMDL
MODEL 5
REMARK VINA RESULT: -5.636774390      3.450      5.639
REMARK  7 active torsions:
REMARK  status: ('A' for Active; 'I' for Inactive)
REMARK    1  A    between atoms: O1_1  and  C1_3 
REMARK    2  A    between atoms: C1_3  and  C2_4 
REMARK    3  A    between atoms: C2_4  and  O2_5 
REMARK    4  A    between atoms: C2_4  and  C3_7 
REMARK    5  A    between atoms: C3_7  and  O3_8 
REMARK    6  A    between atoms: C3_7  and  N1_10 
REMARK    7  A    between atoms: C7_14  and  C8_15 
ROOT
HETATM    1  C3  UNL     1      -7.945  -7.305 -16.548  1.00  0.00     0.247 C 
ENDROOT
BRANCH   1   2
HETATM    2  C2  UNL     1      -7.333  -7.554 -15.170  1.00  0.00     0.190 C 
BRANCH   2   3
HETATM    3  C1  UNL     1      -6.587  -8.894 -15.216  1.00  0.00     0.200 C 
BRANCH   3   4
HETATM    4  O1  UNL     1      -6.131  -9.142 -16.493  1.00  0.00    -0.398 OA
ATOM      5  H1  UNL     1      -6.542  -8.548 -17.110  1.00  0.00     0.209 HD
ENDBRANCH   3   4
ENDBRANCH   2   3
BRANCH   2   6
HETATM    6  O2  UNL     1      -6.384  -6.559 -14.939  1.00  0.00    -0.389 OA
ATOM      7  H2  UNL     1      -6.747  -5.968 -14.291  1.00  0.00     0.210 HD
ENDBRANCH   2   6
ENDBRANCH   1   2
BRANCH   1   8
HETATM    8  O3  UNL     1      -7.330  -6.253 -17.184  1.00  0.00    -0.374 OA
ATOM      9  H3  UNL     1      -7.373  -6.348 -18.128  1.00  0.00     0.212 HD
ENDBRANCH   1   8
BRANCH   1  10
HETATM   10  N1  UNL     1      -9.353  -7.180 -16.384  1.00  0.00    -0.381 N 
HETATM   11  C4  UNL     1      -9.810  -6.408 -15.295  1.00  0.00     0.120 C 
HETATM   12  C5  UNL     1     -10.754  -5.399 -15.944  1.00  0.00     0.021 C 
HETATM   13  C6  UNL     1     -11.344  -6.229 -17.079  1.00  0.00     0.027 C 
HETATM   14  C7  UNL     1     -10.125  -6.997 -17.543  1.00  0.00     0.091 C 
BRANCH  14  15
HETATM   15  C8  UNL     1      -9.433  -6.273 -18.682  1.00  0.00     0.110 C 
HETATM   16 BR1  UNL     1     -10.844  -5.489 -19.776  1.00  0.00    -0.094 Br
ENDBRANCH  14  15
ENDBRANCH   1  10
TORSDOF 7
ENDMDL
