MODEL 1
REMARK VINA RESULT: -6.315954053      0.000      0.000
REMARK  7 active torsions:
REMARK  status: ('A' for Active; 'I' for Inactive)
REMARK    1  A    between atoms: C2_2  and  C3_3 
REMARK    2  A    between atoms: C3_3  and  C4_4 
REMARK    3  A    between atoms: C4_4  and  C5_5 
REMARK    4  A    between atoms: C6_6  and  O1_7 
REMARK    5  A    between atoms: C7_9  and  O2_10 
REMARK    6  A    between atoms: C8_12  and  O3_13 
REMARK    7  A    between atoms: C9_15  and  C10_16 
ROOT
HETATM    1  C5  UNL     1     -10.754  -6.760 -18.297  1.00  0.00     0.016 C 
HETATM    2  C6  UNL     1     -11.402  -5.938 -17.276  1.00  0.00     0.194 C 
HETATM    3  C7  UNL     1     -12.575  -5.088 -17.728  1.00  0.00     0.183 C 
HETATM    4  C8  UNL     1     -13.343  -5.770 -18.810  1.00  0.00     0.173 C 
HETATM    5  C9  UNL     1     -12.320  -5.891 -19.954  1.00  0.00     0.128 C 
HETATM    6  N1  UNL     1     -11.426  -6.901 -19.564  1.00  0.00    -0.381 N 
HETATM    7  C11 UNL     1     -11.712  -8.233 -19.928  1.00  0.00     0.150 C 
ENDROOT
BRANCH   1   8
HETATM    8  C4  UNL     1      -9.280  -6.562 -18.455  1.00  0.00     0.059 C 
BRANCH   8   9
HETATM    9  C3  UNL     1      -8.403  -6.492 -17.288  1.00  0.00     0.032 C 
BRANCH   9  10
HETATM   10  C2  UNL     1      -8.463  -7.482 -16.224  1.00  0.00    -0.037 C 
HETATM   11  C1  UNL     1      -8.472  -7.111 -14.933  1.00  0.00     0.007 C 
ENDBRANCH   9  10
ENDBRANCH   8   9
ENDBRANCH   1   8
BRANCH   2  12
HETATM   12  O1  UNL     1     -11.910  -6.694 -16.190  1.00  0.00    -0.387 OA
ATOM     13  H1  UNL     1     -11.655  -6.349 -15.342  1.00  0.00     0.210 HD
ENDBRANCH   2  12
BRANCH   3  14
HETATM   14  O2  UNL     1     -13.370  -4.828 -16.622  1.00  0.00    -0.390 OA
ATOM     15  H2  UNL     1     -14.279  -4.855 -16.898  1.00  0.00     0.210 HD
ENDBRANCH   3  14
BRANCH   5  16
HETATM   16  C10 UNL     1     -13.089  -6.293 -21.169  1.00  0.00     0.142 C 
HETATM   17 CL1  UNL     1     -12.258  -5.848 -22.676  1.00  0.00    -0.128 Cl
ENDBRANCH   5  16
BRANCH   4  18
HETATM   18  O3  UNL     1     -14.474  -5.100 -19.196  1.00  0.00    -0.391 OA
ATOM     19  H3  UNL     1     -14.947  -4.699 -18.477  1.00  0.00     0.210 HD
ENDBRANCH   4  18
TORSDOF 7
ENDMDL
MODEL 2
REMARK VINA RESULT: -6.229521221      2.296      2.725
REMARK  7 active torsions:
REMARK  status: ('A' for Active; 'I' for Inactive)
REMARK    1  A    between atoms: C2_2  and  C3_3 
REMARK    2  A    between atoms: C3_3  and  C4_4 
REMARK    3  A    between atoms: C4_4  and  C5_5 
REMARK    4  A    between atoms: C6_6  and  O1_7 
REMARK    5  A    between atoms: C7_9  and  O2_10 
REMARK    6  A    between atoms: C8_12  and  O3_13 
REMARK    7  A    between atoms: C9_15  and  C10_16 
ROOT
HETATM    1  C5  UNL     1     -11.718  -6.367 -18.450  1.00  0.00     0.016 C 
HETATM    2  C6  UNL     1     -11.046  -5.101 -18.741  1.00  0.00     0.194 C 
HETATM    3  C7  UNL     1     -10.630  -4.863 -20.181  1.00  0.00     0.183 C 
HETATM    4  C8  UNL     1     -11.601  -5.488 -21.127  1.00  0.00     0.173 C 
HETATM    5  C9  UNL     1     -11.504  -6.989 -20.800  1.00  0.00     0.128 C 
HETATM    6  N1  UNL     1     -12.162  -7.158 -19.571  1.00  0.00    -0.381 N 
HETATM    7  C11 UNL     1     -13.544  -7.438 -19.577  1.00  0.00     0.150 C 
ENDROOT
BRANCH   1   8
HETATM    8  C4  UNL     1     -11.098  -7.202 -17.375  1.00  0.00     0.059 C 
BRANCH   8   9
HETATM    9  C3  UNL     1     -10.756  -6.621 -16.079  1.00  0.00     0.032 C 
BRANCH   9  10
HETATM   10  C2  UNL     1      -9.394  -6.637 -15.567  1.00  0.00    -0.037 C 
HETATM   11  C1  UNL     1      -8.367  -7.017 -16.345  1.00  0.00     0.007 C 
ENDBRANCH   9  10
ENDBRANCH   8   9
ENDBRANCH   1   8
BRANCH   2  12
HETATM   12  O1  UNL     1     -11.825  -3.965 -18.406  1.00  0.00    -0.387 OA
ATOM     13  H1  UNL     1     -11.620  -3.202 -18.934  1.00  0.00     0.210 HD
ENDBRANCH   2  12
BRANCH   3  14
HETATM   14  O2  UNL     1     -10.529  -3.495 -20.380  1.00  0.00    -0.390 OA
ATOM     15  H2  UNL     1      -9.884  -3.342 -21.060  1.00  0.00     0.210 HD
ENDBRANCH   3  14
BRANCH   5  16
HETATM   16  C10 UNL     1     -12.220  -7.708 -21.895  1.00  0.00     0.142 C 
HETATM   17 CL1  UNL     1     -11.649  -9.378 -22.098  1.00  0.00    -0.128 Cl
ENDBRANCH   5  16
BRANCH   4  18
HETATM   18  O3  UNL     1     -11.338  -5.227 -22.445  1.00  0.00    -0.391 OA
ATOM     19  H3  UNL     1     -10.741  -5.845 -22.849  1.00  0.00     0.210 HD
ENDBRANCH   4  18
TORSDOF 7
ENDMDL
MODEL 3
REMARK VINA RESULT: -6.188284860      1.833      2.188
REMARK  7 active torsions:
REMARK  status: ('A' for Active; 'I' for Inactive)
REMARK    1  A    between atoms: C2_2  and  C3_3 
REMARK    2  A    between atoms: C3_3  and  C4_4 
REMARK    3  A    between atoms: C4_4  and  C5_5 
REMARK    4  A    between atoms: C6_6  and  O1_7 
REMARK    5  A    between atoms: C7_9  and  O2_10 
REMARK    6  A    between atoms: C8_12  and  O3_13 
REMARK    7  A    between atoms: C9_15  and  C10_16 
ROOT
HETATM    1  C5  UNL     1     -12.038  -6.115 -19.029  1.00  0.00     0.016 C 
HETATM    2  C6  UNL     1     -11.953  -4.764 -18.474  1.00  0.00     0.194 C 
HETATM    3  C7  UNL     1     -11.941  -3.618 -19.467  1.00  0.00     0.183 C 
HETATM    4  C8  UNL     1     -12.772  -3.939 -20.664  1.00  0.00     0.173 C 
HETATM    5  C9  UNL     1     -12.064  -5.161 -21.275  1.00  0.00     0.128 C 
HETATM    6  N1  UNL     1     -12.362  -6.241 -20.428  1.00  0.00    -0.381 N 
HETATM    7  C11 UNL     1     -13.514  -7.009 -20.693  1.00  0.00     0.150 C 
ENDROOT
BRANCH   1   8
HETATM    8  C4  UNL     1     -10.958  -7.060 -18.609  1.00  0.00     0.059 C 
BRANCH   8   9
HETATM    9  C3  UNL     1      -9.676  -6.563 -18.114  1.00  0.00     0.032 C 
BRANCH   9  10
HETATM   10  C2  UNL     1      -9.223  -6.826 -16.757  1.00  0.00    -0.037 C 
HETATM   11  C1  UNL     1     -10.056  -6.693 -15.712  1.00  0.00     0.007 C 
ENDBRANCH   9  10
ENDBRANCH   8   9
ENDBRANCH   1   8
BRANCH   2  12
HETATM   12  O1  UNL     1     -13.019  -4.456 -17.591  1.00  0.00    -0.387 OA
ATOM     13  H1  UNL     1     -13.666  -3.875 -17.974  1.00  0.00     0.210 HD
ENDBRANCH   2  12
BRANCH   3  14
HETATM   14  O2  UNL     1     -12.396  -2.480 -18.818  1.00  0.00    -0.390 OA
ATOM     15  H2  UNL     1     -12.684  -2.731 -17.948  1.00  0.00     0.210 HD
ENDBRANCH   3  14
BRANCH   5  16
HETATM   16  C10 UNL     1     -12.658  -5.362 -22.630  1.00  0.00     0.142 C 
HETATM   17 CL1  UNL     1     -11.515  -4.977 -23.936  1.00  0.00    -0.128 Cl
ENDBRANCH   5  16
BRANCH   4  18
HETATM   18  O3  UNL     1     -12.884  -2.906 -21.557  1.00  0.00    -0.391 OA
ATOM     19  H3  UNL     1     -12.173  -2.278 -21.510  1.00  0.00     0.210 HD
ENDBRANCH   4  18
TORSDOF 7
ENDMDL
MODEL 4
REMARK VINA RESULT: -6.072122295      2.439      4.501
REMARK  7 active torsions:
REMARK  status: ('A' for Active; 'I' for Inactive)
REMARK    1  A    between atoms: C2_2  and  C3_3 
REMARK    2  A    between atoms: C3_3  and  C4_4 
REMARK    3  A    between atoms: C4_4  and  C5_5 
REMARK    4  A    between atoms: C6_6  and  O1_7 
REMARK    5  A    between atoms: C7_9  and  O2_10 
REMARK    6  A    between atoms: C8_12  and  O3_13 
REMARK    7  A    between atoms: C9_15  and  C10_16 
ROOT
HETATM    1  C5  UNL     1     -11.767  -7.086 -19.972  1.00  0.00     0.016 C 
HETATM    2  C6  UNL     1     -13.106  -6.517 -20.125  1.00  0.00     0.194 C 
HETATM    3  C7  UNL     1     -13.718  -5.871 -18.896  1.00  0.00     0.183 C 
HETATM    4  C8  UNL     1     -12.669  -5.227 -18.053  1.00  0.00     0.173 C 
HETATM    5  C9  UNL     1     -11.777  -6.407 -17.628  1.00  0.00     0.128 C 
HETATM    6  N1  UNL     1     -11.040  -6.763 -18.770  1.00  0.00    -0.381 N 
HETATM    7  C11 UNL     1      -9.794  -6.142 -18.990  1.00  0.00     0.150 C 
ENDROOT
BRANCH   1   8
HETATM    8  C4  UNL     1     -11.623  -8.524 -20.354  1.00  0.00     0.059 C 
BRANCH   8   9
HETATM    9  C3  UNL     1     -12.749  -9.448 -20.236  1.00  0.00     0.032 C 
BRANCH   9  10
HETATM   10  C2  UNL     1     -12.565 -10.890 -20.279  1.00  0.00    -0.037 C 
HETATM   11  C1  UNL     1     -13.367 -11.712 -19.582  1.00  0.00     0.007 C 
ENDBRANCH   9  10
ENDBRANCH   8   9
ENDBRANCH   1   8
BRANCH   2  12
HETATM   12  O1  UNL     1     -13.176  -5.514 -21.124  1.00  0.00    -0.387 OA
ATOM     13  H1  UNL     1     -13.933  -4.948 -21.033  1.00  0.00     0.210 HD
ENDBRANCH   2  12
BRANCH   3  14
HETATM   14  O2  UNL     1     -14.668  -4.954 -19.320  1.00  0.00    -0.390 OA
ATOM     15  H2  UNL     1     -14.216  -4.228 -19.734  1.00  0.00     0.210 HD
ENDBRANCH   3  14
BRANCH   5  16
HETATM   16  C10 UNL     1     -10.881  -5.894 -16.550  1.00  0.00     0.142 C 
HETATM   17 CL1  UNL     1     -10.392  -7.167 -15.410  1.00  0.00    -0.128 Cl
ENDBRANCH   5  16
BRANCH   4  18
HETATM   18  O3  UNL     1     -13.165  -4.539 -16.977  1.00  0.00    -0.391 OA
ATOM     19  H3  UNL     1     -13.779  -5.038 -16.452  1.00  0.00     0.210 HD
ENDBRANCH   4  18
TORSDOF 7
ENDMDL
MODEL 5
REMARK VINA RESULT: -6.014855659      1.302      1.424
REMARK  7 active torsions:
REMARK  status: ('A' for Active; 'I' for Inactive)
REMARK    1  A    between atoms: C2_2  and  C3_3 
REMARK    2  A    between atoms: C3_3  and  C4_4 
REMARK    3  A    between atoms: C4_4  and  C5_5 
REMARK    4  A    between atoms: C6_6  and  O1_7 
REMARK    5  A    between atoms: C7_9  and  O2_10 
REMARK    6  A    between atoms: C8_12  and  O3_13 
REMARK    7  A    between atoms: C9_15  and  C10_16 
ROOT
HETATM    1  C5  UNL     1     -10.706  -6.146 -18.657  1.00  0.00     0.016 C 
HETATM    2  C6  UNL     1     -11.156  -4.794 -18.328  1.00  0.00     0.194 C 
HETATM    3  C7  UNL     1     -11.956  -4.063 -19.389  1.00  0.00     0.183 C 
HETATM    4  C8  UNL     1     -12.795  -5.014 -20.175  1.00  0.00     0.173 C 
HETATM    5  C9  UNL     1     -11.760  -5.933 -20.848  1.00  0.00     0.128 C 
HETATM    6  N1  UNL     1     -11.268  -6.767 -19.830  1.00  0.00    -0.381 N 
HETATM    7  C11 UNL     1     -11.923  -7.992 -19.586  1.00  0.00     0.150 C 
ENDROOT
BRANCH   1   8
HETATM    8  C4  UNL     1      -9.236  -6.393 -18.533  1.00  0.00     0.059 C 
BRANCH   8   9
HETATM    9  C3  UNL     1      -8.654  -6.827 -17.266  1.00  0.00     0.032 C 
BRANCH   9  10
HETATM   10  C2  UNL     1      -9.445  -6.917 -16.049  1.00  0.00    -0.037 C 
HETATM   11  C1  UNL     1      -8.856  -7.014 -14.845  1.00  0.00     0.007 C 
ENDBRANCH   9  10
ENDBRANCH   8   9
ENDBRANCH   1   8
BRANCH   2  12
HETATM   12  O1  UNL     1     -11.974  -4.744 -17.171  1.00  0.00    -0.387 OA
ATOM     13  H1  UNL     1     -11.945  -5.543 -16.658  1.00  0.00     0.210 HD
ENDBRANCH   2  12
BRANCH   3  14
HETATM   14  O2  UNL     1     -12.728  -3.099 -18.759  1.00  0.00    -0.390 OA
ATOM     15  H2  UNL     1     -12.172  -2.352 -18.568  1.00  0.00     0.210 HD
ENDBRANCH   3  14
BRANCH   5  16
HETATM   16  C10 UNL     1     -12.500  -6.721 -21.877  1.00  0.00     0.142 C 
HETATM   17 CL1  UNL     1     -12.150  -6.175 -23.532  1.00  0.00    -0.128 Cl
ENDBRANCH   5  16
BRANCH   4  18
HETATM   18  O3  UNL     1     -13.618  -4.407 -21.086  1.00  0.00    -0.391 OA
ATOM     19  H3  UNL     1     -13.560  -3.459 -21.086  1.00  0.00     0.210 HD
ENDBRANCH   4  18
TORSDOF 7
ENDMDL
