MODEL 1
REMARK VINA RESULT: -7.369365948      0.000      0.000
REMARK  7 active torsions:
REMARK  status: ('A' for Active; 'I' for Inactive)
REMARK    1  A    between atoms: C3_3  and  C4_4 
REMARK    2  A    between atoms: C5_5  and  C6_6 
REMARK    3  A    between atoms: C6_6  and  N1_7 
REMARK    4  A    between atoms: C8_9  and  O1_10 
REMARK    5  A    between atoms: C9_12  and  O2_13 
REMARK    6  A    between atoms: C10_15  and  C11_16 
REMARK    7  A    between atoms: C11_16  and  O3_17 
ROOT
HETATM    1  N1  UNL     1      -3.459  -6.289  -6.343  1.00  0.00    -0.387 N 
HETATM    2  C7  UNL     1      -2.749  -7.201  -5.560  1.00  0.00     0.156 C 
HETATM    3  C8  UNL     1      -1.260  -6.817  -5.608  1.00  0.00     0.165 C 
HETATM    4  C9  UNL     1      -1.231  -5.438  -4.977  1.00  0.00     0.156 C 
HETATM    5  C10 UNL     1      -1.808  -4.481  -5.996  1.00  0.00     0.058 C 
HETATM    6  C12 UNL     1      -2.809  -5.160  -6.896  1.00  0.00     0.131 C 
ENDROOT
BRANCH   1   7
HETATM    7  C6  UNL     1      -4.855  -6.267  -6.273  1.00  0.00     0.085 C 
BRANCH   7   8
HETATM    8  C5  UNL     1      -5.566  -6.606  -7.493  1.00  0.00     0.017 C 
HETATM    9  C4  UNL     1      -5.110  -6.542  -8.720  1.00  0.00     0.001 C 
BRANCH   9  10
HETATM   10  C3  UNL     1      -5.930  -6.918  -9.873  1.00  0.00    -0.004 C 
HETATM   11  C2  UNL     1      -7.025  -7.593  -9.703  1.00  0.00    -0.031 C 
HETATM   12  C1  UNL     1      -7.920  -8.019 -10.807  1.00  0.00     0.036 C 
ENDBRANCH   9  10
ENDBRANCH   7   8
ENDBRANCH   1   7
BRANCH   3  13
HETATM   13  O1  UNL     1      -0.468  -7.738  -4.961  1.00  0.00    -0.391 OA
ATOM     14  H1  UNL     1      -0.401  -7.562  -4.030  1.00  0.00     0.210 HD
ENDBRANCH   3  13
BRANCH   5  15
HETATM   15  C11 UNL     1      -2.408  -3.250  -5.373  1.00  0.00     0.173 C 
BRANCH  15  16
HETATM   16  O3  UNL     1      -3.450  -3.576  -4.503  1.00  0.00    -0.400 OA
ATOM     17  H3  UNL     1      -3.255  -3.306  -3.613  1.00  0.00     0.209 HD
ENDBRANCH  15  16
ENDBRANCH   5  15
BRANCH   4  18
HETATM   18  O2  UNL     1       0.044  -5.158  -4.576  1.00  0.00    -0.392 OA
ATOM     19  H2  UNL     1       0.048  -5.006  -3.638  1.00  0.00     0.210 HD
ENDBRANCH   4  18
TORSDOF 7
ENDMDL
MODEL 2
REMARK VINA RESULT: -7.205848660      1.299      1.473
REMARK  7 active torsions:
REMARK  status: ('A' for Active; 'I' for Inactive)
REMARK    1  A    between atoms: C3_3  and  C4_4 
REMARK    2  A    between atoms: C5_5  and  C6_6 
REMARK    3  A    between atoms: C6_6  and  N1_7 
REMARK    4  A    between atoms: C8_9  and  O1_10 
REMARK    5  A    between atoms: C9_12  and  O2_13 
REMARK    6  A    between atoms: C10_15  and  C11_16 
REMARK    7  A    between atoms: C11_16  and  O3_17 
ROOT
HETATM    1  N1  UNL     1      -2.715  -6.225  -7.293  1.00  0.00    -0.387 N 
HETATM    2  C7  UNL     1      -3.292  -7.183  -6.457  1.00  0.00     0.156 C 
HETATM    3  C8  UNL     1      -2.439  -7.282  -5.180  1.00  0.00     0.165 C 
HETATM    4  C9  UNL     1      -2.559  -5.900  -4.568  1.00  0.00     0.156 C 
HETATM    5  C10 UNL     1      -1.709  -4.975  -5.412  1.00  0.00     0.058 C 
HETATM    6  C12 UNL     1      -1.625  -5.443  -6.842  1.00  0.00     0.131 C 
ENDROOT
BRANCH   1   7
HETATM    7  C6  UNL     1      -3.427  -5.769  -8.406  1.00  0.00     0.085 C 
BRANCH   7   8
HETATM    8  C5  UNL     1      -4.775  -6.285  -8.562  1.00  0.00     0.017 C 
HETATM    9  C4  UNL     1      -5.372  -6.619  -9.680  1.00  0.00     0.001 C 
BRANCH   9  10
HETATM   10  C3  UNL     1      -6.742  -7.133  -9.704  1.00  0.00    -0.004 C 
HETATM   11  C2  UNL     1      -7.128  -7.917 -10.664  1.00  0.00    -0.031 C 
HETATM   12  C1  UNL     1      -8.494  -8.487 -10.774  1.00  0.00     0.036 C 
ENDBRANCH   9  10
ENDBRANCH   7   8
ENDBRANCH   1   7
BRANCH   3  13
HETATM   13  O1  UNL     1      -2.866  -8.293  -4.351  1.00  0.00    -0.391 OA
ATOM     14  H1  UNL     1      -3.591  -8.023  -3.801  1.00  0.00     0.210 HD
ENDBRANCH   3  13
BRANCH   5  15
HETATM   15  C11 UNL     1      -2.162  -3.541  -5.351  1.00  0.00     0.173 C 
BRANCH  15  16
HETATM   16  O3  UNL     1      -3.313  -3.404  -4.573  1.00  0.00    -0.400 OA
ATOM     17  H3  UNL     1      -3.640  -2.512  -4.594  1.00  0.00     0.209 HD
ENDBRANCH  15  16
ENDBRANCH   5  15
BRANCH   4  18
HETATM   18  O2  UNL     1      -2.210  -5.964  -3.250  1.00  0.00    -0.392 OA
ATOM     19  H2  UNL     1      -2.601  -5.230  -2.789  1.00  0.00     0.210 HD
ENDBRANCH   4  18
TORSDOF 7
ENDMDL
MODEL 3
REMARK VINA RESULT: -7.157795609      1.654      2.358
REMARK  7 active torsions:
REMARK  status: ('A' for Active; 'I' for Inactive)
REMARK    1  A    between atoms: C3_3  and  C4_4 
REMARK    2  A    between atoms: C5_5  and  C6_6 
REMARK    3  A    between atoms: C6_6  and  N1_7 
REMARK    4  A    between atoms: C8_9  and  O1_10 
REMARK    5  A    between atoms: C9_12  and  O2_13 
REMARK    6  A    between atoms: C10_15  and  C11_16 
REMARK    7  A    between atoms: C11_16  and  O3_17 
ROOT
HETATM    1  N1  UNL     1      -4.163  -5.631  -6.495  1.00  0.00    -0.387 N 
HETATM    2  C7  UNL     1      -3.298  -5.551  -7.588  1.00  0.00     0.156 C 
HETATM    3  C8  UNL     1      -2.008  -4.850  -7.129  1.00  0.00     0.165 C 
HETATM    4  C9  UNL     1      -1.451  -5.789  -6.077  1.00  0.00     0.156 C 
HETATM    5  C10 UNL     1      -2.319  -5.630  -4.848  1.00  0.00     0.058 C 
HETATM    6  C12 UNL     1      -3.730  -5.238  -5.208  1.00  0.00     0.131 C 
ENDROOT
BRANCH   1   7
HETATM    7  C6  UNL     1      -5.302  -6.438  -6.581  1.00  0.00     0.085 C 
BRANCH   7   8
HETATM    8  C5  UNL     1      -5.769  -6.751  -7.919  1.00  0.00     0.017 C 
HETATM    9  C4  UNL     1      -7.001  -6.999  -8.291  1.00  0.00     0.001 C 
BRANCH   9  10
HETATM   10  C3  UNL     1      -7.346  -7.300  -9.682  1.00  0.00    -0.004 C 
HETATM   11  C2  UNL     1      -8.267  -8.173  -9.951  1.00  0.00    -0.031 C 
HETATM   12  C1  UNL     1      -8.685  -8.544 -11.326  1.00  0.00     0.036 C 
ENDBRANCH   9  10
ENDBRANCH   7   8
ENDBRANCH   1   7
BRANCH   3  13
HETATM   13  O1  UNL     1      -1.146  -4.617  -8.175  1.00  0.00    -0.391 OA
ATOM     14  H1  UNL     1      -0.671  -3.801  -8.073  1.00  0.00     0.210 HD
ENDBRANCH   3  13
BRANCH   5  15
HETATM   15  C11 UNL     1      -2.320  -6.850  -3.966  1.00  0.00     0.173 C 
BRANCH  15  16
HETATM   16  O3  UNL     1      -2.997  -7.912  -4.567  1.00  0.00    -0.400 OA
ATOM     17  H3  UNL     1      -3.665  -8.267  -3.992  1.00  0.00     0.209 HD
ENDBRANCH  15  16
ENDBRANCH   5  15
BRANCH   4  18
HETATM   18  O2  UNL     1      -0.127  -5.515  -5.889  1.00  0.00    -0.392 OA
ATOM     19  H2  UNL     1       0.242  -6.157  -5.294  1.00  0.00     0.210 HD
ENDBRANCH   4  18
TORSDOF 7
ENDMDL
MODEL 4
REMARK VINA RESULT: -7.074213174      1.064      2.704
REMARK  7 active torsions:
REMARK  status: ('A' for Active; 'I' for Inactive)
REMARK    1  A    between atoms: C3_3  and  C4_4 
REMARK    2  A    between atoms: C5_5  and  C6_6 
REMARK    3  A    between atoms: C6_6  and  N1_7 
REMARK    4  A    between atoms: C8_9  and  O1_10 
REMARK    5  A    between atoms: C9_12  and  O2_13 
REMARK    6  A    between atoms: C10_15  and  C11_16 
REMARK    7  A    between atoms: C11_16  and  O3_17 
ROOT
HETATM    1  N1  UNL     1      -3.327  -6.009  -7.258  1.00  0.00    -0.387 N 
HETATM    2  C7  UNL     1      -2.792  -4.720  -7.276  1.00  0.00     0.156 C 
HETATM    3  C8  UNL     1      -2.699  -4.218  -5.825  1.00  0.00     0.165 C 
HETATM    4  C9  UNL     1      -1.731  -5.189  -5.177  1.00  0.00     0.156 C 
HETATM    5  C10 UNL     1      -2.480  -6.489  -4.986  1.00  0.00     0.058 C 
HETATM    6  C12 UNL     1      -3.550  -6.675  -6.030  1.00  0.00     0.131 C 
ENDROOT
BRANCH   1   7
HETATM    7  C6  UNL     1      -3.290  -6.783  -8.422  1.00  0.00     0.085 C 
BRANCH   7   8
HETATM    8  C5  UNL     1      -4.484  -6.762  -9.247  1.00  0.00     0.017 C 
HETATM    9  C4  UNL     1      -5.723  -6.926  -8.853  1.00  0.00     0.001 C 
BRANCH   9  10
HETATM   10  C3  UNL     1      -6.847  -6.879  -9.789  1.00  0.00    -0.004 C 
HETATM   11  C2  UNL     1      -7.330  -7.977 -10.285  1.00  0.00    -0.031 C 
HETATM   12  C1  UNL     1      -8.466  -8.030 -11.239  1.00  0.00     0.036 C 
ENDBRANCH   9  10
ENDBRANCH   7   8
ENDBRANCH   1   7
BRANCH   3  13
HETATM   13  O1  UNL     1      -2.295  -2.905  -5.757  1.00  0.00    -0.391 OA
ATOM     14  H1  UNL     1      -1.717  -2.747  -5.020  1.00  0.00     0.210 HD
ENDBRANCH   3  13
BRANCH   5  15
HETATM   15  C11 UNL     1      -1.573  -7.689  -4.939  1.00  0.00     0.173 C 
BRANCH  15  16
HETATM   16  O3  UNL     1      -0.234  -7.310  -4.831  1.00  0.00    -0.400 OA
ATOM     17  H3  UNL     1       0.344  -7.977  -5.184  1.00  0.00     0.209 HD
ENDBRANCH  15  16
ENDBRANCH   5  15
BRANCH   4  18
HETATM   18  O2  UNL     1      -1.239  -4.631  -4.032  1.00  0.00    -0.392 OA
ATOM     19  H2  UNL     1      -0.436  -4.163  -4.234  1.00  0.00     0.210 HD
ENDBRANCH   4  18
TORSDOF 7
ENDMDL
MODEL 5
REMARK VINA RESULT: -6.971599917      4.489      7.553
REMARK  7 active torsions:
REMARK  status: ('A' for Active; 'I' for Inactive)
REMARK    1  A    between atoms: C3_3  and  C4_4 
REMARK    2  A    between atoms: C5_5  and  C6_6 
REMARK    3  A    between atoms: C6_6  and  N1_7 
REMARK    4  A    between atoms: C8_9  and  O1_10 
REMARK    5  A    between atoms: C9_12  and  O2_13 
REMARK    6  A    between atoms: C10_15  and  C11_16 
REMARK    7  A    between atoms: C11_16  and  O3_17 
ROOT
HETATM    1  N1  UNL     1      -6.905  -6.792  -9.279  1.00  0.00    -0.387 N 
HETATM    2  C7  UNL     1      -7.347  -7.103  -7.992  1.00  0.00     0.156 C 
HETATM    3  C8  UNL     1      -8.879  -7.235  -8.030  1.00  0.00     0.165 C 
HETATM    4  C9  UNL     1      -9.110  -8.403  -8.970  1.00  0.00     0.156 C 
HETATM    5  C10 UNL     1      -8.828  -7.899 -10.368  1.00  0.00     0.058 C 
HETATM    6  C12 UNL     1      -7.809  -6.789 -10.367  1.00  0.00     0.131 C 
ENDROOT
BRANCH   1   7
HETATM    7  C6  UNL     1      -5.538  -6.858  -9.568  1.00  0.00     0.085 C 
BRANCH   7   8
HETATM    8  C5  UNL     1      -4.634  -6.555  -8.473  1.00  0.00     0.017 C 
HETATM    9  C4  UNL     1      -3.327  -6.648  -8.476  1.00  0.00     0.001 C 
BRANCH   9  10
HETATM   10  C3  UNL     1      -2.523  -6.308  -7.301  1.00  0.00    -0.004 C 
HETATM   11  C2  UNL     1      -2.590  -7.037  -6.230  1.00  0.00    -0.031 C 
HETATM   12  C1  UNL     1      -1.815  -6.773  -4.992  1.00  0.00     0.036 C 
ENDBRANCH   9  10
ENDBRANCH   7   8
ENDBRANCH   1   7
BRANCH   3  13
HETATM   13  O1  UNL     1      -9.414  -7.419  -6.776  1.00  0.00    -0.391 OA
ATOM     14  H1  UNL     1     -10.112  -6.802  -6.591  1.00  0.00     0.210 HD
ENDBRANCH   3  13
BRANCH   5  15
HETATM   15  C11 UNL     1      -8.417  -8.993 -11.316  1.00  0.00     0.173 C 
BRANCH  15  16
HETATM   16  O3  UNL     1      -9.497  -9.813 -11.646  1.00  0.00    -0.400 OA
ATOM     17  H3  UNL     1     -10.080  -9.386 -12.263  1.00  0.00     0.209 HD
ENDBRANCH  15  16
ENDBRANCH   5  15
BRANCH   4  18
HETATM   18  O2  UNL     1     -10.369  -8.892  -8.773  1.00  0.00    -0.392 OA
ATOM     19  H2  UNL     1     -10.975  -8.427  -9.338  1.00  0.00     0.210 HD
ENDBRANCH   4  18
TORSDOF 7
ENDMDL
