MODEL 1
REMARK VINA RESULT: -6.072651977      0.000      0.000
REMARK  6 active torsions:
REMARK  status: ('A' for Active; 'I' for Inactive)
REMARK    1  A    between atoms: C2_2  and  C3_3 
REMARK    2  A    between atoms: C2_2  and  N2_11 
REMARK    3  A    between atoms: C9_13  and  C10_14 
REMARK    4  A    between atoms: C10_14  and  O1_15 
REMARK    5  A    between atoms: C11_17  and  C12_18 
REMARK    6  A    between atoms: C12_18  and  O2_19 
ROOT
HETATM    1  N2  UNL     1      -4.505  -6.980  -8.215  1.00  0.00     0.100 N 
HETATM    2  C8  UNL     1      -3.684  -6.220  -9.088  1.00  0.00     0.282 C 
HETATM    3  C9  UNL     1      -3.174  -5.402  -7.954  1.00  0.00     0.073 C 
HETATM    4  C11 UNL     1      -3.863  -6.367  -7.047  1.00  0.00     0.254 C 
ENDROOT
BRANCH   1   5
HETATM    5  C2  UNL     1      -5.917  -6.708  -8.183  1.00  0.00     0.223 C 
HETATM    6  C1  UNL     1      -6.273  -6.418  -6.731  1.00  0.00     0.043 C 
BRANCH   5   7
HETATM    7  C3  UNL     1      -6.751  -7.811  -8.758  1.00  0.00     0.022 C 
HETATM    8  C4  UNL     1      -8.178  -7.804  -8.298  1.00  0.00     0.034 C 
HETATM    9  C5  UNL     1      -8.928  -8.773  -9.223  1.00  0.00     0.232 C 
HETATM   10  N1  UNL     1      -9.038  -8.254 -10.553  1.00  0.00    -0.075 N 
HETATM   11  C6  UNL     1      -8.081  -7.162 -10.754  1.00  0.00     0.232 C 
ATOM     12  H12 UNL     1      -8.933  -8.985 -11.257  1.00  0.00     0.277 HD
ATOM     13  H11 UNL     1      -9.992  -7.969 -10.773  1.00  0.00     0.277 HD
HETATM   14  C7  UNL     1      -6.727  -7.652 -10.281  1.00  0.00     0.034 C 
ENDBRANCH   5   7
ENDBRANCH   1   5
BRANCH   4  15
HETATM   15  C12 UNL     1      -2.998  -7.349  -6.321  1.00  0.00     0.200 C 
BRANCH  15  16
HETATM   16  O2  UNL     1      -3.477  -7.459  -4.997  1.00  0.00    -0.399 OA
ATOM     17  H2  UNL     1      -3.063  -6.782  -4.476  1.00  0.00     0.209 HD
ENDBRANCH  15  16
ENDBRANCH   4  15
BRANCH   3  18
HETATM   18  C10 UNL     1      -1.668  -5.396  -7.906  1.00  0.00     0.172 C 
BRANCH  18  19
HETATM   19  O1  UNL     1      -1.144  -4.397  -7.106  1.00  0.00    -0.400 OA
ATOM     20  H1  UNL     1      -0.501  -3.854  -7.548  1.00  0.00     0.209 HD
ENDBRANCH  18  19
ENDBRANCH   3  18
TORSDOF 6
ENDMDL
MODEL 2
REMARK VINA RESULT: -5.996929306      1.227      2.755
REMARK  6 active torsions:
REMARK  status: ('A' for Active; 'I' for Inactive)
REMARK    1  A    between atoms: C2_2  and  C3_3 
REMARK    2  A    between atoms: C2_2  and  N2_11 
REMARK    3  A    between atoms: C9_13  and  C10_14 
REMARK    4  A    between atoms: C10_14  and  O1_15 
REMARK    5  A    between atoms: C11_17  and  C12_18 
REMARK    6  A    between atoms: C12_18  and  O2_19 
ROOT
HETATM    1  N2  UNL     1      -4.465  -5.911  -7.294  1.00  0.00     0.100 N 
HETATM    2  C8  UNL     1      -4.703  -6.186  -5.923  1.00  0.00     0.282 C 
HETATM    3  C9  UNL     1      -3.270  -6.525  -5.705  1.00  0.00     0.073 C 
HETATM    4  C11 UNL     1      -3.016  -6.003  -7.081  1.00  0.00     0.254 C 
ENDROOT
BRANCH   1   5
HETATM    5  C2  UNL     1      -4.868  -6.883  -8.274  1.00  0.00     0.223 C 
HETATM    6  C1  UNL     1      -3.736  -6.976  -9.288  1.00  0.00     0.043 C 
BRANCH   5   7
HETATM    7  C3  UNL     1      -6.181  -6.568  -8.923  1.00  0.00     0.022 C 
HETATM    8  C4  UNL     1      -6.391  -7.248 -10.243  1.00  0.00     0.034 C 
HETATM    9  C5  UNL     1      -7.879  -7.074 -10.579  1.00  0.00     0.232 C 
HETATM   10  N1  UNL     1      -8.711  -7.846  -9.706  1.00  0.00    -0.075 N 
HETATM   11  C6  UNL     1      -7.959  -8.255  -8.517  1.00  0.00     0.232 C 
ATOM     12  H12 UNL     1      -9.569  -7.351  -9.461  1.00  0.00     0.277 HD
ATOM     13  H11 UNL     1      -9.128  -8.643 -10.186  1.00  0.00     0.277 HD
HETATM   14  C7  UNL     1      -7.283  -7.019  -7.959  1.00  0.00     0.034 C 
ENDBRANCH   5   7
ENDBRANCH   1   5
BRANCH   4  15
HETATM   15  C12 UNL     1      -2.361  -4.662  -7.187  1.00  0.00     0.200 C 
BRANCH  15  16
HETATM   16  O2  UNL     1      -1.044  -4.854  -7.659  1.00  0.00    -0.399 OA
ATOM     17  H2  UNL     1      -0.452  -4.399  -7.072  1.00  0.00     0.209 HD
ENDBRANCH  15  16
ENDBRANCH   4  15
BRANCH   3  18
HETATM   18  C10 UNL     1      -2.677  -5.732  -4.569  1.00  0.00     0.172 C 
BRANCH  18  19
HETATM   19  O1  UNL     1      -2.147  -6.520  -3.562  1.00  0.00    -0.400 OA
ATOM     20  H1  UNL     1      -2.749  -6.673  -2.844  1.00  0.00     0.209 HD
ENDBRANCH  18  19
ENDBRANCH   3  18
TORSDOF 6
ENDMDL
MODEL 3
REMARK VINA RESULT: -5.954952250      2.920      5.809
REMARK  6 active torsions:
REMARK  status: ('A' for Active; 'I' for Inactive)
REMARK    1  A    between atoms: C2_2  and  C3_3 
REMARK    2  A    between atoms: C2_2  and  N2_11 
REMARK    3  A    between atoms: C9_13  and  C10_14 
REMARK    4  A    between atoms: C10_14  and  O1_15 
REMARK    5  A    between atoms: C11_17  and  C12_18 
REMARK    6  A    between atoms: C12_18  and  O2_19 
ROOT
HETATM    1  N2  UNL     1      -5.866  -6.525  -8.389  1.00  0.00     0.100 N 
HETATM    2  C8  UNL     1      -5.575  -6.847  -9.739  1.00  0.00     0.282 C 
HETATM    3  C9  UNL     1      -6.497  -8.015  -9.697  1.00  0.00     0.073 C 
HETATM    4  C11 UNL     1      -6.953  -7.510  -8.367  1.00  0.00     0.254 C 
ENDROOT
BRANCH   1   5
HETATM    5  C2  UNL     1      -4.899  -6.855  -7.376  1.00  0.00     0.223 C 
HETATM    6  C1  UNL     1      -5.307  -6.098  -6.120  1.00  0.00     0.043 C 
BRANCH   5   7
HETATM    7  C3  UNL     1      -3.487  -6.559  -7.779  1.00  0.00     0.022 C 
HETATM    8  C4  UNL     1      -3.174  -5.097  -7.884  1.00  0.00     0.034 C 
HETATM    9  C5  UNL     1      -1.645  -4.995  -7.976  1.00  0.00     0.232 C 
HETATM   10  N1  UNL     1      -1.017  -5.350  -6.739  1.00  0.00    -0.075 N 
HETATM   11  C6  UNL     1      -1.957  -6.077  -5.881  1.00  0.00     0.232 C 
ATOM     12  H12 UNL     1      -0.153  -5.873  -6.886  1.00  0.00     0.277 HD
ATOM     13  H11 UNL     1      -0.622  -4.536  -6.266  1.00  0.00     0.277 HD
HETATM   14  C7  UNL     1      -2.573  -7.180  -6.718  1.00  0.00     0.034 C 
ENDBRANCH   5   7
ENDBRANCH   1   5
BRANCH   4  15
HETATM   15  C12 UNL     1      -8.293  -6.846  -8.318  1.00  0.00     0.200 C 
BRANCH  15  16
HETATM   16  O2  UNL     1      -8.921  -7.216  -7.109  1.00  0.00    -0.399 OA
ATOM     17  H2  UNL     1      -9.858  -7.102  -7.216  1.00  0.00     0.209 HD
ENDBRANCH  15  16
ENDBRANCH   4  15
BRANCH   3  18
HETATM   18  C10 UNL     1      -7.508  -7.967 -10.813  1.00  0.00     0.172 C 
BRANCH  18  19
HETATM   19  O1  UNL     1      -8.010  -9.209 -11.159  1.00  0.00    -0.400 OA
ATOM     20  H1  UNL     1      -8.111  -9.330 -12.096  1.00  0.00     0.209 HD
ENDBRANCH  18  19
ENDBRANCH   3  18
TORSDOF 6
ENDMDL
MODEL 4
REMARK VINA RESULT: -5.852221832      2.961      4.689
REMARK  6 active torsions:
REMARK  status: ('A' for Active; 'I' for Inactive)
REMARK    1  A    between atoms: C2_2  and  C3_3 
REMARK    2  A    between atoms: C2_2  and  N2_11 
REMARK    3  A    between atoms: C9_13  and  C10_14 
REMARK    4  A    between atoms: C10_14  and  O1_15 
REMARK    5  A    between atoms: C11_17  and  C12_18 
REMARK    6  A    between atoms: C12_18  and  O2_19 
ROOT
HETATM    1  N2  UNL     1      -2.440  -5.292  -5.093  1.00  0.00     0.100 N 
HETATM    2  C8  UNL     1      -1.902  -5.604  -3.818  1.00  0.00     0.282 C 
HETATM    3  C9  UNL     1      -0.889  -4.520  -3.940  1.00  0.00     0.073 C 
HETATM    4  C11 UNL     1      -1.625  -4.073  -5.160  1.00  0.00     0.254 C 
ENDROOT
BRANCH   1   5
HETATM    5  C2  UNL     1      -2.119  -6.145  -6.206  1.00  0.00     0.223 C 
HETATM    6  C1  UNL     1      -1.366  -5.285  -7.212  1.00  0.00     0.043 C 
BRANCH   5   7
HETATM    7  C3  UNL     1      -3.316  -6.807  -6.816  1.00  0.00     0.022 C 
HETATM    8  C4  UNL     1      -4.615  -6.117  -6.521  1.00  0.00     0.034 C 
HETATM    9  C5  UNL     1      -5.649  -6.730  -7.476  1.00  0.00     0.232 C 
HETATM   10  N1  UNL     1      -5.406  -6.346  -8.834  1.00  0.00    -0.075 N 
HETATM   11  C6  UNL     1      -4.044  -5.823  -8.979  1.00  0.00     0.232 C 
ATOM     12  H12 UNL     1      -5.590  -7.110  -9.485  1.00  0.00     0.277 HD
ATOM     13  H11 UNL     1      -6.105  -5.686  -9.173  1.00  0.00     0.277 HD
HETATM   14  C7  UNL     1      -3.103  -6.820  -8.333  1.00  0.00     0.034 C 
ENDBRANCH   5   7
ENDBRANCH   1   5
BRANCH   4  15
HETATM   15  C12 UNL     1      -2.468  -2.844  -5.030  1.00  0.00     0.200 C 
BRANCH  15  16
HETATM   16  O2  UNL     1      -1.860  -1.815  -5.781  1.00  0.00    -0.399 OA
ATOM     17  H2  UNL     1      -1.847  -1.029  -5.247  1.00  0.00     0.209 HD
ENDBRANCH  15  16
ENDBRANCH   4  15
BRANCH   3  18
HETATM   18  C10 UNL     1      -0.925  -3.588  -2.757  1.00  0.00     0.172 C 
BRANCH  18  19
HETATM   19  O1  UNL     1       0.144  -2.711  -2.712  1.00  0.00    -0.400 OA
ATOM     20  H1  UNL     1      -0.106  -1.802  -2.833  1.00  0.00     0.209 HD
ENDBRANCH  18  19
ENDBRANCH   3  18
TORSDOF 6
ENDMDL
MODEL 5
REMARK VINA RESULT: -5.820290858      3.559      6.853
REMARK  6 active torsions:
REMARK  status: ('A' for Active; 'I' for Inactive)
REMARK    1  A    between atoms: C2_2  and  C3_3 
REMARK    2  A    between atoms: C2_2  and  N2_11 
REMARK    3  A    between atoms: C9_13  and  C10_14 
REMARK    4  A    between atoms: C10_14  and  O1_15 
REMARK    5  A    between atoms: C11_17  and  C12_18 
REMARK    6  A    between atoms: C12_18  and  O2_19 
ROOT
HETATM    1  N2  UNL     1      -2.824  -6.154  -6.497  1.00  0.00     0.100 N 
HETATM    2  C8  UNL     1      -3.899  -6.925  -5.985  1.00  0.00     0.282 C 
HETATM    3  C9  UNL     1      -4.897  -6.020  -6.617  1.00  0.00     0.073 C 
HETATM    4  C11 UNL     1      -3.752  -5.377  -7.327  1.00  0.00     0.254 C 
ENDROOT
BRANCH   1   5
HETATM    5  C2  UNL     1      -2.122  -5.269  -5.606  1.00  0.00     0.223 C 
HETATM    6  C1  UNL     1      -0.638  -5.452  -5.890  1.00  0.00     0.043 C 
BRANCH   5   7
HETATM    7  C3  UNL     1      -2.451  -5.491  -4.162  1.00  0.00     0.022 C 
HETATM    8  C4  UNL     1      -1.319  -6.052  -3.355  1.00  0.00     0.034 C 
HETATM    9  C5  UNL     1      -1.729  -5.899  -1.883  1.00  0.00     0.232 C 
HETATM   10  N1  UNL     1      -1.737  -4.526  -1.478  1.00  0.00    -0.075 N 
HETATM   11  C6  UNL     1      -1.745  -3.648  -2.652  1.00  0.00     0.232 C 
ATOM     12  H12 UNL     1      -2.510  -4.320  -0.844  1.00  0.00     0.277 HD
ATOM     13  H11 UNL     1      -0.964  -4.311  -0.848  1.00  0.00     0.277 HD
HETATM   14  C7  UNL     1      -2.847  -4.134  -3.573  1.00  0.00     0.034 C 
ENDBRANCH   5   7
ENDBRANCH   1   5
BRANCH   4  15
HETATM   15  C12 UNL     1      -3.589  -5.700  -8.779  1.00  0.00     0.200 C 
BRANCH  15  16
HETATM   16  O2  UNL     1      -3.373  -4.490  -9.475  1.00  0.00    -0.399 OA
ATOM     17  H2  UNL     1      -2.953  -4.697 -10.301  1.00  0.00     0.209 HD
ENDBRANCH  15  16
ENDBRANCH   4  15
BRANCH   3  18
HETATM   18  C10 UNL     1      -5.875  -6.780  -7.474  1.00  0.00     0.172 C 
BRANCH  18  19
HETATM   19  O1  UNL     1      -7.192  -6.406  -7.276  1.00  0.00    -0.400 OA
ATOM     20  H1  UNL     1      -7.611  -6.066  -8.058  1.00  0.00     0.209 HD
ENDBRANCH  18  19
ENDBRANCH   3  18
TORSDOF 6
ENDMDL
