MODEL 1
REMARK VINA RESULT: -6.969116281      0.000      0.000
REMARK  7 active torsions:
REMARK  status: ('A' for Active; 'I' for Inactive)
REMARK    1  A    between atoms: C2_2  and  C3_3 
REMARK    2  A    between atoms: C3_3  and  C4_4 
REMARK    3  A    between atoms: C4_4  and  C5_5 
REMARK    4  A    between atoms: C5_5  and  O1_6 
REMARK    5  A    between atoms: C5_5  and  C6_8 
REMARK    6  A    between atoms: C9_11  and  N1_12 
REMARK    7  A    between atoms: C12_19  and  O2_20 
ROOT
HETATM    1  C6  UNL     1      -2.401  -6.497  -7.081  1.00  0.00     0.076 C 
HETATM    2  C7  UNL     1      -2.612  -7.288  -5.816  1.00  0.00     0.050 C 
HETATM    3  C8  UNL     1      -1.282  -7.169  -5.144  1.00  0.00     0.259 C 
HETATM    4  C9  UNL     1      -1.245  -6.744  -3.709  1.00  0.00     0.249 C 
HETATM    5  C10 UNL     1      -1.485  -5.362  -4.291  1.00  0.00     0.255 C 
HETATM    6  C11 UNL     1      -0.775  -4.230  -3.630  1.00  0.00     0.045 C 
HETATM    7  N2  UNL     1      -0.802  -5.828  -5.474  1.00  0.00     0.130 N 
HETATM    8  C12 UNL     1      -1.332  -5.499  -6.752  1.00  0.00     0.364 C 
ENDROOT
BRANCH   1   9
HETATM    9  C5  UNL     1      -3.598  -5.804  -7.617  1.00  0.00     0.126 C 
BRANCH   9  10
HETATM   10  C4  UNL     1      -4.257  -6.462  -8.809  1.00  0.00     0.036 C 
BRANCH  10  11
HETATM   11  C3  UNL     1      -5.662  -6.864  -8.516  1.00  0.00     0.029 C 
BRANCH  11  12
HETATM   12  C2  UNL     1      -6.461  -6.861  -9.809  1.00  0.00    -0.037 C 
HETATM   13  C1  UNL     1      -7.158  -7.879 -10.208  1.00  0.00     0.007 C 
ENDBRANCH  11  12
ENDBRANCH  10  11
ENDBRANCH   9  10
BRANCH   9  14
HETATM   14  O1  UNL     1      -4.604  -5.543  -6.701  1.00  0.00    -0.395 OA
ATOM     15  H1  UNL     1      -4.179  -5.234  -5.909  1.00  0.00     0.210 HD
ENDBRANCH   9  14
ENDBRANCH   1   9
BRANCH   8  16
HETATM   16  O2  UNL     1      -1.722  -4.197  -6.928  1.00  0.00    -0.367 OA
ATOM     17  H2  UNL     1      -0.999  -3.580  -6.931  1.00  0.00     0.212 HD
ENDBRANCH   8  16
BRANCH   4  18
HETATM   18  N1  UNL     1      -2.245  -7.258  -2.840  1.00  0.00    -0.071 N 
ATOM     19  H13 UNL     1      -2.985  -7.688  -3.396  1.00  0.00     0.274 HD
ATOM     20  H12 UNL     1      -1.877  -8.072  -2.347  1.00  0.00     0.274 HD
ATOM     21  H11 UNL     1      -2.662  -6.617  -2.165  1.00  0.00     0.274 HD
ENDBRANCH   4  18
TORSDOF 7
ENDMDL
MODEL 2
REMARK VINA RESULT: -6.877473992      1.294      1.318
REMARK  7 active torsions:
REMARK  status: ('A' for Active; 'I' for Inactive)
REMARK    1  A    between atoms: C2_2  and  C3_3 
REMARK    2  A    between atoms: C3_3  and  C4_4 
REMARK    3  A    between atoms: C4_4  and  C5_5 
REMARK    4  A    between atoms: C5_5  and  O1_6 
REMARK    5  A    between atoms: C5_5  and  C6_8 
REMARK    6  A    between atoms: C9_11  and  N1_12 
REMARK    7  A    between atoms: C12_19  and  O2_20 
ROOT
HETATM    1  C6  UNL     1      -2.621  -5.540  -6.588  1.00  0.00     0.076 C 
HETATM    2  C7  UNL     1      -1.851  -6.702  -6.015  1.00  0.00     0.050 C 
HETATM    3  C8  UNL     1      -0.801  -6.015  -5.203  1.00  0.00     0.259 C 
HETATM    4  C9  UNL     1      -0.600  -6.450  -3.784  1.00  0.00     0.249 C 
HETATM    5  C10 UNL     1      -1.852  -5.626  -3.536  1.00  0.00     0.255 C 
HETATM    6  C11 UNL     1      -1.894  -4.848  -2.265  1.00  0.00     0.045 C 
HETATM    7  N2  UNL     1      -1.450  -4.821  -4.664  1.00  0.00     0.130 N 
HETATM    8  C12 UNL     1      -2.432  -4.420  -5.610  1.00  0.00     0.364 C 
ENDROOT
BRANCH   1   9
HETATM    9  C5  UNL     1      -4.066  -5.776  -6.822  1.00  0.00     0.126 C 
BRANCH   9  10
HETATM   10  C4  UNL     1      -4.442  -6.203  -8.224  1.00  0.00     0.036 C 
BRANCH  10  11
HETATM   11  C3  UNL     1      -5.825  -6.755  -8.284  1.00  0.00     0.029 C 
BRANCH  11  12
HETATM   12  C2  UNL     1      -6.239  -6.904  -9.738  1.00  0.00    -0.037 C 
HETATM   13  C1  UNL     1      -7.174  -7.715 -10.126  1.00  0.00     0.007 C 
ENDBRANCH  11  12
ENDBRANCH  10  11
ENDBRANCH   9  10
BRANCH   9  14
HETATM   14  O1  UNL     1      -4.680  -6.667  -5.957  1.00  0.00    -0.395 OA
ATOM     15  H1  UNL     1      -5.078  -6.148  -5.268  1.00  0.00     0.210 HD
ENDBRANCH   9  14
ENDBRANCH   1   9
BRANCH   8  16
HETATM   16  O2  UNL     1      -3.607  -3.936  -5.095  1.00  0.00    -0.367 OA
ATOM     17  H2  UNL     1      -3.559  -3.728  -4.169  1.00  0.00     0.212 HD
ENDBRANCH   8  16
BRANCH   4  18
HETATM   18  N1  UNL     1      -0.680  -7.841  -3.500  1.00  0.00    -0.071 N 
ATOM     19  H13 UNL     1      -1.610  -8.181  -3.745  1.00  0.00     0.274 HD
ATOM     20  H12 UNL     1      -0.106  -8.354  -4.168  1.00  0.00     0.274 HD
ATOM     21  H11 UNL     1      -0.450  -8.146  -2.555  1.00  0.00     0.274 HD
ENDBRANCH   4  18
TORSDOF 7
ENDMDL
MODEL 3
REMARK VINA RESULT: -6.090236659      1.272      1.465
REMARK  7 active torsions:
REMARK  status: ('A' for Active; 'I' for Inactive)
REMARK    1  A    between atoms: C2_2  and  C3_3 
REMARK    2  A    between atoms: C3_3  and  C4_4 
REMARK    3  A    between atoms: C4_4  and  C5_5 
REMARK    4  A    between atoms: C5_5  and  O1_6 
REMARK    5  A    between atoms: C5_5  and  C6_8 
REMARK    6  A    between atoms: C9_11  and  N1_12 
REMARK    7  A    between atoms: C12_19  and  O2_20 
ROOT
HETATM    1  C6  UNL     1      -2.176  -6.594  -6.065  1.00  0.00     0.076 C 
HETATM    2  C7  UNL     1      -2.946  -6.380  -4.788  1.00  0.00     0.050 C 
HETATM    3  C8  UNL     1      -1.856  -6.350  -3.764  1.00  0.00     0.259 C 
HETATM    4  C9  UNL     1      -1.830  -5.217  -2.785  1.00  0.00     0.249 C 
HETATM    5  C10 UNL     1      -1.251  -4.445  -3.958  1.00  0.00     0.255 C 
HETATM    6  C11 UNL     1      -0.179  -3.459  -3.640  1.00  0.00     0.045 C 
HETATM    7  N2  UNL     1      -0.723  -5.703  -4.425  1.00  0.00     0.130 N 
HETATM    8  C12 UNL     1      -0.815  -6.019  -5.809  1.00  0.00     0.364 C 
ENDROOT
BRANCH   1   9
HETATM    9  C5  UNL     1      -2.764  -5.986  -7.283  1.00  0.00     0.126 C 
BRANCH   9  10
HETATM   10  C4  UNL     1      -3.903  -6.756  -7.915  1.00  0.00     0.036 C 
BRANCH  10  11
HETATM   11  C3  UNL     1      -4.396  -6.099  -9.159  1.00  0.00     0.029 C 
BRANCH  11  12
HETATM   12  C2  UNL     1      -5.627  -6.836  -9.658  1.00  0.00    -0.037 C 
HETATM   13  C1  UNL     1      -6.725  -6.917  -8.974  1.00  0.00     0.007 C 
ENDBRANCH  11  12
ENDBRANCH  10  11
ENDBRANCH   9  10
BRANCH   9  14
HETATM   14  O1  UNL     1      -3.195  -4.675  -7.156  1.00  0.00    -0.395 OA
ATOM     15  H1  UNL     1      -2.451  -4.173  -6.844  1.00  0.00     0.210 HD
ENDBRANCH   9  14
ENDBRANCH   1   9
BRANCH   8  16
HETATM   16  O2  UNL     1      -0.465  -5.021  -6.681  1.00  0.00    -0.367 OA
ATOM     17  H2  UNL     1      -1.002  -4.994  -7.464  1.00  0.00     0.212 HD
ENDBRANCH   8  16
BRANCH   4  18
HETATM   18  N1  UNL     1      -3.073  -4.761  -2.266  1.00  0.00    -0.071 N 
ATOM     19  H13 UNL     1      -3.785  -4.830  -2.993  1.00  0.00     0.274 HD
ATOM     20  H12 UNL     1      -3.423  -5.439  -1.589  1.00  0.00     0.274 HD
ATOM     21  H11 UNL     1      -3.102  -3.829  -1.854  1.00  0.00     0.274 HD
ENDBRANCH   4  18
TORSDOF 7
ENDMDL
MODEL 4
REMARK VINA RESULT: -6.072868041      1.573      2.531
REMARK  7 active torsions:
REMARK  status: ('A' for Active; 'I' for Inactive)
REMARK    1  A    between atoms: C2_2  and  C3_3 
REMARK    2  A    between atoms: C3_3  and  C4_4 
REMARK    3  A    between atoms: C4_4  and  C5_5 
REMARK    4  A    between atoms: C5_5  and  O1_6 
REMARK    5  A    between atoms: C5_5  and  C6_8 
REMARK    6  A    between atoms: C9_11  and  N1_12 
REMARK    7  A    between atoms: C12_19  and  O2_20 
ROOT
HETATM    1  C6  UNL     1      -3.048  -5.051  -6.406  1.00  0.00     0.076 C 
HETATM    2  C7  UNL     1      -2.223  -3.964  -5.768  1.00  0.00     0.050 C 
HETATM    3  C8  UNL     1      -2.388  -4.256  -4.311  1.00  0.00     0.259 C 
HETATM    4  C9  UNL     1      -1.161  -4.335  -3.457  1.00  0.00     0.249 C 
HETATM    5  C10 UNL     1      -1.017  -5.708  -4.091  1.00  0.00     0.255 C 
HETATM    6  C11 UNL     1      -0.515  -6.798  -3.208  1.00  0.00     0.045 C 
HETATM    7  N2  UNL     1      -2.454  -5.714  -4.215  1.00  0.00     0.130 N 
HETATM    8  C12 UNL     1      -3.041  -6.183  -5.423  1.00  0.00     0.364 C 
ENDROOT
BRANCH   1   9
HETATM    9  C5  UNL     1      -2.579  -5.524  -7.731  1.00  0.00     0.126 C 
BRANCH   9  10
HETATM   10  C4  UNL     1      -3.563  -5.366  -8.869  1.00  0.00     0.036 C 
BRANCH  10  11
HETATM   11  C3  UNL     1      -4.272  -6.642  -9.171  1.00  0.00     0.029 C 
BRANCH  11  12
HETATM   12  C2  UNL     1      -5.570  -6.689  -8.383  1.00  0.00    -0.037 C 
HETATM   13  C1  UNL     1      -6.708  -7.003  -8.918  1.00  0.00     0.007 C 
ENDBRANCH  11  12
ENDBRANCH  10  11
ENDBRANCH   9  10
BRANCH   9  14
HETATM   14  O1  UNL     1      -1.376  -4.994  -8.169  1.00  0.00    -0.395 OA
ATOM     15  H1  UNL     1      -0.687  -5.499  -7.753  1.00  0.00     0.210 HD
ENDBRANCH   9  14
ENDBRANCH   1   9
BRANCH   8  16
HETATM   16  O2  UNL     1      -2.530  -7.350  -5.930  1.00  0.00    -0.367 OA
ATOM     17  H2  UNL     1      -1.872  -7.751  -5.374  1.00  0.00     0.212 HD
ENDBRANCH   8  16
BRANCH   4  18
HETATM   18  N1  UNL     1      -0.119  -3.400  -3.706  1.00  0.00    -0.071 N 
ATOM     19  H13 UNL     1      -0.477  -2.454  -3.567  1.00  0.00     0.274 HD
ATOM     20  H12 UNL     1       0.570  -3.456  -2.956  1.00  0.00     0.274 HD
ATOM     21  H11 UNL     1       0.358  -3.450  -4.605  1.00  0.00     0.274 HD
ENDBRANCH   4  18
TORSDOF 7
ENDMDL
MODEL 5
REMARK VINA RESULT: -6.056626691      2.372      6.311
REMARK  7 active torsions:
REMARK  status: ('A' for Active; 'I' for Inactive)
REMARK    1  A    between atoms: C2_2  and  C3_3 
REMARK    2  A    between atoms: C3_3  and  C4_4 
REMARK    3  A    between atoms: C4_4  and  C5_5 
REMARK    4  A    between atoms: C5_5  and  O1_6 
REMARK    5  A    between atoms: C5_5  and  C6_8 
REMARK    6  A    between atoms: C9_11  and  N1_12 
REMARK    7  A    between atoms: C12_19  and  O2_20 
ROOT
HETATM    1  C6  UNL     1      -1.693  -4.091  -4.615  1.00  0.00     0.076 C 
HETATM    2  C7  UNL     1      -1.272  -4.697  -5.928  1.00  0.00     0.050 C 
HETATM    3  C8  UNL     1      -1.836  -6.078  -5.834  1.00  0.00     0.259 C 
HETATM    4  C9  UNL     1      -2.652  -6.594  -6.978  1.00  0.00     0.249 C 
HETATM    5  C10 UNL     1      -3.735  -5.714  -6.378  1.00  0.00     0.255 C 
HETATM    6  C11 UNL     1      -5.125  -6.252  -6.417  1.00  0.00     0.045 C 
HETATM    7  N2  UNL     1      -3.095  -5.932  -5.103  1.00  0.00     0.130 N 
HETATM    8  C12 UNL     1      -2.933  -4.832  -4.216  1.00  0.00     0.364 C 
ENDROOT
BRANCH   1   9
HETATM    9  C5  UNL     1      -1.955  -2.631  -4.632  1.00  0.00     0.126 C 
BRANCH   9  10
HETATM   10  C4  UNL     1      -0.948  -1.776  -3.895  1.00  0.00     0.036 C 
BRANCH  10  11
HETATM   11  C3  UNL     1       0.087  -2.601  -3.211  1.00  0.00     0.029 C 
BRANCH  11  12
HETATM   12  C2  UNL     1       0.915  -1.708  -2.302  1.00  0.00    -0.037 C 
HETATM   13  C1  UNL     1       2.196  -1.560  -2.436  1.00  0.00     0.007 C 
ENDBRANCH  11  12
ENDBRANCH  10  11
ENDBRANCH   9  10
BRANCH   9  14
HETATM   14  O1  UNL     1      -2.119  -2.062  -5.885  1.00  0.00    -0.395 OA
ATOM     15  H1  UNL     1      -2.830  -2.530  -6.306  1.00  0.00     0.210 HD
ENDBRANCH   9  14
ENDBRANCH   1   9
BRANCH   8  16
HETATM   16  O2  UNL     1      -4.029  -4.024  -4.049  1.00  0.00    -0.367 OA
ATOM     17  H2  UNL     1      -4.719  -4.183  -4.681  1.00  0.00     0.212 HD
ENDBRANCH   8  16
BRANCH   4  18
HETATM   18  N1  UNL     1      -2.222  -6.274  -8.295  1.00  0.00    -0.071 N 
ATOM     19  H13 UNL     1      -1.427  -5.637  -8.243  1.00  0.00     0.274 HD
ATOM     20  H12 UNL     1      -1.784  -7.095  -8.714  1.00  0.00     0.274 HD
ATOM     21  H11 UNL     1      -2.914  -5.896  -8.942  1.00  0.00     0.274 HD
ENDBRANCH   4  18
TORSDOF 7
ENDMDL
