MODEL 1
REMARK VINA RESULT: -7.240803586      0.000      0.000
REMARK  7 active torsions:
REMARK  status: ('A' for Active; 'I' for Inactive)
REMARK    1  A    between atoms: C4_4  and  C5_5 
REMARK    2  A    between atoms: C5_5  and  C6_6 
REMARK    3  A    between atoms: C6_6  and  C7_7 
REMARK    4  A    between atoms: C8_9  and  C9_10 
REMARK    5  A    between atoms: C9_10  and  O2_11 
REMARK    6  A    between atoms: C10_13  and  O3_14 
REMARK    7  A    between atoms: C12_17  and  O4_18 
ROOT
HETATM    1  C1  UNL     1      -7.863  -6.916 -10.074  1.00  0.00     0.017 C 
HETATM    2  C2  UNL     1      -6.822  -6.915  -9.469  1.00  0.00    -0.090 C 
HETATM    3  C3  UNL     1      -5.599  -6.930  -8.745  1.00  0.00     0.059 C 
HETATM    4  C4  UNL     1      -4.459  -6.579  -9.306  1.00  0.00    -0.018 C 
ENDROOT
BRANCH   4   5
HETATM    5  C5  UNL     1      -3.175  -6.600  -8.527  1.00  0.00     0.030 C 
BRANCH   5   6
HETATM    6  C6  UNL     1      -3.106  -5.322  -7.751  1.00  0.00     0.038 C 
BRANCH   6   7
HETATM    7  C7  UNL     1      -3.359  -5.411  -6.296  1.00  0.00     0.151 C 
HETATM    8  O1  UNL     1      -3.313  -6.769  -5.966  1.00  0.00    -0.373 OA
HETATM    9  C8  UNL     1      -2.438  -7.050  -4.938  1.00  0.00     0.174 C 
HETATM   10  C10 UNL     1      -1.074  -6.528  -5.320  1.00  0.00     0.151 C 
HETATM   11  C11 UNL     1      -1.159  -5.001  -5.193  1.00  0.00     0.068 C 
HETATM   12  C12 UNL     1      -2.588  -4.555  -5.385  1.00  0.00     0.149 C 
BRANCH   9  13
HETATM   13  C9  UNL     1      -2.397  -8.568  -4.759  1.00  0.00     0.198 C 
BRANCH  13  14
HETATM   14  O2  UNL     1      -3.083  -8.923  -3.592  1.00  0.00    -0.398 OA
ATOM     15  H2  UNL     1      -2.795  -9.780  -3.301  1.00  0.00     0.209 HD
ENDBRANCH  13  14
ENDBRANCH   9  13
BRANCH  10  16
HETATM   16  O3  UNL     1      -0.084  -7.027  -4.471  1.00  0.00    -0.393 OA
ATOM     17  H3  UNL     1       0.762  -7.046  -4.902  1.00  0.00     0.210 HD
ENDBRANCH  10  16
BRANCH  12  18
HETATM   18  O4  UNL     1      -2.711  -3.223  -5.706  1.00  0.00    -0.393 OA
ATOM     19  H4  UNL     1      -1.904  -2.745  -5.549  1.00  0.00     0.210 HD
ENDBRANCH  12  18
ENDBRANCH   6   7
ENDBRANCH   5   6
ENDBRANCH   4   5
TORSDOF 7
ENDMDL
MODEL 2
REMARK VINA RESULT: -6.923903009      2.093      3.287
REMARK  7 active torsions:
REMARK  status: ('A' for Active; 'I' for Inactive)
REMARK    1  A    between atoms: C4_4  and  C5_5 
REMARK    2  A    between atoms: C5_5  and  C6_6 
REMARK    3  A    between atoms: C6_6  and  C7_7 
REMARK    4  A    between atoms: C8_9  and  C9_10 
REMARK    5  A    between atoms: C9_10  and  O2_11 
REMARK    6  A    between atoms: C10_13  and  O3_14 
REMARK    7  A    between atoms: C12_17  and  O4_18 
ROOT
HETATM    1  C1  UNL     1      -7.764  -8.218 -10.979  1.00  0.00     0.017 C 
HETATM    2  C2  UNL     1      -7.556  -7.874  -9.844  1.00  0.00    -0.090 C 
HETATM    3  C3  UNL     1      -7.320  -7.484  -8.497  1.00  0.00     0.059 C 
HETATM    4  C4  UNL     1      -6.198  -6.898  -8.133  1.00  0.00    -0.018 C 
ENDROOT
BRANCH   4   5
HETATM    5  C5  UNL     1      -5.964  -6.492  -6.706  1.00  0.00     0.030 C 
BRANCH   5   6
HETATM    6  C6  UNL     1      -4.484  -6.486  -6.485  1.00  0.00     0.038 C 
BRANCH   6   7
HETATM    7  C7  UNL     1      -3.710  -5.435  -7.182  1.00  0.00     0.151 C 
HETATM    8  O1  UNL     1      -3.452  -4.437  -6.237  1.00  0.00    -0.373 OA
HETATM    9  C8  UNL     1      -2.114  -4.117  -6.135  1.00  0.00     0.174 C 
HETATM   10  C10 UNL     1      -1.346  -5.380  -5.828  1.00  0.00     0.151 C 
HETATM   11  C11 UNL     1      -1.332  -6.190  -7.132  1.00  0.00     0.068 C 
HETATM   12  C12 UNL     1      -2.532  -5.821  -7.970  1.00  0.00     0.149 C 
BRANCH   9  13
HETATM   13  C9  UNL     1      -1.958  -3.109  -4.996  1.00  0.00     0.198 C 
BRANCH  13  14
HETATM   14  O2  UNL     1      -1.911  -1.812  -5.518  1.00  0.00    -0.398 OA
ATOM     15  H2  UNL     1      -2.697  -1.642  -6.024  1.00  0.00     0.209 HD
ENDBRANCH  13  14
ENDBRANCH   9  13
BRANCH  10  16
HETATM   16  O3  UNL     1      -0.041  -5.095  -5.425  1.00  0.00    -0.393 OA
ATOM     17  H3  UNL     1       0.404  -5.876  -5.118  1.00  0.00     0.210 HD
ENDBRANCH  10  16
BRANCH  12  18
HETATM   18  O4  UNL     1      -2.843  -6.758  -8.929  1.00  0.00    -0.393 OA
ATOM     19  H4  UNL     1      -2.111  -7.338  -9.106  1.00  0.00     0.210 HD
ENDBRANCH  12  18
ENDBRANCH   6   7
ENDBRANCH   5   6
ENDBRANCH   4   5
TORSDOF 7
ENDMDL
MODEL 3
REMARK VINA RESULT: -6.759117749      1.748      2.556
REMARK  7 active torsions:
REMARK  status: ('A' for Active; 'I' for Inactive)
REMARK    1  A    between atoms: C4_4  and  C5_5 
REMARK    2  A    between atoms: C5_5  and  C6_6 
REMARK    3  A    between atoms: C6_6  and  C7_7 
REMARK    4  A    between atoms: C8_9  and  C9_10 
REMARK    5  A    between atoms: C9_10  and  O2_11 
REMARK    6  A    between atoms: C10_13  and  O3_14 
REMARK    7  A    between atoms: C12_17  and  O4_18 
ROOT
HETATM    1  C1  UNL     1      -7.641  -7.634 -10.544  1.00  0.00     0.017 C 
HETATM    2  C2  UNL     1      -6.849  -7.267  -9.714  1.00  0.00    -0.090 C 
HETATM    3  C3  UNL     1      -5.908  -6.820  -8.746  1.00  0.00     0.059 C 
HETATM    4  C4  UNL     1      -6.207  -6.765  -7.465  1.00  0.00    -0.018 C 
ENDROOT
BRANCH   4   5
HETATM    5  C5  UNL     1      -5.201  -6.291  -6.455  1.00  0.00     0.030 C 
BRANCH   5   6
HETATM    6  C6  UNL     1      -3.911  -6.077  -7.182  1.00  0.00     0.038 C 
BRANCH   6   7
HETATM    7  C7  UNL     1      -3.093  -4.917  -6.760  1.00  0.00     0.151 C 
HETATM    8  O1  UNL     1      -3.531  -4.565  -5.480  1.00  0.00    -0.373 OA
HETATM    9  C8  UNL     1      -2.510  -4.499  -4.555  1.00  0.00     0.174 C 
HETATM   10  C10 UNL     1      -1.791  -5.827  -4.547  1.00  0.00     0.151 C 
HETATM   11  C11 UNL     1      -0.976  -5.869  -5.847  1.00  0.00     0.068 C 
HETATM   12  C12 UNL     1      -1.631  -4.993  -6.885  1.00  0.00     0.149 C 
BRANCH   9  13
HETATM   13  C9  UNL     1      -3.134  -4.223  -3.187  1.00  0.00     0.198 C 
BRANCH  13  14
HETATM   14  O2  UNL     1      -2.213  -3.553  -2.375  1.00  0.00    -0.398 OA
ATOM     15  H2  UNL     1      -1.559  -4.166  -2.060  1.00  0.00     0.209 HD
ENDBRANCH  13  14
ENDBRANCH   9  13
BRANCH  10  16
HETATM   16  O3  UNL     1      -0.943  -5.937  -3.444  1.00  0.00    -0.393 OA
ATOM     17  H3  UNL     1      -1.325  -5.534  -2.673  1.00  0.00     0.210 HD
ENDBRANCH  10  16
BRANCH  12  18
HETATM   18  O4  UNL     1      -1.241  -5.279  -8.173  1.00  0.00    -0.393 OA
ATOM     19  H4  UNL     1      -0.299  -5.379  -8.244  1.00  0.00     0.210 HD
ENDBRANCH  12  18
ENDBRANCH   6   7
ENDBRANCH   5   6
ENDBRANCH   4   5
TORSDOF 7
ENDMDL
MODEL 4
REMARK VINA RESULT: -6.675014326      1.827      2.487
REMARK  7 active torsions:
REMARK  status: ('A' for Active; 'I' for Inactive)
REMARK    1  A    between atoms: C4_4  and  C5_5 
REMARK    2  A    between atoms: C5_5  and  C6_6 
REMARK    3  A    between atoms: C6_6  and  C7_7 
REMARK    4  A    between atoms: C8_9  and  C9_10 
REMARK    5  A    between atoms: C9_10  and  O2_11 
REMARK    6  A    between atoms: C10_13  and  O3_14 
REMARK    7  A    between atoms: C12_17  and  O4_18 
ROOT
HETATM    1  C1  UNL     1      -7.729  -8.322 -11.200  1.00  0.00     0.017 C 
HETATM    2  C2  UNL     1      -7.501  -8.021 -10.056  1.00  0.00    -0.090 C 
HETATM    3  C3  UNL     1      -7.239  -7.684  -8.700  1.00  0.00     0.059 C 
HETATM    4  C4  UNL     1      -6.197  -6.954  -8.358  1.00  0.00    -0.018 C 
ENDROOT
BRANCH   4   5
HETATM    5  C5  UNL     1      -5.933  -6.606  -6.921  1.00  0.00     0.030 C 
BRANCH   5   6
HETATM    6  C6  UNL     1      -4.448  -6.516  -6.753  1.00  0.00     0.038 C 
BRANCH   6   7
HETATM    7  C7  UNL     1      -3.862  -5.157  -6.731  1.00  0.00     0.151 C 
HETATM    8  O1  UNL     1      -3.494  -4.903  -5.406  1.00  0.00    -0.373 OA
HETATM    9  C8  UNL     1      -2.178  -4.517  -5.270  1.00  0.00     0.174 C 
HETATM   10  C10 UNL     1      -1.305  -5.582  -5.890  1.00  0.00     0.151 C 
HETATM   11  C11 UNL     1      -1.476  -5.432  -7.409  1.00  0.00     0.068 C 
HETATM   12  C12 UNL     1      -2.820  -4.815  -7.709  1.00  0.00     0.149 C 
BRANCH   9  13
HETATM   13  C9  UNL     1      -1.878  -4.386  -3.777  1.00  0.00     0.198 C 
BRANCH  13  14
HETATM   14  O2  UNL     1      -2.118  -5.608  -3.140  1.00  0.00    -0.398 OA
ATOM     15  H2  UNL     1      -2.493  -6.223  -3.759  1.00  0.00     0.209 HD
ENDBRANCH  13  14
ENDBRANCH   9  13
BRANCH  10  16
HETATM   16  O3  UNL     1       0.035  -5.408  -5.538  1.00  0.00    -0.393 OA
ATOM     17  H3  UNL     1       0.611  -5.869  -6.136  1.00  0.00     0.210 HD
ENDBRANCH  10  16
BRANCH  12  18
HETATM   18  O4  UNL     1      -3.244  -5.020  -9.002  1.00  0.00    -0.393 OA
ATOM     19  H4  UNL     1      -2.543  -4.887  -9.629  1.00  0.00     0.210 HD
ENDBRANCH  12  18
ENDBRANCH   6   7
ENDBRANCH   5   6
ENDBRANCH   4   5
TORSDOF 7
ENDMDL
MODEL 5
REMARK VINA RESULT: -6.668094505      4.401      7.772
REMARK  7 active torsions:
REMARK  status: ('A' for Active; 'I' for Inactive)
REMARK    1  A    between atoms: C4_4  and  C5_5 
REMARK    2  A    between atoms: C5_5  and  C6_6 
REMARK    3  A    between atoms: C6_6  and  C7_7 
REMARK    4  A    between atoms: C8_9  and  C9_10 
REMARK    5  A    between atoms: C9_10  and  O2_11 
REMARK    6  A    between atoms: C10_13  and  O3_14 
REMARK    7  A    between atoms: C12_17  and  O4_18 
ROOT
HETATM    1  C1  UNL     1      -2.204  -5.862  -6.724  1.00  0.00     0.017 C 
HETATM    2  C2  UNL     1      -2.900  -6.159  -7.661  1.00  0.00    -0.090 C 
HETATM    3  C3  UNL     1      -3.709  -6.524  -8.772  1.00  0.00     0.059 C 
HETATM    4  C4  UNL     1      -5.024  -6.525  -8.698  1.00  0.00    -0.018 C 
ENDROOT
BRANCH   4   5
HETATM    5  C5  UNL     1      -5.865  -6.913  -9.880  1.00  0.00     0.030 C 
BRANCH   5   6
HETATM    6  C6  UNL     1      -6.915  -7.859  -9.386  1.00  0.00     0.038 C 
BRANCH   6   7
HETATM    7  C7  UNL     1      -8.301  -7.344  -9.325  1.00  0.00     0.151 C 
HETATM    8  O1  UNL     1      -8.945  -7.795 -10.481  1.00  0.00    -0.373 OA
HETATM    9  C8  UNL     1     -10.122  -8.466 -10.221  1.00  0.00     0.174 C 
HETATM   10  C10 UNL     1      -9.820  -9.605  -9.277  1.00  0.00     0.151 C 
HETATM   11  C11 UNL     1      -9.569  -8.959  -7.907  1.00  0.00     0.068 C 
HETATM   12  C12 UNL     1      -9.082  -7.543  -8.097  1.00  0.00     0.149 C 
BRANCH   9  13
HETATM   13  C9  UNL     1     -10.658  -9.003 -11.548  1.00  0.00     0.198 C 
BRANCH  13  14
HETATM   14  O2  UNL     1      -9.883 -10.090 -11.965  1.00  0.00    -0.398 OA
ATOM     15  H2  UNL     1     -10.362 -10.898 -11.822  1.00  0.00     0.209 HD
ENDBRANCH  13  14
ENDBRANCH   9  13
BRANCH  10  16
HETATM   16  O3  UNL     1     -10.891 -10.497  -9.199  1.00  0.00    -0.393 OA
ATOM     17  H3  UNL     1     -10.608 -11.350  -8.889  1.00  0.00     0.210 HD
ENDBRANCH  10  16
BRANCH  12  18
HETATM   18  O4  UNL     1      -8.441  -7.029  -6.993  1.00  0.00    -0.393 OA
ATOM     19  H4  UNL     1      -9.040  -6.892  -6.268  1.00  0.00     0.210 HD
ENDBRANCH  12  18
ENDBRANCH   6   7
ENDBRANCH   5   6
ENDBRANCH   4   5
TORSDOF 7
ENDMDL
