MODEL 1
REMARK VINA RESULT: -7.337556255      0.000      0.000
REMARK  2 active torsions:
REMARK  status: ('A' for Active; 'I' for Inactive)
REMARK    1  A    between atoms: C4_4  and  N1_5 
REMARK    2  A    between atoms: N1_5  and  C5_8 
ROOT
HETATM    1  N1  UNL     1      36.009  -1.741  35.100  1.00  0.00    -0.067 N 
ATOM      2  H11 UNL     1      35.583  -2.469  34.526  1.00  0.00     0.278 HD
ATOM      3  H12 UNL     1      36.478  -2.323  35.794  1.00  0.00     0.278 HD
ENDROOT
BRANCH   1   4
HETATM    4  C4  UNL     1      34.991  -0.923  35.724  1.00  0.00     0.186 C 
HETATM    5  C3  UNL     1      34.889  -1.196  37.163  1.00  0.00     0.033 C 
HETATM    6  C2  UNL     1      33.550  -1.102  37.790  1.00  0.00     0.002 C 
HETATM    7  C1  UNL     1      32.371  -1.030  36.895  1.00  0.00     0.000 C 
HETATM    8  C12 UNL     1      32.633  -0.399  35.559  1.00  0.00     0.002 C 
HETATM    9  C11 UNL     1      33.721  -1.228  34.931  1.00  0.00     0.033 C 
ENDBRANCH   1   4
BRANCH   1  10
HETATM   10  C5  UNL     1      36.964  -0.993  34.341  1.00  0.00     0.186 C 
HETATM   11  C6  UNL     1      36.401  -0.361  33.108  1.00  0.00     0.033 C 
HETATM   12  C7  UNL     1      37.494   0.575  32.570  1.00  0.00     0.002 C 
HETATM   13  C8  UNL     1      37.595   1.731  33.521  1.00  0.00     0.000 C 
HETATM   14  C9  UNL     1      37.555   1.355  34.972  1.00  0.00     0.002 C 
HETATM   15  C10 UNL     1      37.805  -0.114  35.197  1.00  0.00     0.033 C 
ENDBRANCH   1  10
TORSDOF 2
ENDMDL
MODEL 2
REMARK VINA RESULT: -7.335614033      1.653      4.930
REMARK  2 active torsions:
REMARK  status: ('A' for Active; 'I' for Inactive)
REMARK    1  A    between atoms: C4_4  and  N1_5 
REMARK    2  A    between atoms: N1_5  and  C5_8 
ROOT
HETATM    1  N1  UNL     1      35.118   1.739  36.012  1.00  0.00    -0.067 N 
ATOM      2  H11 UNL     1      34.549   2.479  35.601  1.00  0.00     0.278 HD
ATOM      3  H12 UNL     1      35.825   2.306  36.480  1.00  0.00     0.278 HD
ENDROOT
BRANCH   1   4
HETATM    4  C4  UNL     1      35.721   0.924  34.978  1.00  0.00     0.186 C 
HETATM    5  C3  UNL     1      37.166   1.158  34.882  1.00  0.00     0.033 C 
HETATM    6  C2  UNL     1      37.792   1.074  33.542  1.00  0.00     0.002 C 
HETATM    7  C1  UNL     1      36.896   1.050  32.361  1.00  0.00     0.000 C 
HETATM    8  C12 UNL     1      35.543   0.452  32.610  1.00  0.00     0.002 C 
HETATM    9  C11 UNL     1      34.937   1.276  33.714  1.00  0.00     0.033 C 
ENDBRANCH   1   4
BRANCH   1  10
HETATM   10  C5  UNL     1      34.359   0.990  36.966  1.00  0.00     0.186 C 
HETATM   11  C6  UNL     1      33.127   0.357  36.404  1.00  0.00     0.033 C 
HETATM   12  C7  UNL     1      32.589  -0.579  37.496  1.00  0.00     0.002 C 
HETATM   13  C8  UNL     1      33.540  -1.735  37.596  1.00  0.00     0.000 C 
HETATM   14  C9  UNL     1      34.991  -1.358  37.556  1.00  0.00     0.002 C 
HETATM   15  C10 UNL     1      35.216   0.110  37.807  1.00  0.00     0.033 C 
ENDBRANCH   1  10
TORSDOF 2
ENDMDL
MODEL 3
REMARK VINA RESULT: -7.002735839      0.969      1.159
REMARK  2 active torsions:
REMARK  status: ('A' for Active; 'I' for Inactive)
REMARK    1  A    between atoms: C4_4  and  N1_5 
REMARK    2  A    between atoms: N1_5  and  C5_8 
ROOT
HETATM    1  N1  UNL     1      34.857  -1.521  34.398  1.00  0.00    -0.067 N 
ATOM      2  H11 UNL     1      34.260  -2.103  33.811  1.00  0.00     0.278 HD
ATOM      3  H12 UNL     1      35.352  -2.248  34.913  1.00  0.00     0.278 HD
ENDROOT
BRANCH   1   4
HETATM    4  C4  UNL     1      34.058  -0.714  35.296  1.00  0.00     0.186 C 
HETATM    5  C3  UNL     1      34.775  -0.428  36.544  1.00  0.00     0.033 C 
HETATM    6  C2  UNL     1      33.981  -0.332  37.791  1.00  0.00     0.002 C 
HETATM    7  C1  UNL     1      32.579  -0.813  37.756  1.00  0.00     0.000 C 
HETATM    8  C12 UNL     1      31.912  -0.708  36.417  1.00  0.00     0.002 C 
HETATM    9  C11 UNL     1      32.768  -1.513  35.477  1.00  0.00     0.033 C 
ENDBRANCH   1   4
BRANCH   1  10
HETATM   10  C5  UNL     1      35.766  -0.761  33.597  1.00  0.00     0.186 C 
HETATM   11  C6  UNL     1      35.295   0.624  33.286  1.00  0.00     0.033 C 
HETATM   12  C7  UNL     1      36.485   1.346  32.637  1.00  0.00     0.002 C 
HETATM   13  C8  UNL     1      37.505   1.575  33.713  1.00  0.00     0.000 C 
HETATM   14  C9  UNL     1      37.724   0.407  34.627  1.00  0.00     0.002 C 
HETATM   15  C10 UNL     1      37.172  -0.878  34.069  1.00  0.00     0.033 C 
ENDBRANCH   1  10
TORSDOF 2
ENDMDL
MODEL 4
REMARK VINA RESULT: -6.891658493      1.573      1.906
REMARK  2 active torsions:
REMARK  status: ('A' for Active; 'I' for Inactive)
REMARK    1  A    between atoms: C4_4  and  N1_5 
REMARK    2  A    between atoms: N1_5  and  C5_8 
ROOT
HETATM    1  N1  UNL     1      35.029   1.657  35.921  1.00  0.00    -0.067 N 
ATOM      2  H11 UNL     1      35.708   2.298  36.333  1.00  0.00     0.278 HD
ATOM      3  H12 UNL     1      34.384   2.332  35.510  1.00  0.00     0.278 HD
ENDROOT
BRANCH   1   4
HETATM    4  C4  UNL     1      34.369   0.883  36.950  1.00  0.00     0.186 C 
HETATM    5  C3  UNL     1      35.241  -0.179  37.468  1.00  0.00     0.033 C 
HETATM    6  C2  UNL     1      34.607  -1.451  37.883  1.00  0.00     0.002 C 
HETATM    7  C1  UNL     1      33.198  -1.685  37.485  1.00  0.00     0.000 C 
HETATM    8  C12 UNL     1      32.376  -0.440  37.325  1.00  0.00     0.002 C 
HETATM    9  C11 UNL     1      33.089   0.381  36.284  1.00  0.00     0.033 C 
ENDBRANCH   1   4
BRANCH   1  10
HETATM   10  C5  UNL     1      35.641   0.859  34.903  1.00  0.00     0.186 C 
HETATM   11  C6  UNL     1      35.018   1.010  33.553  1.00  0.00     0.033 C 
HETATM   12  C7  UNL     1      35.943   0.277  32.570  1.00  0.00     0.002 C 
HETATM   13  C8  UNL     1      37.197   1.091  32.450  1.00  0.00     0.000 C 
HETATM   14  C9  UNL     1      37.726   1.621  33.749  1.00  0.00     0.002 C 
HETATM   15  C10 UNL     1      37.127   0.929  34.946  1.00  0.00     0.033 C 
ENDBRANCH   1  10
TORSDOF 2
ENDMDL
MODEL 5
REMARK VINA RESULT: -6.878219426      1.635      2.735
REMARK  2 active torsions:
REMARK  status: ('A' for Active; 'I' for Inactive)
REMARK    1  A    between atoms: C4_4  and  N1_5 
REMARK    2  A    between atoms: N1_5  and  C5_8 
ROOT
HETATM    1  N1  UNL     1      34.088   1.134  34.811  1.00  0.00    -0.067 N 
ATOM      2  H11 UNL     1      34.110   1.921  35.460  1.00  0.00     0.278 HD
ATOM      3  H12 UNL     1      33.553   1.554  34.050  1.00  0.00     0.278 HD
ENDROOT
BRANCH   1   4
HETATM    4  C4  UNL     1      33.366   0.019  35.386  1.00  0.00     0.186 C 
HETATM    5  C3  UNL     1      32.018  -0.101  34.818  1.00  0.00     0.033 C 
HETATM    6  C2  UNL     1      30.935  -0.584  35.704  1.00  0.00     0.002 C 
HETATM    7  C1  UNL     1      31.206  -0.637  37.161  1.00  0.00     0.000 C 
HETATM    8  C12 UNL     1      32.645  -0.856  37.525  1.00  0.00     0.002 C 
HETATM    9  C11 UNL     1      33.397   0.283  36.891  1.00  0.00     0.033 C 
ENDBRANCH   1   4
BRANCH   1  10
HETATM   10  C5  UNL     1      35.410   0.801  34.375  1.00  0.00     0.186 C 
HETATM   11  C6  UNL     1      36.493   1.307  35.273  1.00  0.00     0.033 C 
HETATM   12  C7  UNL     1      37.795   0.658  34.780  1.00  0.00     0.002 C 
HETATM   13  C8  UNL     1      37.725  -0.798  35.131  1.00  0.00     0.000 C 
HETATM   14  C9  UNL     1      36.399  -1.444  34.863  1.00  0.00     0.002 C 
HETATM   15  C10 UNL     1      35.526  -0.620  33.952  1.00  0.00     0.033 C 
ENDBRANCH   1  10
TORSDOF 2
ENDMDL
