MODEL 1
REMARK VINA RESULT: -5.828975603      0.000      0.000
REMARK  3 active torsions:
REMARK  status: ('A' for Active; 'I' for Inactive)
REMARK    1  A    between atoms: C2_2  and  N1_3 
REMARK    2  A    between atoms: N1_3  and  C3_5 
REMARK    3  A    between atoms: C3_5  and  C4_7 
ROOT
HETATM    1  C4  UNL     1      35.603   0.119  36.230  1.00  0.00     0.047 C 
HETATM    2  C5  UNL     1      35.738  -1.334  35.997  1.00  0.00     0.011 C 
HETATM    3  C6  UNL     1      36.308  -1.771  34.697  1.00  0.00     0.001 C 
HETATM    4  C7  UNL     1      37.360  -0.891  34.103  1.00  0.00     0.000 C 
HETATM    5  C8  UNL     1      37.784   0.102  35.162  1.00  0.00     0.001 C 
HETATM    6  C9  UNL     1      36.538   0.968  35.405  1.00  0.00     0.011 C 
ENDROOT
BRANCH   1   7
HETATM    7  C3  UNL     1      34.242   0.673  36.122  1.00  0.00     0.081 C 
HETATM    8  S1  UNL     1      33.720   1.384  34.733  1.00  0.00    -0.065 SA
BRANCH   7   9
HETATM    9  N1  UNL     1      33.345   0.604  37.220  1.00  0.00    -0.361 N 
ATOM     10  H1  UNL     1      33.237   1.397  37.852  1.00  0.00     0.165 HD
BRANCH   9  11
HETATM   11  C2  UNL     1      32.598  -0.591  37.426  1.00  0.00     0.078 C 
HETATM   12  C1  UNL     1      31.513  -0.810  36.710  1.00  0.00     0.029 C 
ENDBRANCH   9  11
ENDBRANCH   7   9
ENDBRANCH   1   7
TORSDOF 3
ENDMDL
MODEL 2
REMARK VINA RESULT: -5.823844234      1.385      2.090
REMARK  3 active torsions:
REMARK  status: ('A' for Active; 'I' for Inactive)
REMARK    1  A    between atoms: C2_2  and  N1_3 
REMARK    2  A    between atoms: N1_3  and  C3_5 
REMARK    3  A    between atoms: C3_5  and  C4_7 
ROOT
HETATM    1  C4  UNL     1      34.865  -0.099  34.738  1.00  0.00     0.047 C 
HETATM    2  C5  UNL     1      35.693   1.013  34.227  1.00  0.00     0.011 C 
HETATM    3  C6  UNL     1      37.064   1.159  34.781  1.00  0.00     0.001 C 
HETATM    4  C7  UNL     1      37.775  -0.106  35.135  1.00  0.00     0.000 C 
HETATM    5  C8  UNL     1      36.990  -1.258  34.550  1.00  0.00     0.001 C 
HETATM    6  C9  UNL     1      35.657  -1.248  35.312  1.00  0.00     0.011 C 
ENDROOT
BRANCH   1   7
HETATM    7  C3  UNL     1      33.801   0.265  35.690  1.00  0.00     0.081 C 
HETATM    8  S1  UNL     1      34.159   0.783  37.210  1.00  0.00    -0.065 SA
BRANCH   7   9
HETATM    9  N1  UNL     1      32.434   0.177  35.314  1.00  0.00    -0.361 N 
ATOM     10  H1  UNL     1      32.068   0.752  34.557  1.00  0.00     0.165 HD
BRANCH   9  11
HETATM   11  C2  UNL     1      31.585  -0.727  36.013  1.00  0.00     0.078 C 
HETATM   12  C1  UNL     1      31.844  -2.019  35.982  1.00  0.00     0.029 C 
ENDBRANCH   9  11
ENDBRANCH   7   9
ENDBRANCH   1   7
TORSDOF 3
ENDMDL
MODEL 3
REMARK VINA RESULT: -5.823170673      2.777      4.288
REMARK  3 active torsions:
REMARK  status: ('A' for Active; 'I' for Inactive)
REMARK    1  A    between atoms: C2_2  and  N1_3 
REMARK    2  A    between atoms: N1_3  and  C3_5 
REMARK    3  A    between atoms: C3_5  and  C4_7 
ROOT
HETATM    1  C4  UNL     1      34.757   0.108  34.882  1.00  0.00     0.047 C 
HETATM    2  C5  UNL     1      34.235  -1.016  35.687  1.00  0.00     0.011 C 
HETATM    3  C6  UNL     1      34.773  -1.183  37.062  1.00  0.00     0.001 C 
HETATM    4  C7  UNL     1      35.120   0.070  37.796  1.00  0.00     0.000 C 
HETATM    5  C8  UNL     1      34.545   1.235  37.022  1.00  0.00     0.001 C 
HETATM    6  C9  UNL     1      35.323   1.244  35.698  1.00  0.00     0.011 C 
ENDROOT
BRANCH   1   7
HETATM    7  C3  UNL     1      35.721  -0.241  33.823  1.00  0.00     0.081 C 
HETATM    8  S1  UNL     1      37.249  -0.728  34.191  1.00  0.00    -0.065 SA
BRANCH   7   9
HETATM    9  N1  UNL     1      35.350  -0.166  32.455  1.00  0.00    -0.361 N 
ATOM     10  H1  UNL     1      34.591  -0.741  32.092  1.00  0.00     0.165 HD
BRANCH   9  11
HETATM   11  C2  UNL     1      36.056   0.726  31.599  1.00  0.00     0.078 C 
HETATM   12  C1  UNL     1      35.985   2.025  31.812  1.00  0.00     0.029 C 
ENDBRANCH   9  11
ENDBRANCH   7   9
ENDBRANCH   1   7
TORSDOF 3
ENDMDL
MODEL 4
REMARK VINA RESULT: -5.814250179      2.430      4.542
REMARK  3 active torsions:
REMARK  status: ('A' for Active; 'I' for Inactive)
REMARK    1  A    between atoms: C2_2  and  N1_3 
REMARK    2  A    between atoms: N1_3  and  C3_5 
REMARK    3  A    between atoms: C3_5  and  C4_7 
ROOT
HETATM    1  C4  UNL     1      36.213  -0.117  35.560  1.00  0.00     0.047 C 
HETATM    2  C5  UNL     1      35.998   1.331  35.762  1.00  0.00     0.011 C 
HETATM    3  C6  UNL     1      34.711   1.755  36.371  1.00  0.00     0.001 C 
HETATM    4  C7  UNL     1      34.124   0.836  37.392  1.00  0.00     0.000 C 
HETATM    5  C8  UNL     1      35.178  -0.185  37.756  1.00  0.00     0.001 C 
HETATM    6  C9  UNL     1      35.393  -0.998  36.470  1.00  0.00     0.011 C 
ENDROOT
BRANCH   1   7
HETATM    7  C3  UNL     1      36.080  -0.609  34.178  1.00  0.00     0.081 C 
HETATM    8  S1  UNL     1      34.653  -1.213  33.624  1.00  0.00    -0.065 SA
BRANCH   7   9
HETATM    9  N1  UNL     1      37.185  -0.573  33.288  1.00  0.00    -0.361 N 
ATOM     10  H1  UNL     1      37.808  -1.376  33.203  1.00  0.00     0.165 HD
BRANCH   9  11
HETATM   11  C2  UNL     1      37.410   0.602  32.517  1.00  0.00     0.078 C 
HETATM   12  C1  UNL     1      36.793   0.750  31.362  1.00  0.00     0.029 C 
ENDBRANCH   9  11
ENDBRANCH   7   9
ENDBRANCH   1   7
TORSDOF 3
ENDMDL
MODEL 5
REMARK VINA RESULT: -5.810739735      1.500      2.101
REMARK  3 active torsions:
REMARK  status: ('A' for Active; 'I' for Inactive)
REMARK    1  A    between atoms: C2_2  and  N1_3 
REMARK    2  A    between atoms: N1_3  and  C3_5 
REMARK    3  A    between atoms: C3_5  and  C4_7 
ROOT
HETATM    1  C4  UNL     1      35.436   1.499  34.882  1.00  0.00     0.047 C 
HETATM    2  C5  UNL     1      36.748   1.096  35.431  1.00  0.00     0.011 C 
HETATM    3  C6  UNL     1      37.543   0.110  34.654  1.00  0.00     0.001 C 
HETATM    4  C7  UNL     1      37.426   0.186  33.167  1.00  0.00     0.000 C 
HETATM    5  C8  UNL     1      36.724   1.480  32.824  1.00  0.00     0.001 C 
HETATM    6  C9  UNL     1      35.306   1.315  33.391  1.00  0.00     0.011 C 
ENDROOT
BRANCH   1   7
HETATM    7  C3  UNL     1      34.250   0.920  35.537  1.00  0.00     0.081 C 
HETATM    8  S1  UNL     1      33.000   0.317  34.654  1.00  0.00    -0.065 SA
BRANCH   7   9
HETATM    9  N1  UNL     1      34.160   0.867  36.953  1.00  0.00    -0.361 N 
ATOM     10  H1  UNL     1      34.293   1.709  37.512  1.00  0.00     0.165 HD
BRANCH   9  11
HETATM   11  C2  UNL     1      33.882  -0.381  37.579  1.00  0.00     0.078 C 
HETATM   12  C1  UNL     1      34.786  -1.339  37.550  1.00  0.00     0.029 C 
ENDBRANCH   9  11
ENDBRANCH   7   9
ENDBRANCH   1   7
TORSDOF 3
ENDMDL
