MODEL 1
REMARK VINA RESULT: -6.452164954      0.000      0.000
REMARK  2 active torsions:
REMARK  status: ('A' for Active; 'I' for Inactive)
REMARK    1  A    between atoms: C2_2  and  C3_3 
REMARK    2  A    between atoms: C3_3  and  C4_4 
ROOT
HETATM    1  C4  UNL     1      35.254   0.564  35.403  1.00  0.00     0.026 C 
HETATM    2  S1  UNL     1      33.946   1.746  35.012  1.00  0.00    -0.086 SA
HETATM    3  C5  UNL     1      36.540   1.118  34.828  1.00  0.00     0.005 C 
HETATM    4  C6  UNL     1      37.705   0.196  35.003  1.00  0.00     0.006 C 
HETATM    5  C7  UNL     1      37.474  -1.155  34.374  1.00  0.00     0.001 C 
HETATM    6  C8  UNL     1      36.088  -1.681  34.665  1.00  0.00     0.006 C 
HETATM    7  C9  UNL     1      35.047  -0.626  34.482  1.00  0.00     0.005 C 
HETATM    8  C10 UNL     1      35.209   0.043  33.133  1.00  0.00     0.007 C 
HETATM    9  C11 UNL     1      36.183   1.188  33.357  1.00  0.00     0.007 C 
ENDROOT
BRANCH   1  10
HETATM   10  C3  UNL     1      35.357   0.188  36.829  1.00  0.00     0.021 C 
BRANCH  10  11
HETATM   11  C2  UNL     1      34.023  -0.034  37.484  1.00  0.00    -0.003 C 
HETATM   12  C1  UNL     1      33.583  -1.450  37.606  1.00  0.00     0.005 C 
ENDBRANCH  10  11
ENDBRANCH   1  10
TORSDOF 2
ENDMDL
MODEL 2
REMARK VINA RESULT: -6.437141080      1.671      3.913
REMARK  2 active torsions:
REMARK  status: ('A' for Active; 'I' for Inactive)
REMARK    1  A    between atoms: C2_2  and  C3_3 
REMARK    2  A    between atoms: C3_3  and  C4_4 
ROOT
HETATM    1  C4  UNL     1      35.374  -0.571  35.244  1.00  0.00     0.026 C 
HETATM    2  S1  UNL     1      34.987  -1.764  33.945  1.00  0.00    -0.086 SA
HETATM    3  C5  UNL     1      34.812  -1.124  36.536  1.00  0.00     0.005 C 
HETATM    4  C6  UNL     1      34.984  -0.194  37.696  1.00  0.00     0.006 C 
HETATM    5  C7  UNL     1      34.340   1.149  37.462  1.00  0.00     0.001 C 
HETATM    6  C8  UNL     1      34.617   1.670  36.070  1.00  0.00     0.006 C 
HETATM    7  C9  UNL     1      34.439   0.608  35.036  1.00  0.00     0.005 C 
HETATM    8  C10 UNL     1      33.098  -0.074  35.210  1.00  0.00     0.007 C 
HETATM    9  C11 UNL     1      33.340  -1.211  36.188  1.00  0.00     0.007 C 
ENDROOT
BRANCH   1  10
HETATM   10  C3  UNL     1      36.796  -0.180  35.336  1.00  0.00     0.021 C 
BRANCH  10  11
HETATM   11  C2  UNL     1      37.473  -0.076  33.999  1.00  0.00    -0.003 C 
HETATM   12  C1  UNL     1      37.533   1.286  33.401  1.00  0.00     0.005 C 
ENDBRANCH  10  11
ENDBRANCH   1  10
TORSDOF 2
ENDMDL
MODEL 3
REMARK VINA RESULT: -6.376594955      1.845      2.880
REMARK  2 active torsions:
REMARK  status: ('A' for Active; 'I' for Inactive)
REMARK    1  A    between atoms: C2_2  and  C3_3 
REMARK    2  A    between atoms: C3_3  and  C4_4 
ROOT
HETATM    1  C4  UNL     1      34.352  -0.264  35.245  1.00  0.00     0.026 C 
HETATM    2  S1  UNL     1      34.716  -0.852  33.577  1.00  0.00    -0.086 SA
HETATM    3  C5  UNL     1      35.106   1.035  35.433  1.00  0.00     0.005 C 
HETATM    4  C6  UNL     1      34.966   1.600  36.811  1.00  0.00     0.006 C 
HETATM    5  C7  UNL     1      35.438   0.645  37.879  1.00  0.00     0.001 C 
HETATM    6  C8  UNL     1      34.958  -0.765  37.624  1.00  0.00     0.006 C 
HETATM    7  C9  UNL     1      35.131  -1.159  36.194  1.00  0.00     0.005 C 
HETATM    8  C10 UNL     1      36.546  -0.871  35.738  1.00  0.00     0.007 C 
HETATM    9  C11 UNL     1      36.532   0.563  35.236  1.00  0.00     0.007 C 
ENDROOT
BRANCH   1  10
HETATM   10  C3  UNL     1      32.915  -0.168  35.579  1.00  0.00     0.021 C 
BRANCH  10  11
HETATM   11  C2  UNL     1      32.260  -1.506  35.778  1.00  0.00    -0.003 C 
HETATM   12  C1  UNL     1      30.789  -1.486  36.003  1.00  0.00     0.005 C 
ENDBRANCH  10  11
ENDBRANCH   1  10
TORSDOF 2
ENDMDL
MODEL 4
REMARK VINA RESULT: -6.370790191      1.095      3.652
REMARK  2 active torsions:
REMARK  status: ('A' for Active; 'I' for Inactive)
REMARK    1  A    between atoms: C2_2  and  C3_3 
REMARK    2  A    between atoms: C3_3  and  C4_4 
ROOT
HETATM    1  C4  UNL     1      35.103   0.189  34.403  1.00  0.00     0.026 C 
HETATM    2  S1  UNL     1      33.450   0.797  34.798  1.00  0.00    -0.086 SA
HETATM    3  C5  UNL     1      35.328  -1.056  35.234  1.00  0.00     0.005 C 
HETATM    4  C6  UNL     1      36.702  -1.628  35.074  1.00  0.00     0.006 C 
HETATM    5  C7  UNL     1      37.785  -0.643  35.434  1.00  0.00     0.001 C 
HETATM    6  C8  UNL     1      37.504   0.731  34.872  1.00  0.00     0.006 C 
HETATM    7  C9  UNL     1      36.081   1.135  35.079  1.00  0.00     0.005 C 
HETATM    8  C10 UNL     1      35.687   0.943  36.529  1.00  0.00     0.007 C 
HETATM    9  C11 UNL     1      35.190  -0.489  36.633  1.00  0.00     0.007 C 
ENDROOT
BRANCH   1  10
HETATM   10  C3  UNL     1      35.376  -0.004  32.963  1.00  0.00     0.021 C 
BRANCH  10  11
HETATM   11  C2  UNL     1      35.626   1.282  32.228  1.00  0.00    -0.003 C 
HETATM   12  C1  UNL     1      36.295   1.160  30.905  1.00  0.00     0.005 C 
ENDBRANCH  10  11
ENDBRANCH   1  10
TORSDOF 2
ENDMDL
MODEL 5
REMARK VINA RESULT: -6.370335084      1.816      4.034
REMARK  2 active torsions:
REMARK  status: ('A' for Active; 'I' for Inactive)
REMARK    1  A    between atoms: C2_2  and  C3_3 
REMARK    2  A    between atoms: C3_3  and  C4_4 
ROOT
HETATM    1  C4  UNL     1      36.361   0.380  34.625  1.00  0.00     0.026 C 
HETATM    2  S1  UNL     1      37.805  -0.481  35.282  1.00  0.00    -0.086 SA
HETATM    3  C5  UNL     1      35.666   1.041  35.797  1.00  0.00     0.005 C 
HETATM    4  C6  UNL     1      34.394   1.727  35.412  1.00  0.00     0.006 C 
HETATM    5  C7  UNL     1      33.402   0.791  34.769  1.00  0.00     0.001 C 
HETATM    6  C8  UNL     1      34.062  -0.122  33.763  1.00  0.00     0.006 C 
HETATM    7  C9  UNL     1      35.339  -0.692  34.287  1.00  0.00     0.005 C 
HETATM    8  C10 UNL     1      35.119  -1.300  35.656  1.00  0.00     0.007 C 
HETATM    9  C11 UNL     1      35.337  -0.169  36.647  1.00  0.00     0.007 C 
ENDROOT
BRANCH   1  10
HETATM   10  C3  UNL     1      36.634   1.302  33.503  1.00  0.00     0.021 C 
BRANCH  10  11
HETATM   11  C2  UNL     1      37.313   0.637  32.339  1.00  0.00    -0.003 C 
HETATM   12  C1  UNL     1      36.606   0.724  31.032  1.00  0.00     0.005 C 
ENDBRANCH  10  11
ENDBRANCH   1  10
TORSDOF 2
ENDMDL
