MODEL 1
REMARK VINA RESULT: -6.359052079      0.000      0.000
REMARK  3 active torsions:
REMARK  status: ('A' for Active; 'I' for Inactive)
REMARK    1  A    between atoms: C2_2  and  C3_3 
REMARK    2  A    between atoms: C3_3  and  N1_4 
REMARK    3  A    between atoms: C3_3  and  C4_8 
ROOT
HETATM    1  C4  UNL     1      34.781  -0.436  34.973  1.00  0.00     0.020 C 
HETATM    2  C5  UNL     1      35.045  -0.962  36.382  1.00  0.00     0.007 C 
HETATM    3  C6  UNL     1      34.095  -0.204  37.296  1.00  0.00     0.000 C 
HETATM    4  C7  UNL     1      32.799  -0.922  37.339  1.00  0.00     0.000 C 
HETATM    5  C8  UNL     1      31.812  -0.548  36.301  1.00  0.00     0.000 C 
HETATM    6  C9  UNL     1      32.361  -0.188  34.975  1.00  0.00     0.000 C 
HETATM    7  C10 UNL     1      33.501  -1.030  34.504  1.00  0.00     0.007 C 
ENDROOT
BRANCH   1   8
HETATM    8  C3  UNL     1      35.976  -0.803  34.139  1.00  0.00     0.209 C 
BRANCH   8   9
HETATM    9  C2  UNL     1      37.206  -0.111  34.502  1.00  0.00    -0.004 C 
HETATM   10  C1  UNL     1      37.295   1.197  34.385  1.00  0.00     0.009 C 
ENDBRANCH   8   9
BRANCH   8  11
HETATM   11  N1  UNL     1      35.710  -0.646  32.741  1.00  0.00    -0.071 N 
ATOM     12  H13 UNL     1      36.388  -0.030  32.292  1.00  0.00     0.275 HD
ATOM     13  H12 UNL     1      35.910  -1.498  32.219  1.00  0.00     0.275 HD
ATOM     14  H11 UNL     1      34.752  -0.327  32.595  1.00  0.00     0.275 HD
ENDBRANCH   8  11
ENDBRANCH   1   8
TORSDOF 3
ENDMDL
MODEL 2
REMARK VINA RESULT: -6.354134717      2.040      4.280
REMARK  3 active torsions:
REMARK  status: ('A' for Active; 'I' for Inactive)
REMARK    1  A    between atoms: C2_2  and  C3_3 
REMARK    2  A    between atoms: C3_3  and  N1_4 
REMARK    3  A    between atoms: C3_3  and  C4_8 
ROOT
HETATM    1  C4  UNL     1      34.973   0.439  34.780  1.00  0.00     0.020 C 
HETATM    2  C5  UNL     1      36.392   0.936  35.047  1.00  0.00     0.007 C 
HETATM    3  C6  UNL     1      37.287   0.187  34.072  1.00  0.00     0.000 C 
HETATM    4  C7  UNL     1      37.333   0.935  32.794  1.00  0.00     0.000 C 
HETATM    5  C8  UNL     1      36.283   0.603  31.805  1.00  0.00     0.000 C 
HETATM    6  C9  UNL     1      34.954   0.252  32.355  1.00  0.00     0.000 C 
HETATM    7  C10 UNL     1      34.505   1.073  33.518  1.00  0.00     0.007 C 
ENDROOT
BRANCH   1   8
HETATM    8  C3  UNL     1      34.152   0.790  35.989  1.00  0.00     0.209 C 
BRANCH   8   9
HETATM    9  C2  UNL     1      34.538   0.091  37.208  1.00  0.00    -0.004 C 
HETATM   10  C1  UNL     1      34.334  -1.204  37.327  1.00  0.00     0.009 C 
ENDBRANCH   8   9
BRANCH   8  11
HETATM   11  N1  UNL     1      32.753   0.626  35.742  1.00  0.00    -0.071 N 
ATOM     12  H13 UNL     1      32.558  -0.221  35.206  1.00  0.00     0.275 HD
ATOM     13  H12 UNL     1      32.242   0.388  36.591  1.00  0.00     0.275 HD
ATOM     14  H11 UNL     1      32.372   1.457  35.290  1.00  0.00     0.275 HD
ENDBRANCH   8  11
ENDBRANCH   1   8
TORSDOF 3
ENDMDL
MODEL 3
REMARK VINA RESULT: -6.341667416      2.115      4.281
REMARK  3 active torsions:
REMARK  status: ('A' for Active; 'I' for Inactive)
REMARK    1  A    between atoms: C2_2  and  C3_3 
REMARK    2  A    between atoms: C3_3  and  N1_4 
REMARK    3  A    between atoms: C3_3  and  C4_8 
ROOT
HETATM    1  C4  UNL     1      35.492   0.296  35.071  1.00  0.00     0.020 C 
HETATM    2  C5  UNL     1      36.828   0.954  34.734  1.00  0.00     0.007 C 
HETATM    3  C6  UNL     1      37.271   0.347  33.412  1.00  0.00     0.000 C 
HETATM    4  C7  UNL     1      36.678   1.131  32.303  1.00  0.00     0.000 C 
HETATM    5  C8  UNL     1      35.337   0.700  31.845  1.00  0.00     0.000 C 
HETATM    6  C9  UNL     1      34.427   0.174  32.887  1.00  0.00     0.000 C 
HETATM    7  C10 UNL     1      34.457   0.902  34.190  1.00  0.00     0.007 C 
ENDROOT
BRANCH   1   8
HETATM    8  C3  UNL     1      35.256   0.511  36.539  1.00  0.00     0.209 C 
BRANCH   8   9
HETATM    9  C2  UNL     1      34.606  -0.602  37.219  1.00  0.00    -0.004 C 
HETATM   10  C1  UNL     1      33.293  -0.695  37.241  1.00  0.00     0.009 C 
ENDBRANCH   8   9
BRANCH   8  11
HETATM   11  N1  UNL     1      34.547   1.728  36.787  1.00  0.00    -0.071 N 
ATOM     12  H13 UNL     1      34.945   2.512  36.269  1.00  0.00     0.275 HD
ATOM     13  H12 UNL     1      33.620   1.722  36.361  1.00  0.00     0.275 HD
ATOM     14  H11 UNL     1      34.503   1.917  37.788  1.00  0.00     0.275 HD
ENDBRANCH   8  11
ENDBRANCH   1   8
TORSDOF 3
ENDMDL
MODEL 4
REMARK VINA RESULT: -6.318408566      2.965      4.323
REMARK  3 active torsions:
REMARK  status: ('A' for Active; 'I' for Inactive)
REMARK    1  A    between atoms: C2_2  and  C3_3 
REMARK    2  A    between atoms: C3_3  and  N1_4 
REMARK    3  A    between atoms: C3_3  and  C4_8 
ROOT
HETATM    1  C4  UNL     1      35.611   0.979  31.982  1.00  0.00     0.020 C 
HETATM    2  C5  UNL     1      37.018   0.585  32.424  1.00  0.00     0.007 C 
HETATM    3  C6  UNL     1      37.295   1.378  33.692  1.00  0.00     0.000 C 
HETATM    4  C7  UNL     1      36.784   0.614  34.855  1.00  0.00     0.000 C 
HETATM    5  C8  UNL     1      35.372   0.858  35.226  1.00  0.00     0.000 C 
HETATM    6  C9  UNL     1      34.439   1.126  34.109  1.00  0.00     0.000 C 
HETATM    7  C10 UNL     1      34.648   0.295  32.886  1.00  0.00     0.007 C 
ENDROOT
BRANCH   1   8
HETATM    8  C3  UNL     1      35.482   0.591  30.536  1.00  0.00     0.209 C 
BRANCH   8   9
HETATM    9  C2  UNL     1      34.297  -0.196  30.221  1.00  0.00    -0.004 C 
HETATM   10  C1  UNL     1      33.802  -0.197  29.000  1.00  0.00     0.009 C 
ENDBRANCH   8   9
BRANCH   8  11
HETATM   11  N1  UNL     1      36.660  -0.068  30.060  1.00  0.00    -0.071 N 
ATOM     12  H13 UNL     1      37.170   0.504  29.387  1.00  0.00     0.275 HD
ATOM     13  H12 UNL     1      37.378  -0.130  30.781  1.00  0.00     0.275 HD
ATOM     14  H11 UNL     1      36.424  -0.984  29.679  1.00  0.00     0.275 HD
ENDBRANCH   8  11
ENDBRANCH   1   8
TORSDOF 3
ENDMDL
MODEL 5
REMARK VINA RESULT: -6.317151661      2.549      4.647
REMARK  3 active torsions:
REMARK  status: ('A' for Active; 'I' for Inactive)
REMARK    1  A    between atoms: C2_2  and  C3_3 
REMARK    2  A    between atoms: C3_3  and  N1_4 
REMARK    3  A    between atoms: C3_3  and  C4_8 
ROOT
HETATM    1  C4  UNL     1      32.005  -0.984  35.602  1.00  0.00     0.020 C 
HETATM    2  C5  UNL     1      32.441  -0.595  37.012  1.00  0.00     0.007 C 
HETATM    3  C6  UNL     1      33.717  -1.377  37.285  1.00  0.00     0.000 C 
HETATM    4  C7  UNL     1      34.873  -0.598  36.781  1.00  0.00     0.000 C 
HETATM    5  C8  UNL     1      35.248  -0.829  35.368  1.00  0.00     0.000 C 
HETATM    6  C9  UNL     1      34.134  -1.103  34.432  1.00  0.00     0.000 C 
HETATM    7  C10 UNL     1      32.904  -0.285  34.644  1.00  0.00     0.007 C 
ENDROOT
BRANCH   1   8
HETATM    8  C3  UNL     1      30.555  -0.611  35.474  1.00  0.00     0.209 C 
BRANCH   8   9
HETATM    9  C2  UNL     1      30.231   0.168  34.286  1.00  0.00    -0.004 C 
HETATM   10  C1  UNL     1      28.998   0.199  33.825  1.00  0.00     0.009 C 
ENDBRANCH   8   9
BRANCH   8  11
HETATM   11  N1  UNL     1      30.075   0.049  36.649  1.00  0.00    -0.071 N 
ATOM     12  H13 UNL     1      30.491   0.975  36.762  1.00  0.00     0.275 HD
ATOM     13  H12 UNL     1      29.100   0.332  36.555  1.00  0.00     0.275 HD
ATOM     14  H11 UNL     1      30.223  -0.536  37.471  1.00  0.00     0.275 HD
ENDBRANCH   8  11
ENDBRANCH   1   8
TORSDOF 3
ENDMDL
