MODEL 1
REMARK VINA RESULT: -5.741361255      0.000      0.000
REMARK  0 active torsions:
REMARK  status: ('A' for Active; 'I' for Inactive)
ROOT
HETATM    1  C1  UNL     1      37.159  -0.759  34.631  1.00  0.00     0.002 C 
HETATM    2  C2  UNL     1      36.960   0.684  34.230  1.00  0.00     0.002 C 
HETATM    3  C3  UNL     1      35.917   1.187  35.203  1.00  0.00     0.039 C 
HETATM    4  C4  UNL     1      35.122  -0.002  35.594  1.00  0.00     0.126 C 
HETATM    5  C5  UNL     1      35.801  -1.234  35.075  1.00  0.00     0.039 C 
HETATM    6  C6  UNL     1      34.893  -0.070  37.108  1.00  0.00     0.040 C 
HETATM    7  C7  UNL     1      33.870  -1.187  37.164  1.00  0.00     0.030 C 
HETATM    8  C8  UNL     1      33.135  -1.052  35.852  1.00  0.00     0.233 C 
HETATM    9  N1  UNL     1      33.738   0.039  35.129  1.00  0.00    -0.066 N 
ATOM     10  H11 UNL     1      33.624  -0.002  34.117  1.00  0.00     0.278 HD
ATOM     11  H12 UNL     1      33.273   0.939  35.244  1.00  0.00     0.278 HD
ENDROOT
TORSDOF 0
ENDMDL
MODEL 2
REMARK VINA RESULT: -5.732507211      2.412      3.079
REMARK  0 active torsions:
REMARK  status: ('A' for Active; 'I' for Inactive)
ROOT
HETATM    1  C1  UNL     1      33.972   1.156  34.558  1.00  0.00     0.002 C 
HETATM    2  C2  UNL     1      34.303   1.598  35.965  1.00  0.00     0.002 C 
HETATM    3  C3  UNL     1      33.760   0.482  36.830  1.00  0.00     0.039 C 
HETATM    4  C4  UNL     1      32.642  -0.118  36.062  1.00  0.00     0.126 C 
HETATM    5  C5  UNL     1      32.651   0.443  34.672  1.00  0.00     0.039 C 
HETATM    6  C6  UNL     1      32.700  -1.649  36.062  1.00  0.00     0.040 C 
HETATM    7  C7  UNL     1      31.343  -1.958  35.460  1.00  0.00     0.030 C 
HETATM    8  C8  UNL     1      30.490  -0.797  35.912  1.00  0.00     0.233 C 
HETATM    9  N1  UNL     1      31.333   0.088  36.676  1.00  0.00    -0.066 N 
ATOM     10  H11 UNL     1      31.022   1.058  36.707  1.00  0.00     0.278 HD
ATOM     11  H12 UNL     1      31.305  -0.057  37.685  1.00  0.00     0.278 HD
ENDROOT
TORSDOF 0
ENDMDL
MODEL 3
REMARK VINA RESULT: -5.717097316      1.135      3.443
REMARK  0 active torsions:
REMARK  status: ('A' for Active; 'I' for Inactive)
ROOT
HETATM    1  C1  UNL     1      34.613   0.772  37.126  1.00  0.00     0.002 C 
HETATM    2  C2  UNL     1      34.198  -0.666  36.916  1.00  0.00     0.002 C 
HETATM    3  C3  UNL     1      35.167  -1.170  35.870  1.00  0.00     0.039 C 
HETATM    4  C4  UNL     1      35.571   0.021  35.084  1.00  0.00     0.126 C 
HETATM    5  C5  UNL     1      35.063   1.252  35.772  1.00  0.00     0.039 C 
HETATM    6  C6  UNL     1      37.085   0.075  34.858  1.00  0.00     0.040 C 
HETATM    7  C7  UNL     1      37.154   1.199  33.843  1.00  0.00     0.030 C 
HETATM    8  C8  UNL     1      35.842   1.083  33.105  1.00  0.00     0.233 C 
HETATM    9  N1  UNL     1      35.107  -0.006  33.700  1.00  0.00    -0.066 N 
ATOM     10  H11 UNL     1      34.095   0.047  33.585  1.00  0.00     0.278 HD
ATOM     11  H12 UNL     1      35.214  -0.903  33.228  1.00  0.00     0.278 HD
ENDROOT
TORSDOF 0
ENDMDL
MODEL 4
REMARK VINA RESULT: -5.704614940      2.813      4.348
REMARK  0 active torsions:
REMARK  status: ('A' for Active; 'I' for Inactive)
ROOT
HETATM    1  C1  UNL     1      34.754  -1.180  33.990  1.00  0.00     0.002 C 
HETATM    2  C2  UNL     1      36.190  -1.503  34.330  1.00  0.00     0.002 C 
HETATM    3  C3  UNL     1      36.966  -0.340  33.753  1.00  0.00     0.039 C 
HETATM    4  C4  UNL     1      36.155   0.166  32.619  1.00  0.00     0.126 C 
HETATM    5  C5  UNL     1      34.812  -0.500  32.647  1.00  0.00     0.039 C 
HETATM    6  C6  UNL     1      36.037   1.693  32.632  1.00  0.00     0.040 C 
HETATM    7  C7  UNL     1      35.414   1.915  31.268  1.00  0.00     0.030 C 
HETATM    8  C8  UNL     1      35.954   0.768  30.448  1.00  0.00     0.233 C 
HETATM    9  N1  UNL     1      36.783  -0.031  31.316  1.00  0.00    -0.066 N 
ATOM     10  H11 UNL     1      36.888  -1.004  31.032  1.00  0.00     0.278 HD
ATOM     11  H12 UNL     1      37.778   0.190  31.280  1.00  0.00     0.278 HD
ENDROOT
TORSDOF 0
ENDMDL
MODEL 5
REMARK VINA RESULT: -5.634901433      1.957      3.851
REMARK  0 active torsions:
REMARK  status: ('A' for Active; 'I' for Inactive)
ROOT
HETATM    1  C1  UNL     1      33.148   0.730  34.143  1.00  0.00     0.002 C 
HETATM    2  C2  UNL     1      33.173  -0.752  34.435  1.00  0.00     0.002 C 
HETATM    3  C3  UNL     1      34.633  -1.041  34.702  1.00  0.00     0.039 C 
HETATM    4  C4  UNL     1      35.394  -0.022  33.939  1.00  0.00     0.126 C 
HETATM    5  C5  UNL     1      34.438   1.009  33.418  1.00  0.00     0.039 C 
HETATM    6  C6  UNL     1      36.514   0.606  34.775  1.00  0.00     0.040 C 
HETATM    7  C7  UNL     1      37.247   1.370  33.690  1.00  0.00     0.030 C 
HETATM    8  C8  UNL     1      37.006   0.537  32.454  1.00  0.00     0.233 C 
HETATM    9  N1  UNL     1      36.177  -0.578  32.839  1.00  0.00    -0.066 N 
ATOM     10  H11 UNL     1      35.627  -0.985  32.083  1.00  0.00     0.278 HD
ATOM     11  H12 UNL     1      36.686  -1.433  33.063  1.00  0.00     0.278 HD
ENDROOT
TORSDOF 0
ENDMDL
