MODEL 1
REMARK VINA RESULT: -5.715420953      0.000      0.000
REMARK  0 active torsions:
REMARK  status: ('A' for Active; 'I' for Inactive)
ROOT
HETATM    1  C1  UNL     1      33.977   0.917  36.766  1.00  0.00     0.000 C 
HETATM    2  C2  UNL     1      34.731  -0.289  37.210  1.00  0.00     0.000 C 
HETATM    3  C3  UNL     1      35.060  -1.087  35.962  1.00  0.00     0.007 C 
HETATM    4  C4  UNL     1      36.135  -0.269  35.275  1.00  0.00     0.017 C 
HETATM    5  C5  UNL     1      36.746  -0.975  34.102  1.00  0.00     0.237 C 
HETATM    6  N1  UNL     1      36.199  -0.378  32.909  1.00  0.00    -0.074 N 
ATOM      7  H11 UNL     1      35.851  -1.071  32.247  1.00  0.00     0.277 HD
ATOM      8  H12 UNL     1      36.916   0.036  32.313  1.00  0.00     0.277 HD
HETATM    9  C6  UNL     1      35.197   0.563  33.296  1.00  0.00     0.237 C 
HETATM   10  C7  UNL     1      35.502   0.962  34.745  1.00  0.00     0.017 C 
HETATM   11  C8  UNL     1      34.300   1.452  35.443  1.00  0.00     0.007 C 
ENDROOT
TORSDOF 0
ENDMDL
MODEL 2
REMARK VINA RESULT: -5.705977865      1.875      3.417
REMARK  0 active torsions:
REMARK  status: ('A' for Active; 'I' for Inactive)
ROOT
HETATM    1  C1  UNL     1      36.889  -0.928  34.154  1.00  0.00     0.000 C 
HETATM    2  C2  UNL     1      37.231   0.390  34.762  1.00  0.00     0.000 C 
HETATM    3  C3  UNL     1      35.922   1.124  34.985  1.00  0.00     0.007 C 
HETATM    4  C4  UNL     1      35.281   0.390  36.145  1.00  0.00     0.017 C 
HETATM    5  C5  UNL     1      34.049   1.072  36.660  1.00  0.00     0.237 C 
HETATM    6  N1  UNL     1      32.913   0.325  36.181  1.00  0.00    -0.074 N 
ATOM      7  H11 UNL     1      32.206   0.920  35.748  1.00  0.00     0.277 HD
ATOM      8  H12 UNL     1      32.338  -0.044  36.938  1.00  0.00     0.277 HD
HETATM    9  C6  UNL     1      33.385  -0.695  35.301  1.00  0.00     0.237 C 
HETATM   10  C7  UNL     1      34.854  -0.945  35.661  1.00  0.00     0.017 C 
HETATM   11  C8  UNL     1      35.605  -1.519  34.530  1.00  0.00     0.007 C 
ENDROOT
TORSDOF 0
ENDMDL
MODEL 3
REMARK VINA RESULT: -5.689160979      2.886      3.774
REMARK  0 active torsions:
REMARK  status: ('A' for Active; 'I' for Inactive)
ROOT
HETATM    1  C1  UNL     1      35.125  -1.008  35.905  1.00  0.00     0.000 C 
HETATM    2  C2  UNL     1      34.396  -1.302  37.172  1.00  0.00     0.000 C 
HETATM    3  C3  UNL     1      33.101  -0.512  37.128  1.00  0.00     0.007 C 
HETATM    4  C4  UNL     1      32.263  -1.238  36.096  1.00  0.00     0.017 C 
HETATM    5  C5  UNL     1      30.853  -0.731  36.027  1.00  0.00     0.237 C 
HETATM    6  N1  UNL     1      30.747   0.083  34.842  1.00  0.00    -0.074 N 
ATOM      7  H11 UNL     1      30.317   0.989  35.025  1.00  0.00     0.277 HD
ATOM      8  H12 UNL     1      30.052  -0.270  34.184  1.00  0.00     0.277 HD
HETATM    9  C6  UNL     1      32.046   0.199  34.260  1.00  0.00     0.237 C 
HETATM   10  C7  UNL     1      32.865  -0.995  34.764  1.00  0.00     0.017 C 
HETATM   11  C8  UNL     1      34.313  -0.721  34.722  1.00  0.00     0.007 C 
ENDROOT
TORSDOF 0
ENDMDL
MODEL 4
REMARK VINA RESULT: -5.665714654      1.919      2.978
REMARK  0 active torsions:
REMARK  status: ('A' for Active; 'I' for Inactive)
ROOT
HETATM    1  C1  UNL     1      36.019   0.878  35.161  1.00  0.00     0.000 C 
HETATM    2  C2  UNL     1      37.203   1.288  34.353  1.00  0.00     0.000 C 
HETATM    3  C3  UNL     1      37.111   0.548  33.031  1.00  0.00     0.007 C 
HETATM    4  C4  UNL     1      35.972   1.233  32.305  1.00  0.00     0.017 C 
HETATM    5  C5  UNL     1      35.827   0.777  30.884  1.00  0.00     0.237 C 
HETATM    6  N1  UNL     1      34.694  -0.113  30.831  1.00  0.00    -0.074 N 
ATOM      7  H11 UNL     1      34.904  -0.987  30.349  1.00  0.00     0.277 HD
ATOM      8  H12 UNL     1      33.962   0.220  30.203  1.00  0.00     0.277 HD
HETATM    9  C6  UNL     1      34.224  -0.320  32.163  1.00  0.00     0.237 C 
HETATM   10  C7  UNL     1      34.709   0.873  32.994  1.00  0.00     0.017 C 
HETATM   11  C8  UNL     1      34.799   0.542  34.427  1.00  0.00     0.007 C 
ENDROOT
TORSDOF 0
ENDMDL
MODEL 5
REMARK VINA RESULT: -5.631972788      1.944      3.134
REMARK  0 active torsions:
REMARK  status: ('A' for Active; 'I' for Inactive)
ROOT
HETATM    1  C1  UNL     1      37.291   0.096  34.344  1.00  0.00     0.000 C 
HETATM    2  C2  UNL     1      36.624  -1.232  34.231  1.00  0.00     0.000 C 
HETATM    3  C3  UNL     1      35.571  -1.290  35.322  1.00  0.00     0.007 C 
HETATM    4  C4  UNL     1      34.490  -0.344  34.840  1.00  0.00     0.017 C 
HETATM    5  C5  UNL     1      33.253  -0.390  35.686  1.00  0.00     0.237 C 
HETATM    6  N1  UNL     1      33.254   0.793  36.512  1.00  0.00    -0.074 N 
ATOM      7  H11 UNL     1      33.083   0.584  37.496  1.00  0.00     0.277 HD
ATOM      8  H12 UNL     1      32.438   1.384  36.351  1.00  0.00     0.277 HD
HETATM    9  C6  UNL     1      34.484   1.486  36.303  1.00  0.00     0.237 C 
HETATM   10  C7  UNL     1      35.018   1.039  34.936  1.00  0.00     0.017 C 
HETATM   11  C8  UNL     1      36.478   1.208  34.837  1.00  0.00     0.007 C 
ENDROOT
TORSDOF 0
ENDMDL
