MODEL 1
REMARK VINA RESULT: -5.518485741      0.000      0.000
REMARK  1 active torsions:
REMARK  status: ('A' for Active; 'I' for Inactive)
REMARK    1  A    between atoms: N1_1  and  N2_4 
ROOT
HETATM    1  N2  UNL     1      35.035  -0.208  33.546  1.00  0.00    -0.293 N 
HETATM    2  C1  UNL     1      34.558  -1.090  34.532  1.00  0.00     0.087 C 
HETATM    3  C2  UNL     1      35.334  -1.112  35.806  1.00  0.00     0.046 C 
HETATM    4  C3  UNL     1      34.561  -0.655  37.000  1.00  0.00     0.005 C 
HETATM    5  C4  UNL     1      33.944   0.679  36.893  1.00  0.00     0.001 C 
HETATM    6  C5  UNL     1      34.559   1.617  35.922  1.00  0.00     0.005 C 
HETATM    7  C6  UNL     1      33.742   1.579  34.641  1.00  0.00     0.046 C 
HETATM    8  C7  UNL     1      34.549   1.094  33.486  1.00  0.00     0.087 C 
ENDROOT
BRANCH   1   9
HETATM    9  N1  UNL     1      36.196  -0.513  32.920  1.00  0.00    -0.340 N 
ATOM     10  H12 UNL     1      36.732  -1.323  33.229  1.00  0.00     0.177 HD
ATOM     11  H11 UNL     1      36.370  -0.107  32.001  1.00  0.00     0.177 HD
ENDBRANCH   1   9
TORSDOF 1
ENDMDL
MODEL 2
REMARK VINA RESULT: -5.513955184      2.031      3.389
REMARK  1 active torsions:
REMARK  status: ('A' for Active; 'I' for Inactive)
REMARK    1  A    between atoms: N1_1  and  N2_4 
ROOT
HETATM    1  N2  UNL     1      33.545   0.200  35.064  1.00  0.00    -0.293 N 
HETATM    2  C1  UNL     1      34.514   1.093  34.572  1.00  0.00     0.087 C 
HETATM    3  C2  UNL     1      35.800   1.125  35.327  1.00  0.00     0.046 C 
HETATM    4  C3  UNL     1      36.986   0.680  34.533  1.00  0.00     0.005 C 
HETATM    5  C4  UNL     1      36.881  -0.653  33.915  1.00  0.00     0.001 C 
HETATM    6  C5  UNL     1      35.929  -1.601  34.544  1.00  0.00     0.005 C 
HETATM    7  C6  UNL     1      34.635  -1.573  33.749  1.00  0.00     0.046 C 
HETATM    8  C7  UNL     1      33.489  -1.101  34.576  1.00  0.00     0.087 C 
ENDROOT
BRANCH   1   9
HETATM    9  N1  UNL     1      32.936   0.497  36.236  1.00  0.00    -0.340 N 
ATOM     10  H12 UNL     1      31.949   0.756  36.235  1.00  0.00     0.177 HD
ATOM     11  H11 UNL     1      33.383   0.197  37.102  1.00  0.00     0.177 HD
ENDBRANCH   1   9
TORSDOF 1
ENDMDL
MODEL 3
REMARK VINA RESULT: -5.413744131      1.926      2.877
REMARK  1 active torsions:
REMARK  status: ('A' for Active; 'I' for Inactive)
REMARK    1  A    between atoms: N1_1  and  N2_4 
ROOT
HETATM    1  N2  UNL     1      36.250   0.491  32.064  1.00  0.00    -0.293 N 
HETATM    2  C1  UNL     1      34.930   0.487  32.550  1.00  0.00     0.087 C 
HETATM    3  C2  UNL     1      34.336  -0.860  32.787  1.00  0.00     0.046 C 
HETATM    4  C3  UNL     1      33.996  -1.135  34.217  1.00  0.00     0.005 C 
HETATM    5  C4  UNL     1      35.099  -0.972  35.181  1.00  0.00     0.001 C 
HETATM    6  C5  UNL     1      36.475  -1.095  34.640  1.00  0.00     0.005 C 
HETATM    7  C6  UNL     1      37.016   0.303  34.397  1.00  0.00     0.046 C 
HETATM    8  C7  UNL     1      37.317   0.536  32.956  1.00  0.00     0.087 C 
ENDROOT
BRANCH   1   9
HETATM    9  N1  UNL     1      36.466   0.089  30.790  1.00  0.00    -0.340 N 
ATOM     10  H12 UNL     1      36.639   0.787  30.068  1.00  0.00     0.177 HD
ATOM     11  H11 UNL     1      36.721  -0.886  30.628  1.00  0.00     0.177 HD
ENDBRANCH   1   9
TORSDOF 1
ENDMDL
MODEL 4
REMARK VINA RESULT: -5.394176035      2.020      3.698
REMARK  1 active torsions:
REMARK  status: ('A' for Active; 'I' for Inactive)
REMARK    1  A    between atoms: N1_1  and  N2_4 
ROOT
HETATM    1  N2  UNL     1      34.348   0.260  35.098  1.00  0.00    -0.293 N 
HETATM    2  C1  UNL     1      34.355   0.116  33.699  1.00  0.00     0.087 C 
HETATM    3  C2  UNL     1      34.702   1.345  32.927  1.00  0.00     0.046 C 
HETATM    4  C3  UNL     1      35.960   1.231  32.129  1.00  0.00     0.005 C 
HETATM    5  C4  UNL     1      37.165   0.839  32.882  1.00  0.00     0.001 C 
HETATM    6  C5  UNL     1      37.155   1.121  34.339  1.00  0.00     0.005 C 
HETATM    7  C6  UNL     1      36.774  -0.156  35.068  1.00  0.00     0.046 C 
HETATM    8  C7  UNL     1      35.502   0.001  35.829  1.00  0.00     0.087 C 
ENDROOT
BRANCH   1   9
HETATM    9  N1  UNL     1      33.353   0.985  35.662  1.00  0.00    -0.340 N 
ATOM     10  H12 UNL     1      32.989   0.710  36.574  1.00  0.00     0.177 HD
ATOM     11  H11 UNL     1      33.181   1.926  35.307  1.00  0.00     0.177 HD
ENDBRANCH   1   9
TORSDOF 1
ENDMDL
MODEL 5
REMARK VINA RESULT: -5.383302198      2.461      3.645
REMARK  1 active torsions:
REMARK  status: ('A' for Active; 'I' for Inactive)
REMARK    1  A    between atoms: N1_1  and  N2_4 
ROOT
HETATM    1  N2  UNL     1      31.940  -0.545  36.028  1.00  0.00    -0.293 N 
HETATM    2  C1  UNL     1      32.610  -0.514  34.792  1.00  0.00     0.087 C 
HETATM    3  C2  UNL     1      32.887   0.846  34.245  1.00  0.00     0.046 C 
HETATM    4  C3  UNL     1      34.341   1.169  34.117  1.00  0.00     0.005 C 
HETATM    5  C4  UNL     1      35.140   1.028  35.346  1.00  0.00     0.001 C 
HETATM    6  C5  UNL     1      34.402   1.121  36.630  1.00  0.00     0.005 C 
HETATM    7  C6  UNL     1      34.129  -0.289  37.125  1.00  0.00     0.046 C 
HETATM    8  C7  UNL     1      32.668  -0.570  37.213  1.00  0.00     0.087 C 
ENDROOT
BRANCH   1   9
HETATM    9  N1  UNL     1      30.635  -0.185  36.059  1.00  0.00    -0.340 N 
ATOM     10  H12 UNL     1      29.987  -0.595  35.387  1.00  0.00     0.177 HD
ATOM     11  H11 UNL     1      30.277   0.263  36.903  1.00  0.00     0.177 HD
ENDBRANCH   1   9
TORSDOF 1
ENDMDL
