MODEL 1
REMARK VINA RESULT: -4.760060213      0.000      0.000
REMARK  4 active torsions:
REMARK  status: ('A' for Active; 'I' for Inactive)
REMARK    1  A    between atoms: N1_2  and  C2_4 
REMARK    2  A    between atoms: N2_5  and  C3_7 
REMARK    3  A    between atoms: N3_8  and  C4_10 
REMARK    4  A    between atoms: C4_10  and  C5_11 
ROOT
HETATM    1  C2  UNL     1      27.546  30.325  18.666  1.00  0.00     0.176 C 
HETATM    2  N2  UNL     1      28.284  31.337  18.946  1.00  0.00    -0.349 N 
ATOM      3  H2  UNL     1      29.295  31.199  18.950  1.00  0.00     0.167 HD
ENDROOT
BRANCH   2   4
HETATM    4  C3  UNL     1      27.799  32.625  19.249  1.00  0.00     0.176 C 
HETATM    5  N3  UNL     1      27.925  33.161  20.401  1.00  0.00    -0.385 N 
ATOM      6  H3  UNL     1      27.560  34.096  20.584  1.00  0.00     0.160 HD
BRANCH   5   7
HETATM    7  C4  UNL     1      28.591  32.416  21.437  1.00  0.00     0.131 C 
BRANCH   7   8
HETATM    8  C5  UNL     1      28.260  32.914  22.824  1.00  0.00     0.104 C 
HETATM    9 BR1  UNL     1      27.902  34.795  22.868  1.00  0.00    -0.095 Br
ENDBRANCH   7   8
ENDBRANCH   5   7
ENDBRANCH   2   4
BRANCH   1  10
HETATM   10  N1  UNL     1      26.140  30.505  18.657  1.00  0.00    -0.390 N 
HETATM   11  C1  UNL     1      25.272  29.628  17.904  1.00  0.00     0.147 C 
ATOM     12  H1  UNL     1      25.732  31.271  19.193  1.00  0.00     0.159 HD
ENDBRANCH   1  10
TORSDOF 4
ENDMDL
MODEL 2
REMARK VINA RESULT: -4.510637063      1.320      1.579
REMARK  4 active torsions:
REMARK  status: ('A' for Active; 'I' for Inactive)
REMARK    1  A    between atoms: N1_2  and  C2_4 
REMARK    2  A    between atoms: N2_5  and  C3_7 
REMARK    3  A    between atoms: N3_8  and  C4_10 
REMARK    4  A    between atoms: C4_10  and  C5_11 
ROOT
HETATM    1  C2  UNL     1      27.510  31.908  19.001  1.00  0.00     0.176 C 
HETATM    2  N2  UNL     1      28.243  31.700  20.035  1.00  0.00    -0.349 N 
ATOM      3  H2  UNL     1      29.157  32.151  20.066  1.00  0.00     0.167 HD
ENDROOT
BRANCH   2   4
HETATM    4  C3  UNL     1      27.874  30.893  21.130  1.00  0.00     0.176 C 
HETATM    5  N3  UNL     1      27.985  31.276  22.343  1.00  0.00    -0.385 N 
ATOM      6  H3  UNL     1      27.709  30.664  23.110  1.00  0.00     0.160 HD
BRANCH   5   7
HETATM    7  C4  UNL     1      28.510  32.590  22.603  1.00  0.00     0.131 C 
BRANCH   7   8
HETATM    8  C5  UNL     1      27.433  33.648  22.678  1.00  0.00     0.104 C 
HETATM    9 BR1  UNL     1      28.146  35.420  22.803  1.00  0.00    -0.095 Br
ENDBRANCH   7   8
ENDBRANCH   5   7
ENDBRANCH   2   4
BRANCH   1  10
HETATM   10  N1  UNL     1      26.237  31.287  18.948  1.00  0.00    -0.390 N 
HETATM   11  C1  UNL     1      26.014  30.091  18.167  1.00  0.00     0.147 C 
ATOM     12  H1  UNL     1      25.461  31.693  19.472  1.00  0.00     0.159 HD
ENDBRANCH   1  10
TORSDOF 4
ENDMDL
MODEL 3
REMARK VINA RESULT: -4.470987327      1.080      1.744
REMARK  4 active torsions:
REMARK  status: ('A' for Active; 'I' for Inactive)
REMARK    1  A    between atoms: N1_2  and  C2_4 
REMARK    2  A    between atoms: N2_5  and  C3_7 
REMARK    3  A    between atoms: N3_8  and  C4_10 
REMARK    4  A    between atoms: C4_10  and  C5_11 
ROOT
HETATM    1  C2  UNL     1      27.357  32.463  19.008  1.00  0.00     0.176 C 
HETATM    2  N2  UNL     1      28.017  32.893  20.022  1.00  0.00    -0.349 N 
ATOM      3  H2  UNL     1      27.661  33.720  20.502  1.00  0.00     0.167 HD
ENDROOT
BRANCH   2   4
HETATM    4  C3  UNL     1      29.197  32.306  20.520  1.00  0.00     0.176 C 
HETATM    5  N3  UNL     1      29.368  32.032  21.755  1.00  0.00    -0.385 N 
ATOM      6  H3  UNL     1      30.237  31.606  22.079  1.00  0.00     0.160 HD
BRANCH   5   7
HETATM    7  C4  UNL     1      28.309  32.337  22.680  1.00  0.00     0.131 C 
BRANCH   7   8
HETATM    8  C5  UNL     1      28.616  33.532  23.551  1.00  0.00     0.104 C 
HETATM    9 BR1  UNL     1      27.919  35.166  22.836  1.00  0.00    -0.095 Br
ENDBRANCH   7   8
ENDBRANCH   5   7
ENDBRANCH   2   4
BRANCH   1  10
HETATM   10  N1  UNL     1      27.842  31.314  18.335  1.00  0.00    -0.390 N 
HETATM   11  C1  UNL     1      27.087  30.081  18.308  1.00  0.00     0.147 C 
ATOM     12  H1  UNL     1      28.743  31.358  17.858  1.00  0.00     0.159 HD
ENDBRANCH   1  10
TORSDOF 4
ENDMDL
MODEL 4
REMARK VINA RESULT: -4.461894526      1.339      1.345
REMARK  4 active torsions:
REMARK  status: ('A' for Active; 'I' for Inactive)
REMARK    1  A    between atoms: N1_2  and  C2_4 
REMARK    2  A    between atoms: N2_5  and  C3_7 
REMARK    3  A    between atoms: N3_8  and  C4_10 
REMARK    4  A    between atoms: C4_10  and  C5_11 
ROOT
HETATM    1  C2  UNL     1      27.519  30.327  18.364  1.00  0.00     0.176 C 
HETATM    2  N2  UNL     1      28.203  31.382  18.622  1.00  0.00    -0.349 N 
ATOM      3  H2  UNL     1      29.196  31.371  18.389  1.00  0.00     0.167 HD
ENDROOT
BRANCH   2   4
HETATM    4  C3  UNL     1      27.680  32.554  19.204  1.00  0.00     0.176 C 
HETATM    5  N3  UNL     1      28.227  33.139  20.199  1.00  0.00    -0.385 N 
ATOM      6  H3  UNL     1      27.820  33.986  20.594  1.00  0.00     0.160 HD
BRANCH   5   7
HETATM    7  C4  UNL     1      29.431  32.575  20.750  1.00  0.00     0.131 C 
BRANCH   7   8
HETATM    8  C5  UNL     1      29.201  31.879  22.072  1.00  0.00     0.104 C 
HETATM    9 BR1  UNL     1      27.369  31.391  22.341  1.00  0.00    -0.095 Br
ENDBRANCH   7   8
ENDBRANCH   5   7
ENDBRANCH   2   4
BRANCH   1  10
HETATM   10  N1  UNL     1      26.137  30.331  18.682  1.00  0.00    -0.390 N 
HETATM   11  C1  UNL     1      25.185  29.561  17.914  1.00  0.00     0.147 C 
ATOM     12  H1  UNL     1      25.808  30.890  19.470  1.00  0.00     0.159 HD
ENDBRANCH   1  10
TORSDOF 4
ENDMDL
MODEL 5
REMARK VINA RESULT: -4.403150145      2.914      4.530
REMARK  4 active torsions:
REMARK  status: ('A' for Active; 'I' for Inactive)
REMARK    1  A    between atoms: N1_2  and  C2_4 
REMARK    2  A    between atoms: N2_5  and  C3_7 
REMARK    3  A    between atoms: N3_8  and  C4_10 
REMARK    4  A    between atoms: C4_10  and  C5_11 
ROOT
HETATM    1  C2  UNL     1      27.784  33.423  22.744  1.00  0.00     0.176 C 
HETATM    2  N2  UNL     1      27.840  33.960  21.579  1.00  0.00    -0.349 N 
ATOM      3  H2  UNL     1      27.125  34.647  21.339  1.00  0.00     0.167 HD
ENDROOT
BRANCH   2   4
HETATM    4  C3  UNL     1      28.819  33.668  20.608  1.00  0.00     0.176 C 
HETATM    5  N3  UNL     1      28.618  32.860  19.640  1.00  0.00    -0.385 N 
ATOM      6  H3  UNL     1      29.350  32.673  18.956  1.00  0.00     0.160 HD
BRANCH   5   7
HETATM    7  C4  UNL     1      27.334  32.218  19.537  1.00  0.00     0.131 C 
BRANCH   7   8
HETATM    8  C5  UNL     1      27.440  30.728  19.307  1.00  0.00     0.104 C 
HETATM    9 BR1  UNL     1      26.062  30.057  18.159  1.00  0.00    -0.095 Br
ENDBRANCH   7   8
ENDBRANCH   5   7
ENDBRANCH   2   4
BRANCH   1  10
HETATM   10  N1  UNL     1      28.773  32.467  23.088  1.00  0.00    -0.390 N 
HETATM   11  C1  UNL     1      28.548  31.051  22.907  1.00  0.00     0.147 C 
ATOM     12  H1  UNL     1      29.663  32.786  23.472  1.00  0.00     0.159 HD
ENDBRANCH   1  10
TORSDOF 4
ENDMDL
