MODEL 1
REMARK VINA RESULT: -4.745338245      0.000      0.000
REMARK  3 active torsions:
REMARK  status: ('A' for Active; 'I' for Inactive)
REMARK    1  A    between atoms: N1_2  and  C3_5 
REMARK    2  A    between atoms: C3_5  and  C4_6 
REMARK    3  A    between atoms: C4_6  and  N2_7 
ROOT
HETATM    1  N2  UNL     1      28.284  31.658  19.307  1.00  0.00     0.117 N 
HETATM    2  C5  UNL     1      27.716  30.331  19.394  1.00  0.00     0.302 C 
HETATM    3  C6  UNL     1      26.431  30.540  18.593  1.00  0.00     0.264 C 
HETATM    4  N3  UNL     1      25.956  31.859  19.027  1.00  0.00    -0.047 N 
ATOM      5  H31 UNL     1      25.391  31.864  19.877  1.00  0.00     0.279 HD
ATOM      6  H32 UNL     1      25.237  32.281  18.440  1.00  0.00     0.279 HD
HETATM    7  C7  UNL     1      27.201  32.587  19.105  1.00  0.00     0.502 C 
ENDROOT
BRANCH   1   8
HETATM    8  C4  UNL     1      29.039  31.979  20.522  1.00  0.00     0.304 C 
BRANCH   8   9
HETATM    9  C3  UNL     1      28.567  33.333  20.961  1.00  0.00     0.287 C 
BRANCH   9  10
HETATM   10  N1  UNL     1      28.091  33.442  22.306  1.00  0.00     0.008 N 
HETATM   11  C1  UNL     1      28.914  32.743  23.276  1.00  0.00     0.294 C 
HETATM   12  C2  UNL     1      27.839  34.759  22.796  1.00  0.00     0.294 C 
HETATM   13 CL1  UNL     1      26.545  32.595  22.340  1.00  0.00     0.117 Cl
ENDBRANCH   9  10
ENDBRANCH   8   9
ENDBRANCH   1   8
TORSDOF 3
ENDMDL
MODEL 2
REMARK VINA RESULT: -4.708220407      1.072      1.275
REMARK  3 active torsions:
REMARK  status: ('A' for Active; 'I' for Inactive)
REMARK    1  A    between atoms: N1_2  and  C3_5 
REMARK    2  A    between atoms: C3_5  and  C4_6 
REMARK    3  A    between atoms: C4_6  and  N2_7 
ROOT
HETATM    1  N2  UNL     1      28.313  31.649  19.332  1.00  0.00     0.117 N 
HETATM    2  C5  UNL     1      27.731  30.328  19.434  1.00  0.00     0.302 C 
HETATM    3  C6  UNL     1      26.456  30.538  18.619  1.00  0.00     0.264 C 
HETATM    4  N3  UNL     1      25.989  31.867  19.028  1.00  0.00    -0.047 N 
ATOM      5  H31 UNL     1      25.417  31.892  19.872  1.00  0.00     0.279 HD
ATOM      6  H32 UNL     1      25.279  32.287  18.428  1.00  0.00     0.279 HD
HETATM    7  C7  UNL     1      27.241  32.584  19.105  1.00  0.00     0.502 C 
ENDROOT
BRANCH   1   8
HETATM    8  C4  UNL     1      29.060  31.981  20.548  1.00  0.00     0.304 C 
BRANCH   8   9
HETATM    9  C3  UNL     1      28.576  33.335  20.978  1.00  0.00     0.287 C 
BRANCH   9  10
HETATM   10  N1  UNL     1      27.968  33.419  22.270  1.00  0.00     0.008 N 
HETATM   11  C1  UNL     1      27.912  34.767  22.803  1.00  0.00     0.294 C 
HETATM   12  C2  UNL     1      26.679  32.824  22.415  1.00  0.00     0.294 C 
HETATM   13 CL1  UNL     1      29.043  32.550  23.365  1.00  0.00     0.117 Cl
ENDBRANCH   9  10
ENDBRANCH   8   9
ENDBRANCH   1   8
TORSDOF 3
ENDMDL
MODEL 3
REMARK VINA RESULT: -4.536824954      1.097      1.320
REMARK  3 active torsions:
REMARK  status: ('A' for Active; 'I' for Inactive)
REMARK    1  A    between atoms: N1_2  and  C3_5 
REMARK    2  A    between atoms: C3_5  and  C4_6 
REMARK    3  A    between atoms: C4_6  and  N2_7 
ROOT
HETATM    1  N2  UNL     1      28.306  31.675  19.250  1.00  0.00     0.117 N 
HETATM    2  C5  UNL     1      27.730  30.359  19.423  1.00  0.00     0.302 C 
HETATM    3  C6  UNL     1      26.415  30.546  18.668  1.00  0.00     0.264 C 
HETATM    4  N3  UNL     1      25.970  31.888  19.059  1.00  0.00    -0.047 N 
ATOM      5  H31 UNL     1      25.442  31.940  19.930  1.00  0.00     0.279 HD
ATOM      6  H32 UNL     1      25.231  32.290  18.483  1.00  0.00     0.279 HD
HETATM    7  C7  UNL     1      27.224  32.605  19.049  1.00  0.00     0.502 C 
ENDROOT
BRANCH   1   8
HETATM    8  C4  UNL     1      29.115  32.044  20.416  1.00  0.00     0.304 C 
BRANCH   8   9
HETATM    9  C3  UNL     1      28.526  33.319  20.945  1.00  0.00     0.287 C 
BRANCH   9  10
HETATM   10  N1  UNL     1      28.040  33.291  22.290  1.00  0.00     0.008 N 
HETATM   11  C1  UNL     1      26.695  32.760  22.414  1.00  0.00     0.294 C 
HETATM   12  C2  UNL     1      28.867  32.653  23.262  1.00  0.00     0.294 C 
HETATM   13 CL1  UNL     1      27.901  34.978  22.786  1.00  0.00     0.117 Cl
ENDBRANCH   9  10
ENDBRANCH   8   9
ENDBRANCH   1   8
TORSDOF 3
ENDMDL
MODEL 4
REMARK VINA RESULT: -4.448235915      1.385      1.499
REMARK  3 active torsions:
REMARK  status: ('A' for Active; 'I' for Inactive)
REMARK    1  A    between atoms: N1_2  and  C3_5 
REMARK    2  A    between atoms: C3_5  and  C4_6 
REMARK    3  A    between atoms: C4_6  and  N2_7 
ROOT
HETATM    1  N2  UNL     1      27.671  31.387  20.016  1.00  0.00     0.117 N 
HETATM    2  C5  UNL     1      27.813  30.050  19.484  1.00  0.00     0.302 C 
HETATM    3  C6  UNL     1      27.001  30.190  18.197  1.00  0.00     0.264 C 
HETATM    4  N3  UNL     1      25.835  30.984  18.600  1.00  0.00    -0.047 N 
ATOM      5  H31 UNL     1      25.058  30.454  18.996  1.00  0.00     0.279 HD
ATOM      6  H32 UNL     1      25.289  31.381  17.835  1.00  0.00     0.279 HD
HETATM    7  C7  UNL     1      26.450  31.942  19.488  1.00  0.00     0.502 C 
ENDROOT
BRANCH   1   8
HETATM    8  C4  UNL     1      27.653  31.363  21.482  1.00  0.00     0.304 C 
BRANCH   8   9
HETATM    9  C3  UNL     1      27.099  32.688  21.914  1.00  0.00     0.287 C 
BRANCH   9  10
HETATM   10  N1  UNL     1      28.050  33.684  22.302  1.00  0.00     0.008 N 
HETATM   11  C1  UNL     1      28.921  34.114  21.224  1.00  0.00     0.294 C 
HETATM   12  C2  UNL     1      27.536  34.845  22.955  1.00  0.00     0.294 C 
HETATM   13 CL1  UNL     1      29.125  32.899  23.458  1.00  0.00     0.117 Cl
ENDBRANCH   9  10
ENDBRANCH   8   9
ENDBRANCH   1   8
TORSDOF 3
ENDMDL
MODEL 5
REMARK VINA RESULT: -4.152586981      1.433      1.714
REMARK  3 active torsions:
REMARK  status: ('A' for Active; 'I' for Inactive)
REMARK    1  A    between atoms: N1_2  and  C3_5 
REMARK    2  A    between atoms: C3_5  and  C4_6 
REMARK    3  A    between atoms: C4_6  and  N2_7 
ROOT
HETATM    1  N2  UNL     1      27.786  32.355  18.972  1.00  0.00     0.117 N 
HETATM    2  C5  UNL     1      28.307  31.006  18.938  1.00  0.00     0.302 C 
HETATM    3  C6  UNL     1      27.109  30.275  18.334  1.00  0.00     0.264 C 
HETATM    4  N3  UNL     1      25.952  30.881  19.003  1.00  0.00    -0.047 N 
ATOM      5  H31 UNL     1      25.705  30.476  19.906  1.00  0.00     0.279 HD
ATOM      6  H32 UNL     1      25.047  30.692  18.572  1.00  0.00     0.279 HD
HETATM    7  C7  UNL     1      26.349  32.269  19.033  1.00  0.00     0.502 C 
ENDROOT
BRANCH   1   8
HETATM    8  C4  UNL     1      28.323  33.089  20.121  1.00  0.00     0.304 C 
BRANCH   8   9
HETATM    9  C3  UNL     1      28.946  32.061  21.019  1.00  0.00     0.287 C 
BRANCH   9  10
HETATM   10  N1  UNL     1      28.426  31.971  22.348  1.00  0.00     0.008 N 
HETATM   11  C1  UNL     1      27.210  31.185  22.448  1.00  0.00     0.294 C 
HETATM   12  C2  UNL     1      29.328  31.536  23.365  1.00  0.00     0.294 C 
HETATM   13 CL1  UNL     1      27.937  33.608  22.786  1.00  0.00     0.117 Cl
ENDBRANCH   9  10
ENDBRANCH   8   9
ENDBRANCH   1   8
TORSDOF 3
ENDMDL
