MODEL 1
REMARK VINA RESULT: -5.202404199      0.000      0.000
REMARK  3 active torsions:
REMARK  status: ('A' for Active; 'I' for Inactive)
REMARK    1  A    between atoms: C2_2  and  N1_3 
REMARK    2  A    between atoms: N1_3  and  C3_6 
REMARK    3  A    between atoms: C3_6  and  N2_7 
ROOT
HETATM    1  N2  UNL     1      28.210  32.188  21.290  1.00  0.00    -0.046 N 
HETATM    2  C4  UNL     1      27.092  31.334  21.649  1.00  0.00     0.274 C 
HETATM    3  C5  UNL     1      29.282  31.887  22.234  1.00  0.00     0.240 C 
HETATM    4  C6  UNL     1      28.961  32.681  23.479  1.00  0.00     0.050 C 
HETATM    5  C7  UNL     1      27.967  33.754  23.043  1.00  0.00     0.110 C 
HETATM    6 CL1  UNL     1      28.563  35.383  23.433  1.00  0.00    -0.123 Cl
HETATM    7  C8  UNL     1      27.894  33.583  21.538  1.00  0.00     0.259 C 
ENDROOT
BRANCH   1   8
HETATM    8  C3  UNL     1      28.587  31.941  19.931  1.00  0.00     0.467 C 
BRANCH   8   9
HETATM    9  N1  UNL     1      27.464  32.005  19.019  1.00  0.00    -0.051 N 
ATOM     10  H12 UNL     1      27.494  32.829  18.418  1.00  0.00     0.279 HD
ATOM     11  H11 UNL     1      26.586  32.210  19.494  1.00  0.00     0.279 HD
BRANCH   9  12
HETATM   12  C2  UNL     1      27.413  30.782  18.270  1.00  0.00     0.230 C 
HETATM   13  C1  UNL     1      26.095  30.093  18.299  1.00  0.00     0.034 C 
ENDBRANCH   9  12
ENDBRANCH   8   9
ENDBRANCH   1   8
TORSDOF 3
ENDMDL
MODEL 2
REMARK VINA RESULT: -5.023624239      1.776      2.262
REMARK  3 active torsions:
REMARK  status: ('A' for Active; 'I' for Inactive)
REMARK    1  A    between atoms: C2_2  and  N1_3 
REMARK    2  A    between atoms: N1_3  and  C3_6 
REMARK    3  A    between atoms: C3_6  and  N2_7 
ROOT
HETATM    1  N2  UNL     1      27.956  32.595  20.759  1.00  0.00    -0.046 N 
HETATM    2  C4  UNL     1      28.942  33.560  20.309  1.00  0.00     0.274 C 
HETATM    3  C5  UNL     1      27.306  33.179  21.928  1.00  0.00     0.240 C 
HETATM    4  C6  UNL     1      28.234  32.903  23.088  1.00  0.00     0.050 C 
HETATM    5  C7  UNL     1      29.159  31.781  22.623  1.00  0.00     0.110 C 
HETATM    6 CL1  UNL     1      29.084  30.384  23.720  1.00  0.00    -0.123 Cl
HETATM    7  C8  UNL     1      28.601  31.397  21.266  1.00  0.00     0.259 C 
ENDROOT
BRANCH   1   8
HETATM    8  C3  UNL     1      27.035  32.317  19.698  1.00  0.00     0.467 C 
BRANCH   8   9
HETATM    9  N1  UNL     1      27.698  31.931  18.469  1.00  0.00    -0.051 N 
ATOM     10  H12 UNL     1      28.686  32.183  18.462  1.00  0.00     0.279 HD
ATOM     11  H11 UNL     1      27.404  32.496  17.672  1.00  0.00     0.279 HD
BRANCH   9  12
HETATM   12  C2  UNL     1      27.486  30.528  18.257  1.00  0.00     0.230 C 
HETATM   13  C1  UNL     1      26.064  30.098  18.327  1.00  0.00     0.034 C 
ENDBRANCH   9  12
ENDBRANCH   8   9
ENDBRANCH   1   8
TORSDOF 3
ENDMDL
MODEL 3
REMARK VINA RESULT: -4.743376861      1.011      1.550
REMARK  3 active torsions:
REMARK  status: ('A' for Active; 'I' for Inactive)
REMARK    1  A    between atoms: C2_2  and  N1_3 
REMARK    2  A    between atoms: N1_3  and  C3_6 
REMARK    3  A    between atoms: C3_6  and  N2_7 
ROOT
HETATM    1  N2  UNL     1      28.173  32.461  21.349  1.00  0.00    -0.046 N 
HETATM    2  C4  UNL     1      29.318  31.814  21.962  1.00  0.00     0.274 C 
HETATM    3  C5  UNL     1      28.702  33.517  20.491  1.00  0.00     0.240 C 
HETATM    4  C6  UNL     1      28.980  34.684  21.410  1.00  0.00     0.050 C 
HETATM    5  C7  UNL     1      28.179  34.412  22.681  1.00  0.00     0.110 C 
HETATM    6 CL1  UNL     1      27.069  35.753  23.044  1.00  0.00    -0.123 Cl
HETATM    7  C8  UNL     1      27.384  33.166  22.343  1.00  0.00     0.259 C 
ENDROOT
BRANCH   1   8
HETATM    8  C3  UNL     1      27.406  31.494  20.622  1.00  0.00     0.467 C 
BRANCH   8   9
HETATM    9  N1  UNL     1      27.517  31.656  19.187  1.00  0.00    -0.051 N 
ATOM     10  H12 UNL     1      28.387  32.111  18.911  1.00  0.00     0.279 HD
ATOM     11  H11 UNL     1      26.871  32.355  18.821  1.00  0.00     0.279 HD
BRANCH   9  12
HETATM   12  C2  UNL     1      27.347  30.372  18.568  1.00  0.00     0.230 C 
HETATM   13  C1  UNL     1      25.942  30.035  18.217  1.00  0.00     0.034 C 
ENDBRANCH   9  12
ENDBRANCH   8   9
ENDBRANCH   1   8
TORSDOF 3
ENDMDL
MODEL 4
REMARK VINA RESULT: -4.494039725      2.621      4.543
REMARK  3 active torsions:
REMARK  status: ('A' for Active; 'I' for Inactive)
REMARK    1  A    between atoms: C2_2  and  N1_3 
REMARK    2  A    between atoms: N1_3  and  C3_6 
REMARK    3  A    between atoms: C3_6  and  N2_7 
ROOT
HETATM    1  N2  UNL     1      28.658  32.819  20.988  1.00  0.00    -0.046 N 
HETATM    2  C4  UNL     1      29.732  32.178  21.724  1.00  0.00     0.274 C 
HETATM    3  C5  UNL     1      27.437  32.596  21.756  1.00  0.00     0.240 C 
HETATM    4  C6  UNL     1      26.976  31.204  21.390  1.00  0.00     0.050 C 
HETATM    5  C7  UNL     1      27.695  30.857  20.089  1.00  0.00     0.110 C 
HETATM    6 CL1  UNL     1      26.541  30.437  18.804  1.00  0.00    -0.123 Cl
HETATM    7  C8  UNL     1      28.419  32.140  19.727  1.00  0.00     0.259 C 
ENDROOT
BRANCH   1   8
HETATM    8  C3  UNL     1      28.955  34.210  20.817  1.00  0.00     0.467 C 
BRANCH   8   9
HETATM    9  N1  UNL     1      28.017  35.070  21.506  1.00  0.00    -0.051 N 
ATOM     10  H12 UNL     1      27.233  34.554  21.907  1.00  0.00     0.279 HD
ATOM     11  H11 UNL     1      27.484  35.659  20.866  1.00  0.00     0.279 HD
BRANCH   9  12
HETATM   12  C2  UNL     1      28.732  35.834  22.489  1.00  0.00     0.230 C 
HETATM   13  C1  UNL     1      28.754  35.230  23.847  1.00  0.00     0.034 C 
ENDBRANCH   9  12
ENDBRANCH   8   9
ENDBRANCH   1   8
TORSDOF 3
ENDMDL
MODEL 5
REMARK VINA RESULT: -4.183104108      2.702      4.676
REMARK  3 active torsions:
REMARK  status: ('A' for Active; 'I' for Inactive)
REMARK    1  A    between atoms: C2_2  and  N1_3 
REMARK    2  A    between atoms: N1_3  and  C3_6 
REMARK    3  A    between atoms: C3_6  and  N2_7 
ROOT
HETATM    1  N2  UNL     1      28.096  32.513  20.770  1.00  0.00    -0.046 N 
HETATM    2  C4  UNL     1      29.438  32.819  20.310  1.00  0.00     0.274 C 
HETATM    3  C5  UNL     1      28.149  31.169  21.339  1.00  0.00     0.240 C 
HETATM    4  C6  UNL     1      28.055  30.226  20.161  1.00  0.00     0.050 C 
HETATM    5  C7  UNL     1      27.498  31.056  19.008  1.00  0.00     0.110 C 
HETATM    6 CL1  UNL     1      26.011  30.336  18.353  1.00  0.00    -0.123 Cl
HETATM    7  C8  UNL     1      27.181  32.393  19.649  1.00  0.00     0.259 C 
ENDROOT
BRANCH   1   8
HETATM    8  C3  UNL     1      27.677  33.497  21.721  1.00  0.00     0.467 C 
BRANCH   8   9
HETATM    9  N1  UNL     1      28.161  34.824  21.402  1.00  0.00    -0.051 N 
ATOM     10  H12 UNL     1      27.617  35.272  20.664  1.00  0.00     0.279 HD
ATOM     11  H11 UNL     1      29.061  34.808  20.923  1.00  0.00     0.279 HD
BRANCH   9  12
HETATM   12  C2  UNL     1      28.194  35.601  22.608  1.00  0.00     0.230 C 
HETATM   13  C1  UNL     1      28.695  34.870  23.802  1.00  0.00     0.034 C 
ENDBRANCH   9  12
ENDBRANCH   8   9
ENDBRANCH   1   8
TORSDOF 3
ENDMDL
