MODEL 1
REMARK VINA RESULT: -5.993751152      0.000      0.000
REMARK  4 active torsions:
REMARK  status: ('A' for Active; 'I' for Inactive)
REMARK    1  A    between atoms: C2_2  and  C3_3 
REMARK    2  A    between atoms: C7_10  and  C8_11 
REMARK    3  A    between atoms: C8_11  and  N2_12 
REMARK    4  A    between atoms: N2_12  and  O1_13 
ROOT
HETATM    1  C3  UNL     1      28.018  33.490  21.721  1.00  0.00     0.191 C 
HETATM    2  N1  UNL     1      28.253  33.308  23.132  1.00  0.00    -0.070 N 
ATOM      3  H11 UNL     1      27.377  33.178  23.637  1.00  0.00     0.277 HD
ATOM      4  H12 UNL     1      28.565  34.175  23.568  1.00  0.00     0.277 HD
HETATM    5  C4  UNL     1      29.177  32.227  23.401  1.00  0.00     0.232 C 
HETATM    6  C5  UNL     1      28.469  30.958  22.962  1.00  0.00     0.028 C 
HETATM    7  C6  UNL     1      28.318  31.024  21.462  1.00  0.00     0.010 C 
HETATM    8  C7  UNL     1      28.557  32.367  20.862  1.00  0.00     0.039 C 
ENDROOT
BRANCH   8   9
HETATM    9  C8  UNL     1      27.805  32.459  19.554  1.00  0.00     0.196 C 
BRANCH   9  10
HETATM   10  N2  UNL     1      27.585  31.239  18.868  1.00  0.00    -0.122 N 
HETATM   11  F1  UNL     1      26.342  30.770  18.940  1.00  0.00    -0.076 F 
BRANCH  10  12
HETATM   12  O1  UNL     1      28.159  31.177  17.678  1.00  0.00    -0.264 OA
ATOM     13  H1  UNL     1      28.315  30.293  17.367  1.00  0.00     0.247 HD
ENDBRANCH  10  12
ENDBRANCH   9  10
ENDBRANCH   8   9
BRANCH   1  14
HETATM   14  C2  UNL     1      28.582  34.815  21.301  1.00  0.00     0.029 C 
HETATM   15  C1  UNL     1      28.579  35.839  22.394  1.00  0.00     0.007 C 
ENDBRANCH   1  14
TORSDOF 4
ENDMDL
MODEL 2
REMARK VINA RESULT: -5.581827317      1.192      2.776
REMARK  4 active torsions:
REMARK  status: ('A' for Active; 'I' for Inactive)
REMARK    1  A    between atoms: C2_2  and  C3_3 
REMARK    2  A    between atoms: C7_10  and  C8_11 
REMARK    3  A    between atoms: C8_11  and  N2_12 
REMARK    4  A    between atoms: N2_12  and  O1_13 
ROOT
HETATM    1  C3  UNL     1      28.856  32.607  22.374  1.00  0.00     0.191 C 
HETATM    2  N1  UNL     1      28.759  33.508  23.495  1.00  0.00    -0.070 N 
ATOM      3  H11 UNL     1      29.683  33.798  23.815  1.00  0.00     0.277 HD
ATOM      4  H12 UNL     1      28.442  33.022  24.332  1.00  0.00     0.277 HD
HETATM    5  C4  UNL     1      27.922  34.654  23.209  1.00  0.00     0.232 C 
HETATM    6  C5  UNL     1      28.655  35.445  22.141  1.00  0.00     0.028 C 
HETATM    7  C6  UNL     1      28.666  34.604  20.888  1.00  0.00     0.010 C 
HETATM    8  C7  UNL     1      28.302  33.173  21.084  1.00  0.00     0.039 C 
ENDROOT
BRANCH   8   9
HETATM    9  C8  UNL     1      28.927  32.354  19.979  1.00  0.00     0.196 C 
BRANCH   9  10
HETATM   10  N2  UNL     1      28.032  31.737  19.071  1.00  0.00    -0.122 N 
HETATM   11  F1  UNL     1      27.853  30.432  19.255  1.00  0.00    -0.076 F 
BRANCH  10  12
HETATM   12  O1  UNL     1      26.940  32.443  18.824  1.00  0.00    -0.264 OA
ATOM     13  H1  UNL     1      26.970  33.334  19.152  1.00  0.00     0.247 HD
ENDBRANCH  10  12
ENDBRANCH   9  10
ENDBRANCH   8   9
BRANCH   1  14
HETATM   14  C2  UNL     1      28.186  31.312  22.731  1.00  0.00     0.029 C 
HETATM   15  C1  UNL     1      26.749  31.249  22.312  1.00  0.00     0.007 C 
ENDBRANCH   1  14
TORSDOF 4
ENDMDL
MODEL 3
REMARK VINA RESULT: -5.247341261      1.070      1.070
REMARK  4 active torsions:
REMARK  status: ('A' for Active; 'I' for Inactive)
REMARK    1  A    between atoms: C2_2  and  C3_3 
REMARK    2  A    between atoms: C7_10  and  C8_11 
REMARK    3  A    between atoms: C8_11  and  N2_12 
REMARK    4  A    between atoms: N2_12  and  O1_13 
ROOT
HETATM    1  C3  UNL     1      27.876  33.397  22.222  1.00  0.00     0.191 C 
HETATM    2  N1  UNL     1      28.580  33.087  23.441  1.00  0.00    -0.070 N 
ATOM      3  H11 UNL     1      27.929  32.910  24.206  1.00  0.00     0.277 HD
ATOM      4  H12 UNL     1      29.050  33.911  23.815  1.00  0.00     0.277 HD
HETATM    5  C4  UNL     1      29.507  31.988  23.278  1.00  0.00     0.232 C 
HETATM    6  C5  UNL     1      28.652  30.763  23.005  1.00  0.00     0.028 C 
HETATM    7  C6  UNL     1      27.993  30.966  21.662  1.00  0.00     0.010 C 
HETATM    8  C7  UNL     1      28.050  32.358  21.135  1.00  0.00     0.039 C 
ENDROOT
BRANCH   8   9
HETATM    9  C8  UNL     1      26.895  32.569  20.183  1.00  0.00     0.196 C 
BRANCH   9  10
HETATM   10  N2  UNL     1      26.963  31.878  18.949  1.00  0.00    -0.122 N 
HETATM   11  F1  UNL     1      28.167  31.409  18.632  1.00  0.00    -0.076 F 
BRANCH  10  12
HETATM   12  O1  UNL     1      25.947  31.059  18.730  1.00  0.00    -0.264 OA
ATOM     13  H1  UNL     1      25.503  31.203  17.903  1.00  0.00     0.247 HD
ENDBRANCH  10  12
ENDBRANCH   9  10
ENDBRANCH   8   9
BRANCH   1  14
HETATM   14  C2  UNL     1      28.300  34.756  21.747  1.00  0.00     0.029 C 
HETATM   15  C1  UNL     1      28.218  35.811  22.808  1.00  0.00     0.007 C 
ENDBRANCH   1  14
TORSDOF 4
ENDMDL
MODEL 4
REMARK VINA RESULT: -5.054075188      2.878      3.782
REMARK  4 active torsions:
REMARK  status: ('A' for Active; 'I' for Inactive)
REMARK    1  A    between atoms: C2_2  and  C3_3 
REMARK    2  A    between atoms: C7_10  and  C8_11 
REMARK    3  A    between atoms: C8_11  and  N2_12 
REMARK    4  A    between atoms: N2_12  and  O1_13 
ROOT
HETATM    1  C3  UNL     1      28.101  33.031  21.535  1.00  0.00     0.191 C 
HETATM    2  N1  UNL     1      27.809  33.434  20.182  1.00  0.00    -0.070 N 
ATOM      3  H11 UNL     1      28.663  33.656  19.671  1.00  0.00     0.277 HD
ATOM      4  H12 UNL     1      27.364  34.352  20.160  1.00  0.00     0.277 HD
HETATM    5  C4  UNL     1      27.016  32.453  19.474  1.00  0.00     0.232 C 
HETATM    6  C5  UNL     1      27.904  31.231  19.327  1.00  0.00     0.028 C 
HETATM    7  C6  UNL     1      28.133  30.674  20.711  1.00  0.00     0.010 C 
HETATM    8  C7  UNL     1      27.761  31.586  21.828  1.00  0.00     0.039 C 
ENDROOT
BRANCH   8   9
HETATM    9  C8  UNL     1      28.571  31.218  23.050  1.00  0.00     0.196 C 
BRANCH   9  10
HETATM   10  N2  UNL     1      29.650  32.077  23.372  1.00  0.00    -0.122 N 
HETATM   11  F1  UNL     1      29.534  32.715  24.534  1.00  0.00    -0.076 F 
BRANCH  10  12
HETATM   12  O1  UNL     1      30.843  31.570  23.106  1.00  0.00    -0.264 OA
ATOM     13  H1  UNL     1      31.208  31.046  23.810  1.00  0.00     0.247 HD
ENDBRANCH  10  12
ENDBRANCH   9  10
ENDBRANCH   8   9
BRANCH   1  14
HETATM   14  C2  UNL     1      27.399  33.959  22.482  1.00  0.00     0.029 C 
HETATM   15  C1  UNL     1      28.099  35.271  22.662  1.00  0.00     0.007 C 
ENDBRANCH   1  14
TORSDOF 4
ENDMDL
MODEL 5
REMARK VINA RESULT: -4.887537932      3.151      4.228
REMARK  4 active torsions:
REMARK  status: ('A' for Active; 'I' for Inactive)
REMARK    1  A    between atoms: C2_2  and  C3_3 
REMARK    2  A    between atoms: C7_10  and  C8_11 
REMARK    3  A    between atoms: C8_11  and  N2_12 
REMARK    4  A    between atoms: N2_12  and  O1_13 
ROOT
HETATM    1  C3  UNL     1      28.511  32.281  20.686  1.00  0.00     0.191 C 
HETATM    2  N1  UNL     1      28.572  30.923  21.164  1.00  0.00    -0.070 N 
ATOM      3  H11 UNL     1      29.533  30.582  21.184  1.00  0.00     0.277 HD
ATOM      4  H12 UNL     1      28.184  30.274  20.480  1.00  0.00     0.277 HD
HETATM    5  C4  UNL     1      27.935  30.764  22.453  1.00  0.00     0.232 C 
HETATM    6  C5  UNL     1      28.782  31.555  23.434  1.00  0.00     0.028 C 
HETATM    7  C6  UNL     1      28.646  33.013  23.070  1.00  0.00     0.010 C 
HETATM    8  C7  UNL     1      28.052  33.276  21.730  1.00  0.00     0.039 C 
ENDROOT
BRANCH   8   9
HETATM    9  C8  UNL     1      28.525  34.626  21.241  1.00  0.00     0.196 C 
BRANCH   9  10
HETATM   10  N2  UNL     1      28.466  35.689  22.175  1.00  0.00    -0.122 N 
HETATM   11  F1  UNL     1      29.313  36.688  21.945  1.00  0.00    -0.076 F 
BRANCH  10  12
HETATM   12  O1  UNL     1      27.236  36.040  22.518  1.00  0.00    -0.264 OA
ATOM     13  H1  UNL     1      26.585  35.363  22.376  1.00  0.00     0.247 HD
ENDBRANCH  10  12
ENDBRANCH   9  10
ENDBRANCH   8   9
BRANCH   1  14
HETATM   14  C2  UNL     1      27.639  32.330  19.466  1.00  0.00     0.029 C 
HETATM   15  C1  UNL     1      27.460  30.997  18.807  1.00  0.00     0.007 C 
ENDBRANCH   1  14
TORSDOF 4
ENDMDL
