MODEL 1
REMARK VINA RESULT: -9.222969016      0.000      0.000
REMARK  7 active torsions:
REMARK  status: ('A' for Active; 'I' for Inactive)
REMARK    1  A    between atoms: N1_2  and  C2_3 
REMARK    2  A    between atoms: N1_2  and  S1_28 
REMARK    3  A    between atoms: C3_6  and  N3_7 
REMARK       I    between atoms: N3_7  and  C4_9 
REMARK    4  A    between atoms: C4_9  and  C5_11 
REMARK    5  A    between atoms: C5_11  and  O2_12 
REMARK    6  A    between atoms: C6_18  and  O3_19 
REMARK    7  A    between atoms: C7_21  and  O4_22 
ROOT
HETATM    1  N3  UNL     1       4.492   2.066  39.249  1.00  0.00    -0.311 N 
ATOM      2  H3  UNL     1       4.773   2.985  38.906  1.00  0.00     0.170 HD
HETATM    3  C4  UNL     1       4.104   1.117  38.287  1.00  0.00     0.279 C 
HETATM    4  O1  UNL     1       3.750  -0.026  38.643  1.00  0.00    -0.268 OA
ENDROOT
BRANCH   1   5
HETATM    5  C3  UNL     1       4.532   1.866  40.652  1.00  0.00     0.108 C 
HETATM    6  N2  UNL     1       3.544   1.875  41.481  1.00  0.00    -0.338 N 
HETATM    7  C2  UNL     1       3.962   1.635  42.834  1.00  0.00     0.378 C 
ATOM      8  H2  UNL     1       2.575   2.036  41.206  1.00  0.00     0.164 HD
HETATM    9  N7  UNL     1       5.262   1.058  42.713  1.00  0.00    -0.034 N 
HETATM   10  C8  UNL     1       5.748   1.583  41.441  1.00  0.00     0.312 C 
ATOM     11  H72 UNL     1       5.879   1.234  43.506  1.00  0.00     0.281 HD
ATOM     12  H71 UNL     1       5.282   0.041  42.786  1.00  0.00     0.281 HD
BRANCH   7  13
HETATM   13  N1  UNL     1       3.088   0.618  43.382  1.00  0.00    -0.169 NA
HETATM   14  C1  UNL     1       1.772   0.653  42.773  1.00  0.00     0.133 C 
BRANCH  13  15
HETATM   15  S1  UNL     1       3.005   0.694  45.098  1.00  0.00     0.210 S 
HETATM   16  C9  UNL     1       1.979   1.991  45.689  1.00  0.00     0.180 C 
HETATM   17  O5  UNL     1       2.545  -0.606  45.688  1.00  0.00    -0.211 OA
HETATM   18  O6  UNL     1       4.403   0.942  45.609  1.00  0.00    -0.211 OA
ENDBRANCH  13  15
ENDBRANCH   7  13
ENDBRANCH   1   5
BRANCH   3  19
HETATM   19  C5  UNL     1       4.082   1.396  36.830  1.00  0.00     0.261 C 
HETATM   20  N4  UNL     1       4.255   2.819  36.567  1.00  0.00    -0.076 NA
HETATM   21  N5  UNL     1       4.653   3.084  35.276  1.00  0.00    -0.244 N 
HETATM   22  N6  UNL     1       4.433   2.067  34.374  1.00  0.00    -0.094 NA
ATOM     23  H5  UNL     1       5.079   3.970  35.006  1.00  0.00     0.199 HD
HETATM   24  C6  UNL     1       5.132   0.852  34.658  1.00  0.00     0.266 C 
HETATM   25  C7  UNL     1       5.268   0.700  36.158  1.00  0.00     0.227 C 
BRANCH  19  26
HETATM   26  O2  UNL     1       2.914   0.996  36.234  1.00  0.00    -0.363 OA
ATOM     27  H2  UNL     1       2.591   1.629  35.604  1.00  0.00     0.212 HD
ENDBRANCH  19  26
BRANCH  24  28
HETATM   28  O3  UNL     1       6.391   0.827  34.054  1.00  0.00    -0.375 OA
ATOM     29  H3  UNL     1       6.969   1.487  34.419  1.00  0.00     0.211 HD
ENDBRANCH  24  28
BRANCH  25  30
HETATM   30  O4  UNL     1       5.229  -0.636  36.473  1.00  0.00    -0.386 OA
ATOM     31  H4  UNL     1       6.044  -1.038  36.196  1.00  0.00     0.210 HD
ENDBRANCH  25  30
ENDBRANCH   3  19
TORSDOF 7
ENDMDL
MODEL 2
REMARK VINA RESULT: -8.977974916      1.665      2.011
REMARK  7 active torsions:
REMARK  status: ('A' for Active; 'I' for Inactive)
REMARK    1  A    between atoms: N1_2  and  C2_3 
REMARK    2  A    between atoms: N1_2  and  S1_28 
REMARK    3  A    between atoms: C3_6  and  N3_7 
REMARK       I    between atoms: N3_7  and  C4_9 
REMARK    4  A    between atoms: C4_9  and  C5_11 
REMARK    5  A    between atoms: C5_11  and  O2_12 
REMARK    6  A    between atoms: C6_18  and  O3_19 
REMARK    7  A    between atoms: C7_21  and  O4_22 
ROOT
HETATM    1  N3  UNL     1       4.854   1.484  39.443  1.00  0.00    -0.311 N 
ATOM      2  H3  UNL     1       5.868   1.505  39.340  1.00  0.00     0.170 HD
HETATM    3  C4  UNL     1       4.102   1.181  38.294  1.00  0.00     0.279 C 
HETATM    4  O1  UNL     1       2.855   1.139  38.355  1.00  0.00    -0.268 OA
ENDROOT
BRANCH   1   5
HETATM    5  C3  UNL     1       4.334   1.765  40.731  1.00  0.00     0.108 C 
HETATM    6  N2  UNL     1       3.233   1.340  41.251  1.00  0.00    -0.338 N 
HETATM    7  C2  UNL     1       3.029   1.834  42.585  1.00  0.00     0.378 C 
ATOM      8  H2  UNL     1       2.579   0.723  40.768  1.00  0.00     0.164 HD
HETATM    9  N7  UNL     1       4.320   2.276  43.006  1.00  0.00    -0.034 N 
HETATM   10  C8  UNL     1       4.990   2.608  41.752  1.00  0.00     0.312 C 
ATOM     11  H72 UNL     1       4.306   3.033  43.690  1.00  0.00     0.281 HD
ATOM     12  H71 UNL     1       4.825   1.612  43.592  1.00  0.00     0.281 HD
BRANCH   7  13
HETATM   13  N1  UNL     1       2.670   0.702  43.414  1.00  0.00    -0.169 NA
HETATM   14  C1  UNL     1       1.303   0.275  43.181  1.00  0.00     0.133 C 
BRANCH  13  15
HETATM   15  S1  UNL     1       2.975   0.999  45.079  1.00  0.00     0.210 S 
HETATM   16  C9  UNL     1       2.008   0.000  46.153  1.00  0.00     0.180 C 
HETATM   17  O5  UNL     1       4.426   0.823  45.417  1.00  0.00    -0.211 OA
HETATM   18  O6  UNL     1       2.629   2.442  45.355  1.00  0.00    -0.211 OA
ENDBRANCH  13  15
ENDBRANCH   7  13
ENDBRANCH   1   5
BRANCH   3  19
HETATM   19  C5  UNL     1       4.712   0.900  36.972  1.00  0.00     0.261 C 
HETATM   20  N4  UNL     1       4.835  -0.534  36.745  1.00  0.00    -0.076 NA
HETATM   21  N5  UNL     1       4.996  -0.858  35.417  1.00  0.00    -0.244 N 
HETATM   22  N6  UNL     1       5.414   0.175  34.607  1.00  0.00    -0.094 NA
ATOM     23  H5  UNL     1       4.821  -1.796  35.058  1.00  0.00     0.199 HD
HETATM   24  C6  UNL     1       4.511   1.282  34.537  1.00  0.00     0.266 C 
HETATM   25  C7  UNL     1       3.795   1.421  35.863  1.00  0.00     0.227 C 
BRANCH  19  26
HETATM   26  O2  UNL     1       5.959   1.456  36.838  1.00  0.00    -0.363 OA
ATOM     27  H2  UNL     1       6.048   1.966  36.042  1.00  0.00     0.212 HD
ENDBRANCH  19  26
BRANCH  24  28
HETATM   28  O3  UNL     1       3.585   1.130  33.502  1.00  0.00    -0.375 OA
ATOM     29  H3  UNL     1       2.734   0.862  33.829  1.00  0.00     0.211 HD
ENDBRANCH  24  28
BRANCH  25  30
HETATM   30  O4  UNL     1       3.542   2.752  36.092  1.00  0.00    -0.386 OA
ATOM     31  H4  UNL     1       3.980   3.011  36.893  1.00  0.00     0.210 HD
ENDBRANCH  25  30
ENDBRANCH   3  19
TORSDOF 7
ENDMDL
MODEL 3
REMARK VINA RESULT: -8.488191053      1.866      2.494
REMARK  7 active torsions:
REMARK  status: ('A' for Active; 'I' for Inactive)
REMARK    1  A    between atoms: N1_2  and  C2_3 
REMARK    2  A    between atoms: N1_2  and  S1_28 
REMARK    3  A    between atoms: C3_6  and  N3_7 
REMARK       I    between atoms: N3_7  and  C4_9 
REMARK    4  A    between atoms: C4_9  and  C5_11 
REMARK    5  A    between atoms: C5_11  and  O2_12 
REMARK    6  A    between atoms: C6_18  and  O3_19 
REMARK    7  A    between atoms: C7_21  and  O4_22 
ROOT
HETATM    1  N3  UNL     1       3.341  -0.029  38.957  1.00  0.00    -0.311 N 
ATOM      2  H3  UNL     1       3.231  -0.899  38.437  1.00  0.00     0.170 HD
HETATM    3  C4  UNL     1       4.106   0.983  38.351  1.00  0.00     0.279 C 
HETATM    4  O1  UNL     1       4.278   2.073  38.936  1.00  0.00    -0.268 OA
ENDROOT
BRANCH   1   5
HETATM    5  C3  UNL     1       2.708   0.046  40.222  1.00  0.00     0.108 C 
HETATM    6  N2  UNL     1       3.266   0.135  41.382  1.00  0.00    -0.338 N 
HETATM    7  C2  UNL     1       2.305   0.190  42.449  1.00  0.00     0.378 C 
ATOM      8  H2  UNL     1       4.275   0.164  41.526  1.00  0.00     0.164 HD
HETATM    9  N7  UNL     1       1.078   0.548  41.812  1.00  0.00    -0.034 N 
HETATM   10  C8  UNL     1       1.249   0.054  40.450  1.00  0.00     0.312 C 
ATOM     11  H72 UNL     1       0.241   0.206  42.284  1.00  0.00     0.281 HD
ATOM     12  H71 UNL     1       0.841   1.538  41.877  1.00  0.00     0.281 HD
BRANCH   7  13
HETATM   13  N1  UNL     1       2.680   1.291  43.312  1.00  0.00    -0.169 NA
HETATM   14  C1  UNL     1       3.730   2.103  42.726  1.00  0.00     0.133 C 
BRANCH  13  15
HETATM   15  S1  UNL     1       3.086   0.762  44.896  1.00  0.00     0.210 S 
HETATM   16  C9  UNL     1       2.408   1.773  46.163  1.00  0.00     0.180 C 
HETATM   17  O5  UNL     1       2.673  -0.661  45.128  1.00  0.00    -0.211 OA
HETATM   18  O6  UNL     1       4.589   0.813  45.021  1.00  0.00    -0.211 OA
ENDBRANCH  13  15
ENDBRANCH   7  13
ENDBRANCH   1   5
BRANCH   3  19
HETATM   19  C5  UNL     1       4.745   0.835  37.020  1.00  0.00     0.261 C 
HETATM   20  N4  UNL     1       4.994  -0.567  36.712  1.00  0.00    -0.076 NA
HETATM   21  N5  UNL     1       5.190  -0.796  35.368  1.00  0.00    -0.244 N 
HETATM   22  N6  UNL     1       5.519   0.315  34.625  1.00  0.00    -0.094 NA
ATOM     23  H5  UNL     1       5.098  -1.724  34.954  1.00  0.00     0.199 HD
HETATM   24  C6  UNL     1       4.524   1.342  34.610  1.00  0.00     0.266 C 
HETATM   25  C7  UNL     1       3.791   1.339  35.935  1.00  0.00     0.227 C 
BRANCH  19  26
HETATM   26  O2  UNL     1       5.940   1.504  36.933  1.00  0.00    -0.363 OA
ATOM     27  H2  UNL     1       5.906   2.231  36.322  1.00  0.00     0.212 HD
ENDBRANCH  19  26
BRANCH  24  28
HETATM   28  O3  UNL     1       3.620   1.171  33.559  1.00  0.00    -0.375 OA
ATOM     29  H3  UNL     1       2.893   1.780  33.617  1.00  0.00     0.211 HD
ENDBRANCH  24  28
BRANCH  25  30
HETATM   30  O4  UNL     1       3.422   2.627  36.238  1.00  0.00    -0.386 OA
ATOM     31  H4  UNL     1       2.516   2.624  36.524  1.00  0.00     0.210 HD
ENDBRANCH  25  30
ENDBRANCH   3  19
TORSDOF 7
ENDMDL
MODEL 4
REMARK VINA RESULT: -8.447064611      4.379      5.324
REMARK  7 active torsions:
REMARK  status: ('A' for Active; 'I' for Inactive)
REMARK    1  A    between atoms: N1_2  and  C2_3 
REMARK    2  A    between atoms: N1_2  and  S1_28 
REMARK    3  A    between atoms: C3_6  and  N3_7 
REMARK       I    between atoms: N3_7  and  C4_9 
REMARK    4  A    between atoms: C4_9  and  C5_11 
REMARK    5  A    between atoms: C5_11  and  O2_12 
REMARK    6  A    between atoms: C6_18  and  O3_19 
REMARK    7  A    between atoms: C7_21  and  O4_22 
ROOT
HETATM    1  N3  UNL     1       1.864   0.013  37.339  1.00  0.00    -0.311 N 
ATOM      2  H3  UNL     1       1.848  -0.690  36.600  1.00  0.00     0.170 HD
HETATM    3  C4  UNL     1       2.779   1.071  37.191  1.00  0.00     0.279 C 
HETATM    4  O1  UNL     1       2.848   1.965  38.061  1.00  0.00    -0.268 OA
ENDROOT
BRANCH   1   5
HETATM    5  C3  UNL     1       0.963  -0.168  38.417  1.00  0.00     0.108 C 
HETATM    6  N2  UNL     1      -0.277   0.181  38.480  1.00  0.00    -0.338 N 
HETATM    7  C2  UNL     1      -0.881  -0.164  39.737  1.00  0.00     0.378 C 
ATOM      8  H2  UNL     1      -0.773   0.649  37.722  1.00  0.00     0.164 HD
HETATM    9  N7  UNL     1      -0.005  -1.141  40.301  1.00  0.00    -0.034 N 
HETATM   10  C8  UNL     1       1.286  -0.825  39.700  1.00  0.00     0.312 C 
ATOM     11  H72 UNL     1      -0.001  -1.168  41.321  1.00  0.00     0.281 HD
ATOM     12  H71 UNL     1      -0.308  -2.106  40.171  1.00  0.00     0.281 HD
BRANCH   7  13
HETATM   13  N1  UNL     1      -2.136  -0.826  39.447  1.00  0.00    -0.169 NA
HETATM   14  C1  UNL     1      -1.938  -2.050  38.695  1.00  0.00     0.133 C 
BRANCH  13  15
HETATM   15  S1  UNL     1      -3.259   0.225  38.680  1.00  0.00     0.210 S 
HETATM   16  C9  UNL     1      -4.890   0.085  39.317  1.00  0.00     0.180 C 
HETATM   17  O5  UNL     1      -2.821   1.658  38.760  1.00  0.00    -0.211 OA
HETATM   18  O6  UNL     1      -3.301  -0.144  37.218  1.00  0.00    -0.211 OA
ENDBRANCH  13  15
ENDBRANCH   7  13
ENDBRANCH   1   5
BRANCH   3  19
HETATM   19  C5  UNL     1       3.699   1.197  36.035  1.00  0.00     0.261 C 
HETATM   20  N4  UNL     1       4.213   2.556  35.920  1.00  0.00    -0.076 NA
HETATM   21  N5  UNL     1       5.354   2.638  35.154  1.00  0.00    -0.244 N 
HETATM   22  N6  UNL     1       5.580   1.564  34.322  1.00  0.00    -0.094 NA
ATOM     23  H5  UNL     1       5.986   3.437  35.199  1.00  0.00     0.199 HD
HETATM   24  C6  UNL     1       5.761   0.314  34.993  1.00  0.00     0.266 C 
HETATM   25  C7  UNL     1       4.923   0.305  36.254  1.00  0.00     0.227 C 
BRANCH  19  26
HETATM   26  O2  UNL     1       3.098   0.872  34.845  1.00  0.00    -0.363 OA
ATOM     27  H2  UNL     1       2.287   0.394  34.966  1.00  0.00     0.212 HD
ENDBRANCH  19  26
BRANCH  24  28
HETATM   28  O3  UNL     1       7.103   0.083  35.304  1.00  0.00    -0.375 OA
ATOM     29  H3  UNL     1       7.460  -0.643  34.806  1.00  0.00     0.211 HD
ENDBRANCH  24  28
BRANCH  25  30
HETATM   30  O4  UNL     1       4.495  -0.979  36.491  1.00  0.00    -0.386 OA
ATOM     31  H4  UNL     1       5.219  -1.481  36.845  1.00  0.00     0.210 HD
ENDBRANCH  25  30
ENDBRANCH   3  19
TORSDOF 7
ENDMDL
MODEL 5
REMARK VINA RESULT: -8.437461508      1.090      1.692
REMARK  7 active torsions:
REMARK  status: ('A' for Active; 'I' for Inactive)
REMARK    1  A    between atoms: N1_2  and  C2_3 
REMARK    2  A    between atoms: N1_2  and  S1_28 
REMARK    3  A    between atoms: C3_6  and  N3_7 
REMARK       I    between atoms: N3_7  and  C4_9 
REMARK    4  A    between atoms: C4_9  and  C5_11 
REMARK    5  A    between atoms: C5_11  and  O2_12 
REMARK    6  A    between atoms: C6_18  and  O3_19 
REMARK    7  A    between atoms: C7_21  and  O4_22 
ROOT
HETATM    1  N3  UNL     1       2.676   0.923  38.990  1.00  0.00    -0.311 N 
ATOM      2  H3  UNL     1       1.820   0.913  38.436  1.00  0.00     0.170 HD
HETATM    3  C4  UNL     1       3.874   1.201  38.308  1.00  0.00     0.279 C 
HETATM    4  O1  UNL     1       4.957   1.229  38.930  1.00  0.00    -0.268 OA
ENDROOT
BRANCH   1   5
HETATM    5  C3  UNL     1       2.547   0.657  40.376  1.00  0.00     0.108 C 
HETATM    6  N2  UNL     1       3.488   0.511  41.246  1.00  0.00    -0.338 N 
HETATM    7  C2  UNL     1       2.981   0.248  42.564  1.00  0.00     0.378 C 
ATOM      8  H2  UNL     1       4.482   0.576  41.022  1.00  0.00     0.164 HD
HETATM    9  N7  UNL     1       1.614   0.658  42.513  1.00  0.00    -0.034 N 
HETATM   10  C8  UNL     1       1.269   0.509  41.103  1.00  0.00     0.312 C 
ATOM     11  H72 UNL     1       0.998   0.158  43.154  1.00  0.00     0.281 HD
ATOM     12  H71 UNL     1       1.436   1.587  42.896  1.00  0.00     0.281 HD
BRANCH   7  13
HETATM   13  N1  UNL     1       3.665   1.141  43.476  1.00  0.00    -0.169 NA
HETATM   14  C1  UNL     1       5.106   1.070  43.322  1.00  0.00     0.133 C 
BRANCH  13  15
HETATM   15  S1  UNL     1       3.181   0.894  45.107  1.00  0.00     0.210 S 
HETATM   16  C9  UNL     1       2.034   2.094  45.682  1.00  0.00     0.180 C 
HETATM   17  O5  UNL     1       2.605  -0.476  45.313  1.00  0.00    -0.211 OA
HETATM   18  O6  UNL     1       4.417   0.989  45.967  1.00  0.00    -0.211 OA
ENDBRANCH  13  15
ENDBRANCH   7  13
ENDBRANCH   1   5
BRANCH   3  19
HETATM   19  C5  UNL     1       3.938   1.468  36.850  1.00  0.00     0.261 C 
HETATM   20  N4  UNL     1       4.193   2.878  36.587  1.00  0.00    -0.076 NA
HETATM   21  N5  UNL     1       4.667   3.111  35.315  1.00  0.00    -0.244 N 
HETATM   22  N6  UNL     1       4.440   2.099  34.409  1.00  0.00    -0.094 NA
ATOM     23  H5  UNL     1       5.150   3.973  35.062  1.00  0.00     0.199 HD
HETATM   24  C6  UNL     1       5.063   0.853  34.735  1.00  0.00     0.266 C 
HETATM   25  C7  UNL     1       5.118   0.708  36.241  1.00  0.00     0.227 C 
BRANCH  19  26
HETATM   26  O2  UNL     1       2.781   1.121  36.200  1.00  0.00    -0.363 OA
ATOM     27  H2  UNL     1       2.898   1.052  35.260  1.00  0.00     0.212 HD
ENDBRANCH  19  26
BRANCH  24  28
HETATM   28  O3  UNL     1       6.347   0.760  34.194  1.00  0.00    -0.375 OA
ATOM     29  H3  UNL     1       6.913   0.210  34.723  1.00  0.00     0.211 HD
ENDBRANCH  24  28
BRANCH  25  30
HETATM   30  O4  UNL     1       4.997  -0.622  36.561  1.00  0.00    -0.386 OA
ATOM     31  H4  UNL     1       5.692  -0.854  37.166  1.00  0.00     0.210 HD
ENDBRANCH  25  30
ENDBRANCH   3  19
TORSDOF 7
ENDMDL
