MODEL 1
REMARK VINA RESULT: -6.958557102      0.000      0.000
REMARK  8 active torsions:
REMARK  status: ('A' for Active; 'I' for Inactive)
REMARK    1  A    between atoms: C2_2  and  C4_4 
REMARK    2  A    between atoms: C4_4  and  N1_5 
REMARK    3  A    between atoms: N1_5  and  C5_6 
REMARK    4  A    between atoms: N1_5  and  S1_24 
REMARK    5  A    between atoms: C5_6  and  C6_7 
REMARK    6  A    between atoms: C6_7  and  C7_8 
REMARK    7  A    between atoms: C7_8  and  N2_9 
REMARK    8  A    between atoms: N2_9  and  C8_11 
ROOT
HETATM    1  N2  UNL     1      13.319 -14.059  20.508  1.00  0.00    -0.389 N 
ATOM      2  H2  UNL     1      12.564 -14.260  21.163  1.00  0.00     0.159 HD
ENDROOT
BRANCH   1   3
HETATM    3  C7  UNL     1      14.255 -15.129  20.229  1.00  0.00     0.121 C 
BRANCH   3   4
HETATM    4  C6  UNL     1      15.425 -14.935  21.200  1.00  0.00     0.040 C 
BRANCH   4   5
HETATM    5  C5  UNL     1      16.579 -14.340  20.449  1.00  0.00     0.142 C 
BRANCH   5   6
HETATM    6  N1  UNL     1      17.311 -13.348  21.143  1.00  0.00    -0.290 N 
BRANCH   6   7
HETATM    7  C4  UNL     1      17.281 -13.336  22.537  1.00  0.00     0.079 C 
BRANCH   7   8
HETATM    8  C2  UNL     1      18.320 -14.130  23.278  1.00  0.00     0.017 C 
HETATM    9  C1  UNL     1      19.691 -13.476  23.153  1.00  0.00     0.015 C 
HETATM   10  C3  UNL     1      17.989 -14.535  24.668  1.00  0.00     0.015 C 
ENDBRANCH   7   8
ENDBRANCH   6   7
BRANCH   6  11
HETATM   11  S1  UNL     1      17.463 -11.930  20.261  1.00  0.00     0.228 S 
HETATM   12  C17 UNL     1      17.485 -12.140  18.523  1.00  0.00     0.186 C 
HETATM   13  O1  UNL     1      18.680 -11.117  20.721  1.00  0.00    -0.206 OA
HETATM   14  O2  UNL     1      16.293 -10.983  20.556  1.00  0.00    -0.206 OA
ENDBRANCH   6  11
ENDBRANCH   5   6
ENDBRANCH   4   5
ENDBRANCH   3   4
ENDBRANCH   1   3
BRANCH   1  15
HETATM   15  C8  UNL     1      13.357 -12.890  20.008  1.00  0.00     0.043 A 
HETATM   16  C9  UNL     1      13.872 -12.552  18.778  1.00  0.00     0.075 A 
HETATM   17  C10 UNL     1      13.872 -11.254  18.312  1.00  0.00     0.118 A 
HETATM   18  N3  UNL     1      14.394 -10.878  17.053  1.00  0.00    -0.083 NA
HETATM   19  N4  UNL     1      13.343 -10.295  19.104  1.00  0.00    -0.344 N 
HETATM   20  C11 UNL     1      12.829 -10.545  20.302  1.00  0.00     0.046 A 
ATOM     21  H4  UNL     1      13.340  -9.333  18.766  1.00  0.00     0.167 HD
HETATM   22  C12 UNL     1      12.301  -9.510  21.065  1.00  0.00     0.032 A 
HETATM   23  C16 UNL     1      12.832 -11.859  20.766  1.00  0.00     0.018 A 
HETATM   24  C13 UNL     1      11.772  -9.807  22.308  1.00  0.00     0.021 A 
HETATM   25  C14 UNL     1      11.775 -11.092  22.767  1.00  0.00     0.011 A 
HETATM   26 BR1  UNL     1      11.035 -11.450  24.485  1.00  0.00    -0.051 Br
HETATM   27  C15 UNL     1      12.297 -12.103  22.005  1.00  0.00     0.035 A 
ENDBRANCH   1  15
TORSDOF 8
ENDMDL
MODEL 2
REMARK VINA RESULT: -6.814971970      2.814      6.515
REMARK  8 active torsions:
REMARK  status: ('A' for Active; 'I' for Inactive)
REMARK    1  A    between atoms: C2_2  and  C4_4 
REMARK    2  A    between atoms: C4_4  and  N1_5 
REMARK    3  A    between atoms: N1_5  and  C5_6 
REMARK    4  A    between atoms: N1_5  and  S1_24 
REMARK    5  A    between atoms: C5_6  and  C6_7 
REMARK    6  A    between atoms: C6_7  and  C7_8 
REMARK    7  A    between atoms: C7_8  and  N2_9 
REMARK    8  A    between atoms: N2_9  and  C8_11 
ROOT
HETATM    1  N2  UNL     1      16.684 -13.591  22.294  1.00  0.00    -0.389 N 
ATOM      2  H2  UNL     1      16.321 -13.169  23.149  1.00  0.00     0.159 HD
ENDROOT
BRANCH   1   3
HETATM    3  C7  UNL     1      15.758 -14.367  21.495  1.00  0.00     0.121 C 
BRANCH   3   4
HETATM    4  C6  UNL     1      14.450 -13.569  21.465  1.00  0.00     0.040 C 
BRANCH   4   5
HETATM    5  C5  UNL     1      14.766 -12.140  21.135  1.00  0.00     0.142 C 
BRANCH   5   6
HETATM    6  N1  UNL     1      13.945 -11.548  20.147  1.00  0.00    -0.290 N 
BRANCH   6   7
HETATM    7  C4  UNL     1      14.249 -11.753  18.802  1.00  0.00     0.079 C 
BRANCH   7   8
HETATM    8  C2  UNL     1      15.579 -12.361  18.457  1.00  0.00     0.017 C 
HETATM    9  C1  UNL     1      15.398 -13.748  17.849  1.00  0.00     0.015 C 
HETATM   10  C3  UNL     1      16.530 -11.508  17.698  1.00  0.00     0.015 C 
ENDBRANCH   7   8
ENDBRANCH   6   7
BRANCH   6  11
HETATM   11  S1  UNL     1      13.238 -10.121  20.674  1.00  0.00     0.228 S 
HETATM   12  C17 UNL     1      11.940 -10.324  21.832  1.00  0.00     0.186 C 
HETATM   13  O1  UNL     1      12.775  -9.261  19.492  1.00  0.00    -0.206 OA
HETATM   14  O2  UNL     1      14.276  -9.225  21.359  1.00  0.00    -0.206 OA
ENDBRANCH   6  11
ENDBRANCH   5   6
ENDBRANCH   4   5
ENDBRANCH   3   4
ENDBRANCH   1   3
BRANCH   1  15
HETATM   15  C8  UNL     1      17.911 -13.391  22.024  1.00  0.00     0.043 A 
HETATM   16  C9  UNL     1      18.403 -12.818  20.874  1.00  0.00     0.075 A 
HETATM   17  C10 UNL     1      19.755 -12.637  20.664  1.00  0.00     0.118 A 
HETATM   18  N3  UNL     1      20.289 -12.052  19.492  1.00  0.00    -0.083 NA
HETATM   19  N4  UNL     1      20.608 -13.043  21.630  1.00  0.00    -0.344 N 
HETATM   20  C11 UNL     1      20.207 -13.603  22.764  1.00  0.00     0.046 A 
ATOM     21  H4  UNL     1      21.609 -12.912  21.480  1.00  0.00     0.167 HD
HETATM   22  C12 UNL     1      21.140 -13.997  23.716  1.00  0.00     0.032 A 
HETATM   23  C16 UNL     1      18.841 -13.782  22.971  1.00  0.00     0.018 A 
HETATM   24  C13 UNL     1      20.686 -14.577  24.887  1.00  0.00     0.021 A 
HETATM   25  C14 UNL     1      19.349 -14.755  25.093  1.00  0.00     0.011 A 
HETATM   26 BR1  UNL     1      18.775 -15.558  26.722  1.00  0.00    -0.051 Br
HETATM   27  C15 UNL     1      18.440 -14.362  24.148  1.00  0.00     0.035 A 
ENDBRANCH   1  15
TORSDOF 8
ENDMDL
MODEL 3
REMARK VINA RESULT: -6.804706096      2.655      6.344
REMARK  8 active torsions:
REMARK  status: ('A' for Active; 'I' for Inactive)
REMARK    1  A    between atoms: C2_2  and  C4_4 
REMARK    2  A    between atoms: C4_4  and  N1_5 
REMARK    3  A    between atoms: N1_5  and  C5_6 
REMARK    4  A    between atoms: N1_5  and  S1_24 
REMARK    5  A    between atoms: C5_6  and  C6_7 
REMARK    6  A    between atoms: C6_7  and  C7_8 
REMARK    7  A    between atoms: C7_8  and  N2_9 
REMARK    8  A    between atoms: N2_9  and  C8_11 
ROOT
HETATM    1  N2  UNL     1      16.659 -13.604  22.242  1.00  0.00    -0.389 N 
ATOM      2  H2  UNL     1      16.433 -14.319  22.934  1.00  0.00     0.159 HD
ENDROOT
BRANCH   1   3
HETATM    3  C7  UNL     1      15.549 -12.889  21.645  1.00  0.00     0.121 C 
BRANCH   3   4
HETATM    4  C6  UNL     1      14.662 -13.951  20.988  1.00  0.00     0.040 C 
BRANCH   4   5
HETATM    5  C5  UNL     1      13.805 -13.287  19.951  1.00  0.00     0.142 C 
BRANCH   5   6
HETATM    6  N1  UNL     1      14.133 -11.942  19.660  1.00  0.00    -0.290 N 
BRANCH   6   7
HETATM    7  C4  UNL     1      13.226 -10.937  19.990  1.00  0.00     0.079 C 
BRANCH   7   8
HETATM    8  C2  UNL     1      13.095 -10.542  21.433  1.00  0.00     0.017 C 
HETATM    9  C1  UNL     1      13.716  -9.171  21.677  1.00  0.00     0.015 C 
HETATM   10  C3  UNL     1      11.753 -10.695  22.052  1.00  0.00     0.015 C 
ENDBRANCH   7   8
ENDBRANCH   6   7
BRANCH   6  11
HETATM   11  S1  UNL     1      15.143 -11.804  18.327  1.00  0.00     0.228 S 
HETATM   12  C17 UNL     1      15.575 -13.322  17.568  1.00  0.00     0.186 C 
HETATM   13  O1  UNL     1      16.401 -10.994  18.665  1.00  0.00    -0.206 OA
HETATM   14  O2  UNL     1      14.479 -10.960  17.233  1.00  0.00    -0.206 OA
ENDBRANCH   6  11
ENDBRANCH   5   6
ENDBRANCH   4   5
ENDBRANCH   3   4
ENDBRANCH   1   3
BRANCH   1  15
HETATM   15  C8  UNL     1      17.889 -13.419  21.979  1.00  0.00     0.043 A 
HETATM   16  C9  UNL     1      18.396 -12.858  20.830  1.00  0.00     0.075 A 
HETATM   17  C10 UNL     1      19.751 -12.694  20.627  1.00  0.00     0.118 A 
HETATM   18  N3  UNL     1      20.299 -12.120  19.456  1.00  0.00    -0.083 NA
HETATM   19  N4  UNL     1      20.593 -13.104  21.601  1.00  0.00    -0.344 N 
HETATM   20  C11 UNL     1      20.178 -13.655  22.735  1.00  0.00     0.046 A 
ATOM     21  H4  UNL     1      21.596 -12.986  21.457  1.00  0.00     0.167 HD
HETATM   22  C12 UNL     1      21.100 -14.055  23.695  1.00  0.00     0.032 A 
HETATM   23  C16 UNL     1      18.808 -13.817  22.933  1.00  0.00     0.018 A 
HETATM   24  C13 UNL     1      20.632 -14.624  24.865  1.00  0.00     0.021 A 
HETATM   25  C14 UNL     1      19.292 -14.786  25.063  1.00  0.00     0.011 A 
HETATM   26 BR1  UNL     1      18.697 -15.575  26.692  1.00  0.00    -0.051 Br
HETATM   27  C15 UNL     1      18.394 -14.387  24.110  1.00  0.00     0.035 A 
ENDBRANCH   1  15
TORSDOF 8
ENDMDL
MODEL 4
REMARK VINA RESULT: -6.778661928      2.330      3.181
REMARK  8 active torsions:
REMARK  status: ('A' for Active; 'I' for Inactive)
REMARK    1  A    between atoms: C2_2  and  C4_4 
REMARK    2  A    between atoms: C4_4  and  N1_5 
REMARK    3  A    between atoms: N1_5  and  C5_6 
REMARK    4  A    between atoms: N1_5  and  S1_24 
REMARK    5  A    between atoms: C5_6  and  C6_7 
REMARK    6  A    between atoms: C6_7  and  C7_8 
REMARK    7  A    between atoms: C7_8  and  N2_9 
REMARK    8  A    between atoms: N2_9  and  C8_11 
ROOT
HETATM    1  N2  UNL     1      14.801 -14.182  21.401  1.00  0.00    -0.389 N 
ATOM      2  H2  UNL     1      14.007 -14.324  22.025  1.00  0.00     0.159 HD
ENDROOT
BRANCH   1   3
HETATM    3  C7  UNL     1      15.914 -15.100  21.529  1.00  0.00     0.121 C 
BRANCH   3   4
HETATM    4  C6  UNL     1      16.930 -14.413  22.448  1.00  0.00     0.040 C 
BRANCH   4   5
HETATM    5  C5  UNL     1      18.275 -15.043  22.233  1.00  0.00     0.142 C 
BRANCH   5   6
HETATM    6  N1  UNL     1      19.345 -14.140  22.032  1.00  0.00    -0.290 N 
BRANCH   6   7
HETATM    7  C4  UNL     1      19.743 -13.841  20.730  1.00  0.00     0.079 C 
BRANCH   7   8
HETATM    8  C2  UNL     1      19.718 -12.404  20.289  1.00  0.00     0.017 C 
HETATM    9  C1  UNL     1      20.020 -12.291  18.799  1.00  0.00     0.015 C 
HETATM   10  C3  UNL     1      18.549 -11.592  20.714  1.00  0.00     0.015 C 
ENDBRANCH   7   8
ENDBRANCH   6   7
BRANCH   6  11
HETATM   11  S1  UNL     1      20.444 -14.158  23.299  1.00  0.00     0.228 S 
HETATM   12  C17 UNL     1      19.833 -13.535  24.816  1.00  0.00     0.186 C 
HETATM   13  O1  UNL     1      21.749 -13.449  22.912  1.00  0.00    -0.206 OA
HETATM   14  O2  UNL     1      20.910 -15.589  23.589  1.00  0.00    -0.206 OA
ENDBRANCH   6  11
ENDBRANCH   5   6
ENDBRANCH   4   5
ENDBRANCH   3   4
ENDBRANCH   1   3
BRANCH   1  15
HETATM   15  C8  UNL     1      14.728 -13.214  20.580  1.00  0.00     0.043 A 
HETATM   16  C9  UNL     1      15.454 -13.080  19.419  1.00  0.00     0.075 A 
HETATM   17  C10 UNL     1      15.309 -11.992  18.583  1.00  0.00     0.118 A 
HETATM   18  N3  UNL     1      16.042 -11.829  17.384  1.00  0.00    -0.083 NA
HETATM   19  N4  UNL     1      14.420 -11.036  18.932  1.00  0.00    -0.344 N 
HETATM   20  C11 UNL     1      13.685 -11.097  20.035  1.00  0.00     0.046 A 
ATOM     21  H4  UNL     1      14.308 -10.229  18.318  1.00  0.00     0.167 HD
HETATM   22  C12 UNL     1      12.789 -10.077  20.333  1.00  0.00     0.032 A 
HETATM   23  C16 UNL     1      13.836 -12.198  20.876  1.00  0.00     0.018 A 
HETATM   24  C13 UNL     1      12.039 -10.173  21.492  1.00  0.00     0.021 A 
HETATM   25  C14 UNL     1      12.184 -11.250  22.318  1.00  0.00     0.011 A 
HETATM   26 BR1  UNL     1      11.128 -11.336  23.901  1.00  0.00    -0.051 Br
HETATM   27  C15 UNL     1      13.070 -12.248  22.012  1.00  0.00     0.035 A 
ENDBRANCH   1  15
TORSDOF 8
ENDMDL
MODEL 5
REMARK VINA RESULT: -6.761188530      3.117      6.813
REMARK  8 active torsions:
REMARK  status: ('A' for Active; 'I' for Inactive)
REMARK    1  A    between atoms: C2_2  and  C4_4 
REMARK    2  A    between atoms: C4_4  and  N1_5 
REMARK    3  A    between atoms: N1_5  and  C5_6 
REMARK    4  A    between atoms: N1_5  and  S1_24 
REMARK    5  A    between atoms: C5_6  and  C6_7 
REMARK    6  A    between atoms: C6_7  and  C7_8 
REMARK    7  A    between atoms: C7_8  and  N2_9 
REMARK    8  A    between atoms: N2_9  and  C8_11 
ROOT
HETATM    1  N2  UNL     1      17.946 -13.810  21.744  1.00  0.00    -0.389 N 
ATOM      2  H2  UNL     1      18.918 -13.513  21.825  1.00  0.00     0.159 HD
ENDROOT
BRANCH   1   3
HETATM    3  C7  UNL     1      17.130 -13.137  20.754  1.00  0.00     0.121 C 
BRANCH   3   4
HETATM    4  C6  UNL     1      16.125 -12.285  21.537  1.00  0.00     0.040 C 
BRANCH   4   5
HETATM    5  C5  UNL     1      15.514 -11.282  20.604  1.00  0.00     0.142 C 
BRANCH   5   6
HETATM    6  N1  UNL     1      14.120 -11.408  20.402  1.00  0.00    -0.290 N 
BRANCH   6   7
HETATM    7  C4  UNL     1      13.655 -12.249  19.392  1.00  0.00     0.079 C 
BRANCH   7   8
HETATM    8  C2  UNL     1      13.155 -13.613  19.775  1.00  0.00     0.017 C 
HETATM    9  C1  UNL     1      14.082 -14.699  19.239  1.00  0.00     0.015 C 
HETATM   10  C3  UNL     1      12.777 -13.816  21.198  1.00  0.00     0.015 C 
ENDBRANCH   7   8
ENDBRANCH   6   7
BRANCH   6  11
HETATM   11  S1  UNL     1      13.283 -10.022  20.839  1.00  0.00     0.228 S 
HETATM   12  C17 UNL     1      11.906 -10.291  21.887  1.00  0.00     0.186 C 
HETATM   13  O1  UNL     1      12.869  -9.211  19.604  1.00  0.00    -0.206 OA
HETATM   14  O2  UNL     1      14.201  -9.051  21.590  1.00  0.00    -0.206 OA
ENDBRANCH   6  11
ENDBRANCH   5   6
ENDBRANCH   4   5
ENDBRANCH   3   4
ENDBRANCH   1   3
BRANCH   1  15
HETATM   15  C8  UNL     1      17.556 -14.739  22.521  1.00  0.00     0.043 A 
HETATM   16  C9  UNL     1      16.610 -15.694  22.229  1.00  0.00     0.075 A 
HETATM   17  C10 UNL     1      16.247 -16.669  23.136  1.00  0.00     0.118 A 
HETATM   18  N3  UNL     1      15.278 -17.663  22.864  1.00  0.00    -0.083 NA
HETATM   19  N4  UNL     1      16.851 -16.670  24.344  1.00  0.00    -0.344 N 
HETATM   20  C11 UNL     1      17.771 -15.781  24.696  1.00  0.00     0.046 A 
ATOM     21  H4  UNL     1      16.587 -17.388  25.019  1.00  0.00     0.167 HD
HETATM   22  C12 UNL     1      18.353 -15.840  25.957  1.00  0.00     0.032 A 
HETATM   23  C16 UNL     1      18.134 -14.798  23.776  1.00  0.00     0.018 A 
HETATM   24  C13 UNL     1      19.309 -14.897  26.290  1.00  0.00     0.021 A 
HETATM   25  C14 UNL     1      19.666 -13.933  25.392  1.00  0.00     0.011 A 
HETATM   26 BR1  UNL     1      20.988 -12.659  25.898  1.00  0.00    -0.051 Br
HETATM   27  C15 UNL     1      19.087 -13.887  24.153  1.00  0.00     0.035 A 
ENDBRANCH   1  15
TORSDOF 8
ENDMDL
