MODEL 1
REMARK VINA RESULT: -8.332688446      0.000      0.000
REMARK  7 active torsions:
REMARK  status: ('A' for Active; 'I' for Inactive)
REMARK    1  A    between atoms: C2_2  and  C3_3 
REMARK    2  A    between atoms: C3_3  and  C4_4 
REMARK    3  A    between atoms: C4_4  and  O1_5 
REMARK    4  A    between atoms: C4_4  and  C20_26 
REMARK    5  A    between atoms: O1_5  and  C5_6 
REMARK    6  A    between atoms: C11_14  and  C12_15 
REMARK    7  A    between atoms: C16_20  and  O2_21 
ROOT
HETATM    1  C5  UNL     1      20.407 -13.410  22.120  1.00  0.00     0.072 A 
HETATM    2  C6  UNL     1      20.456 -12.781  20.898  1.00  0.00     0.039 A 
HETATM    3  C7  UNL     1      19.349 -12.353  20.194  1.00  0.00     0.035 A 
HETATM    4  C8  UNL     1      18.118 -12.573  20.761  1.00  0.00     0.062 A 
HETATM    5  C9  UNL     1      18.002 -13.193  21.972  1.00  0.00     0.063 A 
HETATM    6  C10 UNL     1      19.130 -13.615  22.660  1.00  0.00     0.068 A 
HETATM    7  N1  UNL     1      16.689 -13.262  22.255  1.00  0.00    -0.340 N 
ATOM      8  H1  UNL     1      16.299 -13.677  23.101  1.00  0.00     0.167 HD
HETATM    9  C11 UNL     1      15.949 -12.701  21.255  1.00  0.00     0.118 A 
HETATM   10  N2  UNL     1      16.827 -12.288  20.354  1.00  0.00    -0.335 N 
HETATM   11  C19 UNL     1      16.542 -11.647  19.099  1.00  0.00     0.158 C 
ENDROOT
BRANCH   9  12
HETATM   12  C12 UNL     1      14.495 -12.669  21.303  1.00  0.00     0.012 A 
HETATM   13  C13 UNL     1      13.758 -11.841  22.104  1.00  0.00     0.034 A 
HETATM   14  C14 UNL     1      12.357 -11.861  22.049  1.00  0.00     0.014 A 
HETATM   15 BR1  UNL     1      11.436 -10.664  23.210  1.00  0.00    -0.051 Br
HETATM   16  C15 UNL     1      11.708 -12.707  21.197  1.00  0.00     0.055 A 
HETATM   17  C16 UNL     1      12.407 -13.561  20.371  1.00  0.00     0.070 A 
HETATM   18  C18 UNL     1      13.768 -13.523  20.441  1.00  0.00     0.052 A 
BRANCH  17  19
HETATM   19  O2  UNL     1      11.759 -14.407  19.518  1.00  0.00    -0.356 OA
HETATM   20  C17 UNL     1      12.153 -15.762  19.355  1.00  0.00     0.210 C 
ENDBRANCH  17  19
ENDBRANCH   9  12
BRANCH   1  21
HETATM   21  O1  UNL     1      21.518 -13.838  22.823  1.00  0.00    -0.337 OA
BRANCH  21  22
HETATM   22  C4  UNL     1      21.612 -14.182  24.155  1.00  0.00     0.221 C 
BRANCH  22  23
HETATM   23  C3  UNL     1      22.103 -13.002  24.997  1.00  0.00     0.068 C 
BRANCH  23  24
HETATM   24  C2  UNL     1      21.002 -12.527  25.867  1.00  0.00    -0.034 C 
HETATM   25  C1  UNL     1      20.915 -12.959  27.105  1.00  0.00     0.007 C 
ENDBRANCH  23  24
ENDBRANCH  22  23
BRANCH  22  26
HETATM   26  C20 UNL     1      22.468 -15.378  24.395  1.00  0.00     0.261 C 
HETATM   27  N3  UNL     1      22.853 -15.722  25.710  1.00  0.00    -0.060 NA
HETATM   28  O3  UNL     1      22.858 -16.093  23.438  1.00  0.00    -0.274 OA
ENDBRANCH  22  26
ENDBRANCH  21  22
ENDBRANCH   1  21
TORSDOF 7
ENDMDL
MODEL 2
REMARK VINA RESULT: -8.281593203      1.906      2.493
REMARK  7 active torsions:
REMARK  status: ('A' for Active; 'I' for Inactive)
REMARK    1  A    between atoms: C2_2  and  C3_3 
REMARK    2  A    between atoms: C3_3  and  C4_4 
REMARK    3  A    between atoms: C4_4  and  O1_5 
REMARK    4  A    between atoms: C4_4  and  C20_26 
REMARK    5  A    between atoms: O1_5  and  C5_6 
REMARK    6  A    between atoms: C11_14  and  C12_15 
REMARK    7  A    between atoms: C16_20  and  O2_21 
ROOT
HETATM    1  C5  UNL     1      20.458 -14.103  23.094  1.00  0.00     0.072 A 
HETATM    2  C6  UNL     1      20.757 -13.323  22.002  1.00  0.00     0.039 A 
HETATM    3  C7  UNL     1      19.819 -12.790  21.142  1.00  0.00     0.035 A 
HETATM    4  C8  UNL     1      18.498 -13.060  21.403  1.00  0.00     0.062 A 
HETATM    5  C9  UNL     1      18.137 -13.829  22.473  1.00  0.00     0.063 A 
HETATM    6  C10 UNL     1      19.098 -14.355  23.322  1.00  0.00     0.068 A 
HETATM    7  N1  UNL     1      16.794 -13.912  22.461  1.00  0.00    -0.340 N 
ATOM      8  H1  UNL     1      16.239 -14.426  23.146  1.00  0.00     0.167 HD
HETATM    9  C11 UNL     1      16.275 -13.215  21.409  1.00  0.00     0.118 A 
HETATM   10  N2  UNL     1      17.319 -12.704  20.775  1.00  0.00    -0.335 N 
HETATM   11  C19 UNL     1      17.298 -11.902  19.581  1.00  0.00     0.158 C 
ENDROOT
BRANCH   9  12
HETATM   12  C12 UNL     1      14.844 -13.165  21.153  1.00  0.00     0.012 A 
HETATM   13  C13 UNL     1      14.131 -14.142  20.512  1.00  0.00     0.034 A 
HETATM   14  C14 UNL     1      12.744 -14.016  20.347  1.00  0.00     0.014 A 
HETATM   15 BR1  UNL     1      11.857 -15.437  19.440  1.00  0.00    -0.051 Br
HETATM   16  C15 UNL     1      12.086 -12.920  20.822  1.00  0.00     0.055 A 
HETATM   17  C16 UNL     1      12.760 -11.910  21.474  1.00  0.00     0.070 A 
HETATM   18  C18 UNL     1      14.108 -12.053  21.623  1.00  0.00     0.052 A 
BRANCH  17  19
HETATM   19  O2  UNL     1      12.102 -10.813  21.949  1.00  0.00    -0.356 OA
HETATM   20  C17 UNL     1      12.792  -9.668  22.431  1.00  0.00     0.210 C 
ENDBRANCH  17  19
ENDBRANCH   9  12
BRANCH   1  21
HETATM   21  O1  UNL     1      21.400 -14.637  23.954  1.00  0.00    -0.337 OA
BRANCH  21  22
HETATM   22  C4  UNL     1      22.224 -13.978  24.843  1.00  0.00     0.221 C 
BRANCH  22  23
HETATM   23  C3  UNL     1      21.612 -12.645  25.278  1.00  0.00     0.068 C 
BRANCH  23  24
HETATM   24  C2  UNL     1      21.031 -12.789  26.634  1.00  0.00    -0.034 C 
HETATM   25  C1  UNL     1      20.266 -13.820  26.910  1.00  0.00     0.007 C 
ENDBRANCH  23  24
ENDBRANCH  22  23
BRANCH  22  26
HETATM   26  C20 UNL     1      23.603 -13.766  24.320  1.00  0.00     0.261 C 
HETATM   27  N3  UNL     1      24.193 -14.726  23.467  1.00  0.00    -0.060 NA
HETATM   28  O3  UNL     1      24.257 -12.738  24.626  1.00  0.00    -0.274 OA
ENDBRANCH  22  26
ENDBRANCH  21  22
ENDBRANCH   1  21
TORSDOF 7
ENDMDL
MODEL 3
REMARK VINA RESULT: -8.240992673      1.676      2.256
REMARK  7 active torsions:
REMARK  status: ('A' for Active; 'I' for Inactive)
REMARK    1  A    between atoms: C2_2  and  C3_3 
REMARK    2  A    between atoms: C3_3  and  C4_4 
REMARK    3  A    between atoms: C4_4  and  O1_5 
REMARK    4  A    between atoms: C4_4  and  C20_26 
REMARK    5  A    between atoms: O1_5  and  C5_6 
REMARK    6  A    between atoms: C11_14  and  C12_15 
REMARK    7  A    between atoms: C16_20  and  O2_21 
ROOT
HETATM    1  C5  UNL     1      20.449 -13.126  21.970  1.00  0.00     0.072 A 
HETATM    2  C6  UNL     1      20.498 -12.524  20.734  1.00  0.00     0.039 A 
HETATM    3  C7  UNL     1      19.394 -12.252  19.953  1.00  0.00     0.035 A 
HETATM    4  C8  UNL     1      18.166 -12.609  20.451  1.00  0.00     0.062 A 
HETATM    5  C9  UNL     1      18.050 -13.210  21.672  1.00  0.00     0.063 A 
HETATM    6  C10 UNL     1      19.175 -13.474  22.439  1.00  0.00     0.068 A 
HETATM    7  N1  UNL     1      16.740 -13.434  21.878  1.00  0.00    -0.340 N 
ATOM      8  H1  UNL     1      16.351 -13.874  22.712  1.00  0.00     0.167 HD
HETATM    9  C11 UNL     1      16.002 -12.992  20.819  1.00  0.00     0.118 A 
HETATM   10  N2  UNL     1      16.878 -12.495  19.960  1.00  0.00    -0.335 N 
HETATM   11  C19 UNL     1      16.596 -11.923  18.671  1.00  0.00     0.158 C 
ENDROOT
BRANCH   9  12
HETATM   12  C12 UNL     1      14.555 -13.139  20.779  1.00  0.00     0.012 A 
HETATM   13  C13 UNL     1      13.890 -14.145  20.132  1.00  0.00     0.034 A 
HETATM   14  C14 UNL     1      12.490 -14.219  20.184  1.00  0.00     0.014 A 
HETATM   15 BR1  UNL     1      11.673 -15.662  19.248  1.00  0.00    -0.051 Br
HETATM   16  C15 UNL     1      11.772 -13.290  20.879  1.00  0.00     0.055 A 
HETATM   17  C16 UNL     1      12.396 -12.258  21.545  1.00  0.00     0.070 A 
HETATM   18  C18 UNL     1      13.757 -12.206  21.482  1.00  0.00     0.052 A 
BRANCH  17  19
HETATM   19  O2  UNL     1      11.678 -11.328  22.240  1.00  0.00    -0.356 OA
HETATM   20  C17 UNL     1      12.216 -10.057  22.579  1.00  0.00     0.210 C 
ENDBRANCH  17  19
ENDBRANCH   9  12
BRANCH   1  21
HETATM   21  O1  UNL     1      21.557 -13.397  22.751  1.00  0.00    -0.337 OA
BRANCH  21  22
HETATM   22  C4  UNL     1      21.604 -13.938  24.019  1.00  0.00     0.221 C 
BRANCH  22  23
HETATM   23  C3  UNL     1      22.116 -12.916  25.036  1.00  0.00     0.068 C 
BRANCH  23  24
HETATM   24  C2  UNL     1      21.001 -12.497  25.917  1.00  0.00    -0.034 C 
HETATM   25  C1  UNL     1      20.714 -13.204  26.987  1.00  0.00     0.007 C 
ENDBRANCH  23  24
ENDBRANCH  22  23
BRANCH  22  26
HETATM   26  C20 UNL     1      22.409 -15.189  24.095  1.00  0.00     0.261 C 
HETATM   27  N3  UNL     1      22.067 -16.302  23.294  1.00  0.00    -0.060 NA
HETATM   28  O3  UNL     1      23.397 -15.273  24.865  1.00  0.00    -0.274 OA
ENDBRANCH  22  26
ENDBRANCH  21  22
ENDBRANCH   1  21
TORSDOF 7
ENDMDL
MODEL 4
REMARK VINA RESULT: -8.240701109      1.165      1.250
REMARK  7 active torsions:
REMARK  status: ('A' for Active; 'I' for Inactive)
REMARK    1  A    between atoms: C2_2  and  C3_3 
REMARK    2  A    between atoms: C3_3  and  C4_4 
REMARK    3  A    between atoms: C4_4  and  O1_5 
REMARK    4  A    between atoms: C4_4  and  C20_26 
REMARK    5  A    between atoms: O1_5  and  C5_6 
REMARK    6  A    between atoms: C11_14  and  C12_15 
REMARK    7  A    between atoms: C16_20  and  O2_21 
ROOT
HETATM    1  C5  UNL     1      20.440 -14.079  23.071  1.00  0.00     0.072 A 
HETATM    2  C6  UNL     1      20.740 -13.401  21.913  1.00  0.00     0.039 A 
HETATM    3  C7  UNL     1      19.803 -12.851  21.064  1.00  0.00     0.035 A 
HETATM    4  C8  UNL     1      18.481 -12.994  21.406  1.00  0.00     0.062 A 
HETATM    5  C9  UNL     1      18.117 -13.656  22.543  1.00  0.00     0.063 A 
HETATM    6  C10 UNL     1      19.078 -14.201  23.381  1.00  0.00     0.068 A 
HETATM    7  N1  UNL     1      16.773 -13.629  22.601  1.00  0.00    -0.340 N 
ATOM      8  H1  UNL     1      16.217 -14.049  23.346  1.00  0.00     0.167 HD
HETATM    9  C11 UNL     1      16.256 -12.964  21.528  1.00  0.00     0.118 A 
HETATM   10  N2  UNL     1      17.302 -12.584  20.810  1.00  0.00    -0.335 N 
HETATM   11  C19 UNL     1      17.281 -11.865  19.565  1.00  0.00     0.158 C 
ENDROOT
BRANCH   9  12
HETATM   12  C12 UNL     1      14.822 -12.815  21.337  1.00  0.00     0.012 A 
HETATM   13  C13 UNL     1      14.075 -11.772  21.815  1.00  0.00     0.034 A 
HETATM   14  C14 UNL     1      12.701 -11.701  21.545  1.00  0.00     0.014 A 
HETATM   15 BR1  UNL     1      11.764 -10.205  22.261  1.00  0.00    -0.051 Br
HETATM   16  C15 UNL     1      12.088 -12.668  20.804  1.00  0.00     0.055 A 
HETATM   17  C16 UNL     1      12.798 -13.738  20.301  1.00  0.00     0.070 A 
HETATM   18  C18 UNL     1      14.132 -13.787  20.575  1.00  0.00     0.052 A 
BRANCH  17  19
HETATM   19  O2  UNL     1      12.186 -14.706  19.559  1.00  0.00    -0.356 OA
HETATM   20  C17 UNL     1      12.848 -15.908  19.192  1.00  0.00     0.210 C 
ENDBRANCH  17  19
ENDBRANCH   9  12
BRANCH   1  21
HETATM   21  O1  UNL     1      21.381 -14.629  23.921  1.00  0.00    -0.337 OA
BRANCH  21  22
HETATM   22  C4  UNL     1      22.207 -13.987  24.821  1.00  0.00     0.221 C 
BRANCH  22  23
HETATM   23  C3  UNL     1      21.611 -12.647  25.257  1.00  0.00     0.068 C 
BRANCH  23  24
HETATM   24  C2  UNL     1      21.051 -12.778  26.623  1.00  0.00    -0.034 C 
HETATM   25  C1  UNL     1      20.281 -13.801  26.917  1.00  0.00     0.007 C 
ENDBRANCH  23  24
ENDBRANCH  22  23
BRANCH  22  26
HETATM   26  C20 UNL     1      23.593 -13.794  24.312  1.00  0.00     0.261 C 
HETATM   27  N3  UNL     1      24.184 -14.768  23.476  1.00  0.00    -0.060 NA
HETATM   28  O3  UNL     1      24.254 -12.769  24.615  1.00  0.00    -0.274 OA
ENDBRANCH  22  26
ENDBRANCH  21  22
ENDBRANCH   1  21
TORSDOF 7
ENDMDL
MODEL 5
REMARK VINA RESULT: -7.737705945      1.774      2.360
REMARK  7 active torsions:
REMARK  status: ('A' for Active; 'I' for Inactive)
REMARK    1  A    between atoms: C2_2  and  C3_3 
REMARK    2  A    between atoms: C3_3  and  C4_4 
REMARK    3  A    between atoms: C4_4  and  O1_5 
REMARK    4  A    between atoms: C4_4  and  C20_26 
REMARK    5  A    between atoms: O1_5  and  C5_6 
REMARK    6  A    between atoms: C11_14  and  C12_15 
REMARK    7  A    between atoms: C16_20  and  O2_21 
ROOT
HETATM    1  C5  UNL     1      20.410 -13.488  22.958  1.00  0.00     0.072 A 
HETATM    2  C6  UNL     1      20.664 -13.026  21.688  1.00  0.00     0.039 A 
HETATM    3  C7  UNL     1      19.693 -12.751  20.748  1.00  0.00     0.035 A 
HETATM    4  C8  UNL     1      18.385 -12.956  21.113  1.00  0.00     0.062 A 
HETATM    5  C9  UNL     1      18.068 -13.414  22.360  1.00  0.00     0.063 A 
HETATM    6  C10 UNL     1      19.062 -13.684  23.288  1.00  0.00     0.068 A 
HETATM    7  N1  UNL     1      16.727 -13.511  22.413  1.00  0.00    -0.340 N 
ATOM      8  H1  UNL     1      16.200 -13.829  23.227  1.00  0.00     0.167 HD
HETATM    9  C11 UNL     1      16.167 -13.127  21.229  1.00  0.00     0.118 A 
HETATM   10  N2  UNL     1      17.183 -12.793  20.449  1.00  0.00    -0.335 N 
HETATM   11  C19 UNL     1      17.114 -12.340  19.086  1.00  0.00     0.158 C 
ENDROOT
BRANCH   9  12
HETATM   12  C12 UNL     1      14.728 -13.162  21.015  1.00  0.00     0.012 A 
HETATM   13  C13 UNL     1      14.059 -14.172  20.379  1.00  0.00     0.034 A 
HETATM   14  C14 UNL     1      12.662 -14.131  20.256  1.00  0.00     0.014 A 
HETATM   15 BR1  UNL     1      11.838 -15.592  19.353  1.00  0.00    -0.051 Br
HETATM   16  C15 UNL     1      11.951 -13.083  20.765  1.00  0.00     0.055 A 
HETATM   17  C16 UNL     1      12.581 -12.042  21.413  1.00  0.00     0.070 A 
HETATM   18  C18 UNL     1      13.939 -12.104  21.522  1.00  0.00     0.052 A 
BRANCH  17  19
HETATM   19  O2  UNL     1      11.871 -10.995  21.923  1.00  0.00    -0.356 OA
HETATM   20  C17 UNL     1      12.502  -9.900  22.574  1.00  0.00     0.210 C 
ENDBRANCH  17  19
ENDBRANCH   9  12
BRANCH   1  21
HETATM   21  O1  UNL     1      21.385 -13.762  23.899  1.00  0.00    -0.337 OA
BRANCH  21  22
HETATM   22  C4  UNL     1      21.716 -14.975  24.466  1.00  0.00     0.221 C 
BRANCH  22  23
HETATM   23  C3  UNL     1      21.373 -14.999  25.957  1.00  0.00     0.068 C 
BRANCH  23  24
HETATM   24  C2  UNL     1      21.782 -13.717  26.577  1.00  0.00    -0.034 C 
HETATM   25  C1  UNL     1      20.873 -12.928  27.104  1.00  0.00     0.007 C 
ENDBRANCH  23  24
ENDBRANCH  22  23
BRANCH  22  26
HETATM   26  C20 UNL     1      23.143 -15.351  24.259  1.00  0.00     0.261 C 
HETATM   27  N3  UNL     1      24.022 -14.462  23.600  1.00  0.00    -0.060 NA
HETATM   28  O3  UNL     1      23.584 -16.454  24.666  1.00  0.00    -0.274 OA
ENDBRANCH  22  26
ENDBRANCH  21  22
ENDBRANCH   1  21
TORSDOF 7
ENDMDL
