MODEL 1
REMARK VINA RESULT: -7.368013637      0.000      0.000
REMARK  9 active torsions:
REMARK  status: ('A' for Active; 'I' for Inactive)
REMARK    1  A    between atoms: O1_2  and  C2_3 
REMARK    2  A    between atoms: C2_3  and  C3_4 
REMARK    3  A    between atoms: C3_4  and  N1_5 
REMARK    4  A    between atoms: N1_5  and  C4_7 
REMARK    5  A    between atoms: C4_7  and  N2_9 
REMARK    6  A    between atoms: N2_9  and  C5_10 
REMARK    7  A    between atoms: N2_9  and  C11_19 
REMARK    8  A    between atoms: C5_10  and  C6_11 
REMARK    9  A    between atoms: C11_19  and  C12_20 
ROOT
HETATM    1  N2  UNL     1      16.981 -13.520  20.754  1.00  0.00    -0.347 N 
ENDROOT
BRANCH   1   2
HETATM    2  C4  UNL     1      15.766 -14.146  21.114  1.00  0.00     0.170 C 
HETATM    3  S1  UNL     1      15.502 -15.686  20.565  1.00  0.00    -0.041 SA
BRANCH   2   4
HETATM    4  N1  UNL     1      14.753 -13.516  21.876  1.00  0.00    -0.365 N 
ATOM      5  H1  UNL     1      15.001 -13.137  22.790  1.00  0.00     0.161 HD
BRANCH   4   6
HETATM    6  C3  UNL     1      13.391 -13.381  21.428  1.00  0.00     0.148 C 
BRANCH   6   7
HETATM    7  C2  UNL     1      12.894 -11.999  21.699  1.00  0.00     0.186 C 
BRANCH   7   8
HETATM    8  O1  UNL     1      13.922 -11.086  21.849  1.00  0.00    -0.394 OA
HETATM    9  C1  UNL     1      13.543  -9.776  21.670  1.00  0.00     0.201 C 
ENDBRANCH   7   8
ENDBRANCH   6   7
ENDBRANCH   4   6
ENDBRANCH   2   4
ENDBRANCH   1   2
BRANCH   1  10
HETATM   10  C5  UNL     1      16.946 -12.102  20.406  1.00  0.00     0.182 C 
BRANCH  10  11
HETATM   11  C6  UNL     1      16.348 -11.842  19.083  1.00  0.00     0.027 A 
HETATM   12  C7  UNL     1      17.241 -11.918  18.012  1.00  0.00     0.028 A 
HETATM   13  C8  UNL     1      16.834 -11.706  16.716  1.00  0.00     0.022 A 
HETATM   14  C9  UNL     1      15.504 -11.415  16.501  1.00  0.00     0.026 A 
HETATM   15 BR1  UNL     1      14.917 -11.119  14.714  1.00  0.00    -0.050 Br
HETATM   16  C10 UNL     1      14.661 -11.352  17.583  1.00  0.00     0.107 A 
HETATM   17  N3  UNL     1      15.072 -11.561  18.846  1.00  0.00    -0.366 N 
ATOM     18  H3  UNL     1      14.408 -11.503  19.618  1.00  0.00     0.165 HD
ENDBRANCH  10  11
ENDBRANCH   1  10
BRANCH   1  19
HETATM   19  C11 UNL     1      18.286 -14.123  20.740  1.00  0.00     0.182 C 
BRANCH  19  20
HETATM   20  C12 UNL     1      19.071 -13.897  21.982  1.00  0.00     0.028 A 
HETATM   21  C13 UNL     1      18.703 -13.764  23.296  1.00  0.00     0.040 A 
HETATM   22  C14 UNL     1      19.795 -13.570  24.118  1.00  0.00    -0.008 A 
HETATM   23  C15 UNL     1      19.995 -13.386  25.472  1.00  0.00     0.014 A 
HETATM   24  C19 UNL     1      20.879 -13.586  23.256  1.00  0.00     0.042 A 
HETATM   25  C16 UNL     1      21.245 -13.212  26.029  1.00  0.00     0.001 A 
HETATM   26  C17 UNL     1      22.319 -13.230  25.158  1.00  0.00     0.002 A 
HETATM   27  C18 UNL     1      22.138 -13.414  23.804  1.00  0.00     0.030 A 
HETATM   28  N4  UNL     1      20.437 -13.779  22.006  1.00  0.00    -0.357 N 
ATOM     29  H4  UNL     1      21.036 -13.831  21.183  1.00  0.00     0.166 HD
ENDBRANCH  19  20
ENDBRANCH   1  19
TORSDOF 9
ENDMDL
MODEL 2
REMARK VINA RESULT: -7.184260187      0.867      1.286
REMARK  9 active torsions:
REMARK  status: ('A' for Active; 'I' for Inactive)
REMARK    1  A    between atoms: O1_2  and  C2_3 
REMARK    2  A    between atoms: C2_3  and  C3_4 
REMARK    3  A    between atoms: C3_4  and  N1_5 
REMARK    4  A    between atoms: N1_5  and  C4_7 
REMARK    5  A    between atoms: C4_7  and  N2_9 
REMARK    6  A    between atoms: N2_9  and  C5_10 
REMARK    7  A    between atoms: N2_9  and  C11_19 
REMARK    8  A    between atoms: C5_10  and  C6_11 
REMARK    9  A    between atoms: C11_19  and  C12_20 
ROOT
HETATM    1  N2  UNL     1      16.774 -13.487  20.842  1.00  0.00    -0.347 N 
ENDROOT
BRANCH   1   2
HETATM    2  C4  UNL     1      15.521 -14.093  21.094  1.00  0.00     0.170 C 
HETATM    3  S1  UNL     1      15.220 -15.560  20.387  1.00  0.00    -0.041 SA
BRANCH   2   4
HETATM    4  N1  UNL     1      14.503 -13.495  21.875  1.00  0.00    -0.365 N 
ATOM      5  H1  UNL     1      14.734 -13.196  22.822  1.00  0.00     0.161 HD
BRANCH   4   6
HETATM    6  C3  UNL     1      13.158 -13.289  21.404  1.00  0.00     0.148 C 
BRANCH   6   7
HETATM    7  C2  UNL     1      12.729 -11.884  21.670  1.00  0.00     0.186 C 
BRANCH   7   8
HETATM    8  O1  UNL     1      13.799 -11.033  21.882  1.00  0.00    -0.394 OA
HETATM    9  C1  UNL     1      13.508  -9.703  21.696  1.00  0.00     0.201 C 
ENDBRANCH   7   8
ENDBRANCH   6   7
ENDBRANCH   4   6
ENDBRANCH   2   4
ENDBRANCH   1   2
BRANCH   1  10
HETATM   10  C5  UNL     1      16.790 -12.076  20.464  1.00  0.00     0.182 C 
BRANCH  10  11
HETATM   11  C6  UNL     1      16.234 -11.827  19.122  1.00  0.00     0.027 A 
HETATM   12  C7  UNL     1      17.160 -11.908  18.079  1.00  0.00     0.028 A 
HETATM   13  C8  UNL     1      16.793 -11.706  16.770  1.00  0.00     0.022 A 
HETATM   14  C9  UNL     1      15.469 -11.418  16.512  1.00  0.00     0.026 A 
HETATM   15 BR1  UNL     1      14.939 -11.135  14.706  1.00  0.00    -0.050 Br
HETATM   16  C10 UNL     1      14.594 -11.349  17.567  1.00  0.00     0.107 A 
HETATM   17  N3  UNL     1      14.966 -11.548  18.844  1.00  0.00    -0.366 N 
ATOM     18  H3  UNL     1      14.277 -11.486  19.594  1.00  0.00     0.165 HD
ENDBRANCH  10  11
ENDBRANCH   1  10
BRANCH   1  19
HETATM   19  C11 UNL     1      18.066 -14.105  20.968  1.00  0.00     0.182 C 
BRANCH  19  20
HETATM   20  C12 UNL     1      18.664 -13.987  22.323  1.00  0.00     0.028 A 
HETATM   21  C13 UNL     1      19.630 -13.160  22.837  1.00  0.00     0.040 A 
HETATM   22  C14 UNL     1      19.863 -13.412  24.174  1.00  0.00    -0.008 A 
HETATM   23  C15 UNL     1      20.695 -12.897  25.148  1.00  0.00     0.014 A 
HETATM   24  C19 UNL     1      18.994 -14.445  24.483  1.00  0.00     0.042 A 
HETATM   25  C16 UNL     1      20.709 -13.364  26.446  1.00  0.00     0.001 A 
HETATM   26  C17 UNL     1      19.837 -14.395  26.743  1.00  0.00     0.002 A 
HETATM   27  C18 UNL     1      18.999 -14.921  25.783  1.00  0.00     0.030 A 
HETATM   28  N4  UNL     1      18.298 -14.770  23.386  1.00  0.00    -0.357 N 
ATOM     29  H4  UNL     1      17.589 -15.503  23.347  1.00  0.00     0.166 HD
ENDBRANCH  19  20
ENDBRANCH   1  19
TORSDOF 9
ENDMDL
MODEL 3
REMARK VINA RESULT: -7.171161532      1.544      2.252
REMARK  9 active torsions:
REMARK  status: ('A' for Active; 'I' for Inactive)
REMARK    1  A    between atoms: O1_2  and  C2_3 
REMARK    2  A    between atoms: C2_3  and  C3_4 
REMARK    3  A    between atoms: C3_4  and  N1_5 
REMARK    4  A    between atoms: N1_5  and  C4_7 
REMARK    5  A    between atoms: C4_7  and  N2_9 
REMARK    6  A    between atoms: N2_9  and  C5_10 
REMARK    7  A    between atoms: N2_9  and  C11_19 
REMARK    8  A    between atoms: C5_10  and  C6_11 
REMARK    9  A    between atoms: C11_19  and  C12_20 
ROOT
HETATM    1  N2  UNL     1      14.761 -13.522  20.743  1.00  0.00    -0.347 N 
ENDROOT
BRANCH   1   2
HETATM    2  C4  UNL     1      13.385 -13.660  21.036  1.00  0.00     0.170 C 
HETATM    3  S1  UNL     1      12.427 -14.394  19.902  1.00  0.00    -0.041 SA
BRANCH   2   4
HETATM    4  N1  UNL     1      12.781 -13.168  22.218  1.00  0.00    -0.365 N 
ATOM      5  H1  UNL     1      13.157 -13.472  23.115  1.00  0.00     0.161 HD
BRANCH   4   6
HETATM    6  C3  UNL     1      11.662 -12.261  22.219  1.00  0.00     0.148 C 
BRANCH   6   7
HETATM    7  C2  UNL     1      12.138 -10.856  22.047  1.00  0.00     0.186 C 
BRANCH   7   8
HETATM    8  O1  UNL     1      12.429 -10.244  23.253  1.00  0.00    -0.394 OA
HETATM    9  C1  UNL     1      11.361 -10.157  24.114  1.00  0.00     0.201 C 
ENDBRANCH   7   8
ENDBRANCH   6   7
ENDBRANCH   4   6
ENDBRANCH   2   4
ENDBRANCH   1   2
BRANCH   1  10
HETATM   10  C5  UNL     1      15.283 -12.177  20.516  1.00  0.00     0.182 C 
BRANCH  10  11
HETATM   11  C6  UNL     1      15.440 -11.848  19.088  1.00  0.00     0.027 A 
HETATM   12  C7  UNL     1      16.755 -11.884  18.618  1.00  0.00     0.028 A 
HETATM   13  C8  UNL     1      17.063 -11.607  17.307  1.00  0.00     0.022 A 
HETATM   14  C9  UNL     1      16.024 -11.288  16.459  1.00  0.00     0.026 A 
HETATM   15 BR1  UNL     1      16.426 -10.900  14.639  1.00  0.00    -0.050 Br
HETATM   16  C10 UNL     1      14.747 -11.265  16.962  1.00  0.00     0.107 A 
HETATM   17  N3  UNL     1      14.459 -11.538  18.247  1.00  0.00    -0.366 N 
ATOM     18  H3  UNL     1      13.494 -11.508  18.574  1.00  0.00     0.165 HD
ENDBRANCH  10  11
ENDBRANCH   1  10
BRANCH   1  19
HETATM   19  C11 UNL     1      15.737 -14.577  20.692  1.00  0.00     0.182 C 
BRANCH  19  20
HETATM   20  C12 UNL     1      16.922 -14.348  21.560  1.00  0.00     0.028 A 
HETATM   21  C13 UNL     1      18.226 -14.031  21.278  1.00  0.00     0.040 A 
HETATM   22  C14 UNL     1      18.984 -13.909  22.425  1.00  0.00    -0.008 A 
HETATM   23  C15 UNL     1      20.302 -13.615  22.714  1.00  0.00     0.014 A 
HETATM   24  C19 UNL     1      18.092 -14.167  23.453  1.00  0.00     0.042 A 
HETATM   25  C16 UNL     1      20.793 -13.562  24.002  1.00  0.00     0.001 A 
HETATM   26  C17 UNL     1      19.894 -13.821  25.020  1.00  0.00     0.002 A 
HETATM   27  C18 UNL     1      18.574 -14.116  24.749  1.00  0.00     0.030 A 
HETATM   28  N4  UNL     1      16.886 -14.423  22.928  1.00  0.00    -0.357 N 
ATOM     29  H4  UNL     1      16.054 -14.643  23.474  1.00  0.00     0.166 HD
ENDBRANCH  19  20
ENDBRANCH   1  19
TORSDOF 9
ENDMDL
MODEL 4
REMARK VINA RESULT: -7.105648225      0.998      1.327
REMARK  9 active torsions:
REMARK  status: ('A' for Active; 'I' for Inactive)
REMARK    1  A    between atoms: O1_2  and  C2_3 
REMARK    2  A    between atoms: C2_3  and  C3_4 
REMARK    3  A    between atoms: C3_4  and  N1_5 
REMARK    4  A    between atoms: N1_5  and  C4_7 
REMARK    5  A    between atoms: C4_7  and  N2_9 
REMARK    6  A    between atoms: N2_9  and  C5_10 
REMARK    7  A    between atoms: N2_9  and  C11_19 
REMARK    8  A    between atoms: C5_10  and  C6_11 
REMARK    9  A    between atoms: C11_19  and  C12_20 
ROOT
HETATM    1  N2  UNL     1      16.967 -13.346  20.786  1.00  0.00    -0.347 N 
ENDROOT
BRANCH   1   2
HETATM    2  C4  UNL     1      15.764 -13.925  21.250  1.00  0.00     0.170 C 
HETATM    3  S1  UNL     1      15.578 -15.561  21.072  1.00  0.00    -0.041 SA
BRANCH   2   4
HETATM    4  N1  UNL     1      14.700 -13.180  21.814  1.00  0.00    -0.365 N 
ATOM      5  H1  UNL     1      14.920 -12.296  22.272  1.00  0.00     0.161 HD
BRANCH   4   6
HETATM    6  C3  UNL     1      13.325 -13.605  21.775  1.00  0.00     0.148 C 
BRANCH   6   7
HETATM    7  C2  UNL     1      12.561 -12.788  20.786  1.00  0.00     0.186 C 
BRANCH   7   8
HETATM    8  O1  UNL     1      12.507 -13.380  19.537  1.00  0.00    -0.394 OA
HETATM    9  C1  UNL     1      12.204 -14.720  19.561  1.00  0.00     0.201 C 
ENDBRANCH   7   8
ENDBRANCH   6   7
ENDBRANCH   4   6
ENDBRANCH   2   4
ENDBRANCH   1   2
BRANCH   1  10
HETATM   10  C5  UNL     1      16.934 -11.953  20.349  1.00  0.00     0.182 C 
BRANCH  10  11
HETATM   11  C6  UNL     1      16.349 -11.777  19.007  1.00  0.00     0.027 A 
HETATM   12  C7  UNL     1      17.266 -11.837  17.955  1.00  0.00     0.028 A 
HETATM   13  C8  UNL     1      16.872 -11.697  16.645  1.00  0.00     0.022 A 
HETATM   14  C9  UNL     1      15.532 -11.494  16.396  1.00  0.00     0.026 A 
HETATM   15 BR1  UNL     1      14.965 -11.299  14.589  1.00  0.00    -0.050 Br
HETATM   16  C10 UNL     1      14.665 -11.444  17.460  1.00  0.00     0.107 A 
HETATM   17  N3  UNL     1      15.063 -11.582  18.737  1.00  0.00    -0.366 N 
ATOM     18  H3  UNL     1      14.381 -11.536  19.494  1.00  0.00     0.165 HD
ENDBRANCH  10  11
ENDBRANCH   1  10
BRANCH   1  19
HETATM   19  C11 UNL     1      18.260 -13.973  20.741  1.00  0.00     0.182 C 
BRANCH  19  20
HETATM   20  C12 UNL     1      19.065 -13.791  21.977  1.00  0.00     0.028 A 
HETATM   21  C13 UNL     1      18.714 -13.658  23.296  1.00  0.00     0.040 A 
HETATM   22  C14 UNL     1      19.820 -13.515  24.109  1.00  0.00    -0.008 A 
HETATM   23  C15 UNL     1      20.040 -13.353  25.463  1.00  0.00     0.014 A 
HETATM   24  C19 UNL     1      20.894 -13.564  23.236  1.00  0.00     0.042 A 
HETATM   25  C16 UNL     1      21.301 -13.234  26.009  1.00  0.00     0.001 A 
HETATM   26  C17 UNL     1      22.365 -13.284  25.128  1.00  0.00     0.002 A 
HETATM   27  C18 UNL     1      22.164 -13.446  23.773  1.00  0.00     0.030 A 
HETATM   28  N4  UNL     1      20.434 -13.726  21.989  1.00  0.00    -0.357 N 
ATOM     29  H4  UNL     1      21.023 -13.793  21.159  1.00  0.00     0.166 HD
ENDBRANCH  19  20
ENDBRANCH   1  19
TORSDOF 9
ENDMDL
MODEL 5
REMARK VINA RESULT: -6.991773678      2.915      6.727
REMARK  9 active torsions:
REMARK  status: ('A' for Active; 'I' for Inactive)
REMARK    1  A    between atoms: O1_2  and  C2_3 
REMARK    2  A    between atoms: C2_3  and  C3_4 
REMARK    3  A    between atoms: C3_4  and  N1_5 
REMARK    4  A    between atoms: N1_5  and  C4_7 
REMARK    5  A    between atoms: C4_7  and  N2_9 
REMARK    6  A    between atoms: N2_9  and  C5_10 
REMARK    7  A    between atoms: N2_9  and  C11_19 
REMARK    8  A    between atoms: C5_10  and  C6_11 
REMARK    9  A    between atoms: C11_19  and  C12_20 
ROOT
HETATM    1  N2  UNL     1      14.788 -13.406  20.901  1.00  0.00    -0.347 N 
ENDROOT
BRANCH   1   2
HETATM    2  C4  UNL     1      13.412 -13.636  21.125  1.00  0.00     0.170 C 
HETATM    3  S1  UNL     1      12.562 -14.434  19.948  1.00  0.00    -0.041 SA
BRANCH   2   4
HETATM    4  N1  UNL     1      12.718 -13.184  22.273  1.00  0.00    -0.365 N 
ATOM      5  H1  UNL     1      12.998 -13.551  23.183  1.00  0.00     0.161 HD
BRANCH   4   6
HETATM    6  C3  UNL     1      11.636 -12.235  22.225  1.00  0.00     0.148 C 
BRANCH   6   7
HETATM    7  C2  UNL     1      12.171 -10.854  22.035  1.00  0.00     0.186 C 
BRANCH   7   8
HETATM    8  O1  UNL     1      12.443 -10.220  23.235  1.00  0.00    -0.394 OA
HETATM    9  C1  UNL     1      11.351 -10.078  24.057  1.00  0.00     0.201 C 
ENDBRANCH   7   8
ENDBRANCH   6   7
ENDBRANCH   4   6
ENDBRANCH   2   4
ENDBRANCH   1   2
BRANCH   1  10
HETATM   10  C5  UNL     1      15.678 -14.564  20.849  1.00  0.00     0.182 C 
BRANCH  10  11
HETATM   11  C6  UNL     1      16.919 -14.379  21.622  1.00  0.00     0.027 A 
HETATM   12  C7  UNL     1      18.092 -14.401  20.862  1.00  0.00     0.028 A 
HETATM   13  C8  UNL     1      19.329 -14.237  21.439  1.00  0.00     0.022 A 
HETATM   14  C9  UNL     1      19.381 -14.047  22.803  1.00  0.00     0.026 A 
HETATM   15 BR1  UNL     1      21.084 -13.817  23.623  1.00  0.00    -0.050 Br
HETATM   16  C10 UNL     1      18.204 -14.031  23.510  1.00  0.00     0.107 A 
HETATM   17  N3  UNL     1      17.000 -14.194  22.934  1.00  0.00    -0.366 N 
ATOM     18  H3  UNL     1      16.153 -14.174  23.503  1.00  0.00     0.165 HD
ENDBRANCH  10  11
ENDBRANCH   1  10
BRANCH   1  19
HETATM   19  C11 UNL     1      15.419 -12.136  20.663  1.00  0.00     0.182 C 
BRANCH  19  20
HETATM   20  C12 UNL     1      15.690 -11.853  19.229  1.00  0.00     0.028 A 
HETATM   21  C13 UNL     1      16.850 -11.813  18.499  1.00  0.00     0.040 A 
HETATM   22  C14 UNL     1      16.611 -11.509  17.174  1.00  0.00    -0.008 A 
HETATM   23  C15 UNL     1      17.385 -11.346  16.041  1.00  0.00     0.014 A 
HETATM   24  C19 UNL     1      15.237 -11.357  17.100  1.00  0.00     0.042 A 
HETATM   25  C16 UNL     1      16.852 -11.033  14.808  1.00  0.00     0.001 A 
HETATM   26  C17 UNL     1      15.478 -10.884  14.747  1.00  0.00     0.002 A 
HETATM   27  C18 UNL     1      14.691 -11.043  15.868  1.00  0.00     0.030 A 
HETATM   28  N4  UNL     1      14.711 -11.562  18.315  1.00  0.00    -0.357 N 
ATOM     29  H4  UNL     1      13.716 -11.510  18.530  1.00  0.00     0.166 HD
ENDBRANCH  19  20
ENDBRANCH   1  19
TORSDOF 9
ENDMDL
