MODEL 1
REMARK VINA RESULT: -5.184673244      0.000      0.000
REMARK  5 active torsions:
REMARK  status: ('A' for Active; 'I' for Inactive)
REMARK    1  A    between atoms: N2_4  and  N3_6 
REMARK    2  A    between atoms: C1_8  and  N4_9 
REMARK    3  A    between atoms: N4_9  and  C2_11 
REMARK    4  A    between atoms: C2_11  and  C3_12 
REMARK    5  A    between atoms: C3_12  and  N5_13 
ROOT
HETATM    1  N3  UNL     1      30.809  14.966 -60.793  1.00  0.00    -0.283 N 
ATOM      2  H3  UNL     1      30.388  15.783 -61.233  1.00  0.00     0.189 HD
HETATM    3  C1  UNL     1      30.235  14.439 -59.778  1.00  0.00     0.194 C 
ENDROOT
BRANCH   3   4
HETATM    4  N4  UNL     1      29.022  14.983 -59.267  1.00  0.00    -0.384 N 
ATOM      5  H4  UNL     1      28.739  15.926 -59.531  1.00  0.00     0.160 HD
BRANCH   4   6
HETATM    6  C2  UNL     1      28.188  14.202 -58.372  1.00  0.00     0.136 C 
BRANCH   6   7
HETATM    7  C3  UNL     1      27.833  15.083 -57.215  1.00  0.00     0.129 C 
BRANCH   7   8
HETATM    8  N5  UNL     1      27.925  14.546 -55.925  1.00  0.00    -0.232 NA
HETATM    9  C4  UNL     1      27.016  13.557 -55.478  1.00  0.00     0.127 C 
HETATM   10  C5  UNL     1      27.089  14.321 -54.162  1.00  0.00     0.144 C 
HETATM   11  N6  UNL     1      27.902  15.358 -54.818  1.00  0.00    -0.164 NA
ENDBRANCH   7   8
ENDBRANCH   6   7
ENDBRANCH   4   6
ENDBRANCH   3   4
BRANCH   1  12
HETATM   12  N2  UNL     1      31.981  14.455 -61.304  1.00  0.00    -0.248 N 
HETATM   13  N1  UNL     1      32.686  13.662 -60.587  1.00  0.00    -0.331 N 
ATOM     14  H12 UNL     1      32.368  13.420 -59.648  1.00  0.00     0.178 HD
ATOM     15  H11 UNL     1      33.554  13.284 -60.965  1.00  0.00     0.178 HD
ATOM     16  H2  UNL     1      32.285  14.707 -62.244  1.00  0.00     0.207 HD
ENDBRANCH   1  12
TORSDOF 5
ENDMDL
MODEL 2
REMARK VINA RESULT: -4.890119480      1.462      1.962
REMARK  5 active torsions:
REMARK  status: ('A' for Active; 'I' for Inactive)
REMARK    1  A    between atoms: N2_4  and  N3_6 
REMARK    2  A    between atoms: C1_8  and  N4_9 
REMARK    3  A    between atoms: N4_9  and  C2_11 
REMARK    4  A    between atoms: C2_11  and  C3_12 
REMARK    5  A    between atoms: C3_12  and  N5_13 
ROOT
HETATM    1  N3  UNL     1      32.318  13.711 -60.576  1.00  0.00    -0.283 N 
ATOM      2  H3  UNL     1      32.997  13.329 -59.919  1.00  0.00     0.189 HD
HETATM    3  C1  UNL     1      31.073  13.670 -60.282  1.00  0.00     0.194 C 
ENDROOT
BRANCH   3   4
HETATM    4  N4  UNL     1      30.637  13.100 -59.052  1.00  0.00    -0.384 N 
ATOM      5  H4  UNL     1      31.324  12.762 -58.378  1.00  0.00     0.160 HD
BRANCH   4   6
HETATM    6  C2  UNL     1      29.221  12.997 -58.754  1.00  0.00     0.136 C 
BRANCH   6   7
HETATM    7  C3  UNL     1      28.698  14.392 -58.599  1.00  0.00     0.129 C 
BRANCH   7   8
HETATM    8  N5  UNL     1      27.867  14.666 -57.506  1.00  0.00    -0.232 NA
HETATM    9  C4  UNL     1      28.034  15.841 -56.735  1.00  0.00     0.127 C 
HETATM   10  C5  UNL     1      27.715  14.920 -55.564  1.00  0.00     0.144 C 
HETATM   11  N6  UNL     1      27.732  13.766 -56.477  1.00  0.00    -0.164 NA
ENDBRANCH   7   8
ENDBRANCH   6   7
ENDBRANCH   4   6
ENDBRANCH   3   4
BRANCH   1  12
HETATM   12  N2  UNL     1      32.762  14.258 -61.759  1.00  0.00    -0.248 N 
HETATM   13  N1  UNL     1      31.970  14.305 -62.765  1.00  0.00    -0.331 N 
ATOM     14  H12 UNL     1      31.023  13.937 -62.674  1.00  0.00     0.178 HD
ATOM     15  H11 UNL     1      32.299  14.711 -63.641  1.00  0.00     0.178 HD
ATOM     16  H2  UNL     1      33.712  14.623 -61.833  1.00  0.00     0.207 HD
ENDBRANCH   1  12
TORSDOF 5
ENDMDL
MODEL 3
REMARK VINA RESULT: -4.736440992      9.551     11.039
REMARK  5 active torsions:
REMARK  status: ('A' for Active; 'I' for Inactive)
REMARK    1  A    between atoms: N2_4  and  N3_6 
REMARK    2  A    between atoms: C1_8  and  N4_9 
REMARK    3  A    between atoms: N4_9  and  C2_11 
REMARK    4  A    between atoms: C2_11  and  C3_12 
REMARK    5  A    between atoms: C3_12  and  N5_13 
ROOT
HETATM    1  N3  UNL     1      23.325  16.161 -49.785  1.00  0.00    -0.283 N 
ATOM      2  H3  UNL     1      24.152  16.533 -50.251  1.00  0.00     0.189 HD
HETATM    3  C1  UNL     1      23.128  16.435 -48.551  1.00  0.00     0.194 C 
ENDROOT
BRANCH   3   4
HETATM    4  N4  UNL     1      24.047  17.252 -47.833  1.00  0.00    -0.384 N 
ATOM      5  H4  UNL     1      24.621  16.842 -47.097  1.00  0.00     0.160 HD
BRANCH   4   6
HETATM    6  C2  UNL     1      24.171  18.664 -48.145  1.00  0.00     0.136 C 
BRANCH   6   7
HETATM    7  C3  UNL     1      25.604  18.915 -48.503  1.00  0.00     0.129 C 
BRANCH   7   8
HETATM    8  N5  UNL     1      25.953  18.914 -49.859  1.00  0.00    -0.232 NA
HETATM    9  C4  UNL     1      26.296  20.114 -50.526  1.00  0.00     0.127 C 
HETATM   10  C5  UNL     1      25.514  19.500 -51.682  1.00  0.00     0.144 C 
HETATM   11  N6  UNL     1      25.108  18.389 -50.807  1.00  0.00    -0.164 NA
ENDBRANCH   7   8
ENDBRANCH   6   7
ENDBRANCH   4   6
ENDBRANCH   3   4
BRANCH   1  12
HETATM   12  N2  UNL     1      22.449  15.374 -50.498  1.00  0.00    -0.248 N 
HETATM   13  N1  UNL     1      22.739  15.041 -51.700  1.00  0.00    -0.331 N 
ATOM     14  H12 UNL     1      23.616  15.364 -52.110  1.00  0.00     0.178 HD
ATOM     15  H11 UNL     1      22.090  14.459 -52.228  1.00  0.00     0.178 HD
ATOM     16  H2  UNL     1      21.576  15.060 -50.073  1.00  0.00     0.207 HD
ENDBRANCH   1  12
TORSDOF 5
ENDMDL
MODEL 4
REMARK VINA RESULT: -4.709841641      1.655      1.868
REMARK  5 active torsions:
REMARK  status: ('A' for Active; 'I' for Inactive)
REMARK    1  A    between atoms: N2_4  and  N3_6 
REMARK    2  A    between atoms: C1_8  and  N4_9 
REMARK    3  A    between atoms: N4_9  and  C2_11 
REMARK    4  A    between atoms: C2_11  and  C3_12 
REMARK    5  A    between atoms: C3_12  and  N5_13 
ROOT
HETATM    1  N3  UNL     1      30.699  13.451 -59.456  1.00  0.00    -0.283 N 
ATOM      2  H3  UNL     1      30.405  12.944 -58.621  1.00  0.00     0.189 HD
HETATM    3  C1  UNL     1      30.081  14.522 -59.785  1.00  0.00     0.194 C 
ENDROOT
BRANCH   3   4
HETATM    4  N4  UNL     1      28.996  15.004 -58.998  1.00  0.00    -0.384 N 
ATOM      5  H4  UNL     1      28.720  15.984 -59.062  1.00  0.00     0.160 HD
BRANCH   4   6
HETATM    6  C2  UNL     1      28.283  14.109 -58.106  1.00  0.00     0.136 C 
BRANCH   6   7
HETATM    7  C3  UNL     1      27.544  14.961 -57.121  1.00  0.00     0.129 C 
BRANCH   7   8
HETATM    8  N5  UNL     1      28.275  15.905 -56.389  1.00  0.00    -0.232 NA
HETATM    9  C4  UNL     1      28.060  16.081 -55.001  1.00  0.00     0.127 C 
HETATM   10  C5  UNL     1      28.249  17.558 -55.327  1.00  0.00     0.144 C 
HETATM   11  N6  UNL     1      28.293  17.228 -56.761  1.00  0.00    -0.164 NA
ENDBRANCH   7   8
ENDBRANCH   6   7
ENDBRANCH   4   6
ENDBRANCH   3   4
BRANCH   1  12
HETATM   12  N2  UNL     1      31.751  12.968 -60.201  1.00  0.00    -0.248 N 
HETATM   13  N1  UNL     1      32.672  13.772 -60.583  1.00  0.00    -0.331 N 
ATOM     14  H12 UNL     1      32.611  14.758 -60.329  1.00  0.00     0.178 HD
ATOM     15  H11 UNL     1      33.451  13.414 -61.135  1.00  0.00     0.178 HD
ATOM     16  H2  UNL     1      31.797  11.979 -60.447  1.00  0.00     0.207 HD
ENDBRANCH   1  12
TORSDOF 5
ENDMDL
MODEL 5
REMARK VINA RESULT: -4.566282877      9.524     11.123
REMARK  5 active torsions:
REMARK  status: ('A' for Active; 'I' for Inactive)
REMARK    1  A    between atoms: N2_4  and  N3_6 
REMARK    2  A    between atoms: C1_8  and  N4_9 
REMARK    3  A    between atoms: N4_9  and  C2_11 
REMARK    4  A    between atoms: C2_11  and  C3_12 
REMARK    5  A    between atoms: C3_12  and  N5_13 
ROOT
HETATM    1  N3  UNL     1      24.276  16.236 -50.952  1.00  0.00    -0.283 N 
ATOM      2  H3  UNL     1      25.172  16.667 -51.177  1.00  0.00     0.189 HD
HETATM    3  C1  UNL     1      23.704  16.526 -49.845  1.00  0.00     0.194 C 
ENDROOT
BRANCH   3   4
HETATM    4  N4  UNL     1      24.306  17.442 -48.936  1.00  0.00    -0.384 N 
ATOM      5  H4  UNL     1      23.901  17.576 -48.010  1.00  0.00     0.160 HD
BRANCH   4   6
HETATM    6  C2  UNL     1      25.492  18.183 -49.320  1.00  0.00     0.136 C 
BRANCH   6   7
HETATM    7  C3  UNL     1      25.052  19.568 -49.682  1.00  0.00     0.129 C 
BRANCH   7   8
HETATM    8  N5  UNL     1      23.976  20.122 -48.977  1.00  0.00    -0.232 NA
HETATM    9  C4  UNL     1      23.547  21.448 -49.220  1.00  0.00     0.127 C 
HETATM   10  C5  UNL     1      23.356  21.488 -47.709  1.00  0.00     0.144 C 
HETATM   11  N6  UNL     1      23.976  20.158 -47.603  1.00  0.00    -0.164 NA
ENDBRANCH   7   8
ENDBRANCH   6   7
ENDBRANCH   4   6
ENDBRANCH   3   4
BRANCH   1  12
HETATM   12  N2  UNL     1      23.711  15.355 -51.846  1.00  0.00    -0.248 N 
HETATM   13  N1  UNL     1      22.499  14.976 -51.675  1.00  0.00    -0.331 N 
ATOM     14  H12 UNL     1      21.971  15.334 -50.879  1.00  0.00     0.178 HD
ATOM     15  H11 UNL     1      22.081  14.324 -52.337  1.00  0.00     0.178 HD
ATOM     16  H2  UNL     1      24.252  15.006 -52.638  1.00  0.00     0.207 HD
ENDBRANCH   1  12
TORSDOF 5
ENDMDL
