MODEL 1
REMARK VINA RESULT: -5.450910758      0.000      0.000
REMARK  5 active torsions:
REMARK  status: ('A' for Active; 'I' for Inactive)
REMARK    1  A    between atoms: C2_2  and  C3_3 
REMARK    2  A    between atoms: C3_3  and  N1_4 
REMARK    3  A    between atoms: C5_9  and  C6_10 
REMARK    4  A    between atoms: C6_10  and  N3_11 
REMARK    5  A    between atoms: N3_11  and  N4_13 
ROOT
HETATM    1  N1  UNL     1      28.118  15.397 -57.174  1.00  0.00    -0.375 N 
ATOM      2  H1  UNL     1      28.181  16.113 -56.451  1.00  0.00     0.161 HD
HETATM    3  C4  UNL     1      28.771  15.580 -58.254  1.00  0.00     0.098 A 
HETATM    4  N2  UNL     1      29.671  16.504 -58.948  1.00  0.00    -0.365 N 
ATOM      5  H2  UNL     1      30.204  17.373 -58.977  1.00  0.00     0.161 HD
HETATM    6  C5  UNL     1      29.228  15.224 -59.584  1.00  0.00     0.169 A 
ENDROOT
BRANCH   6   7
HETATM    7  C6  UNL     1      30.366  14.287 -59.807  1.00  0.00     0.173 C 
BRANCH   7   8
HETATM    8  N3  UNL     1      31.136  14.557 -61.002  1.00  0.00    -0.320 N 
ATOM      9  H3  UNL     1      30.744  15.080 -61.784  1.00  0.00     0.181 HD
BRANCH   8  10
HETATM   10  N4  UNL     1      32.442  14.065 -61.030  1.00  0.00    -0.254 N 
HETATM   11  N5  UNL     1      32.792  12.931 -60.591  1.00  0.00    -0.331 N 
ATOM     12  H52 UNL     1      32.056  12.348 -60.191  1.00  0.00     0.178 HD
ATOM     13  H51 UNL     1      33.746  12.571 -60.612  1.00  0.00     0.178 HD
ATOM     14  H4  UNL     1      33.165  14.662 -61.433  1.00  0.00     0.207 HD
ENDBRANCH   8  10
ENDBRANCH   7   8
ENDBRANCH   6   7
BRANCH   1  15
HETATM   15  C3  UNL     1      27.297  14.244 -56.908  1.00  0.00     0.147 C 
BRANCH  15  16
HETATM   16  C2  UNL     1      27.246  13.880 -55.485  1.00  0.00    -0.018 C 
HETATM   17  C1  UNL     1      27.627  14.746 -54.565  1.00  0.00     0.008 C 
ENDBRANCH  15  16
ENDBRANCH   1  15
TORSDOF 5
ENDMDL
MODEL 2
REMARK VINA RESULT: -5.411679814      4.570      5.570
REMARK  5 active torsions:
REMARK  status: ('A' for Active; 'I' for Inactive)
REMARK    1  A    between atoms: C2_2  and  C3_3 
REMARK    2  A    between atoms: C3_3  and  N1_4 
REMARK    3  A    between atoms: C5_9  and  C6_10 
REMARK    4  A    between atoms: C6_10  and  N3_11 
REMARK    5  A    between atoms: N3_11  and  N4_13 
ROOT
HETATM    1  N1  UNL     1      28.195  16.269 -55.192  1.00  0.00    -0.375 N 
ATOM      2  H1  UNL     1      28.532  15.994 -54.270  1.00  0.00     0.161 HD
HETATM    3  C4  UNL     1      28.243  17.506 -55.501  1.00  0.00     0.098 A 
HETATM    4  N2  UNL     1      28.629  18.832 -55.011  1.00  0.00    -0.365 N 
ATOM      5  H2  UNL     1      29.010  19.434 -54.281  1.00  0.00     0.161 HD
HETATM    6  C5  UNL     1      28.047  18.645 -56.377  1.00  0.00     0.169 A 
ENDROOT
BRANCH   6   7
HETATM    7  C6  UNL     1      29.020  18.996 -57.452  1.00  0.00     0.173 C 
BRANCH   7   8
HETATM    8  N3  UNL     1      28.745  20.250 -58.118  1.00  0.00    -0.320 N 
ATOM      9  H3  UNL     1      28.500  20.289 -59.107  1.00  0.00     0.181 HD
BRANCH   8  10
HETATM   10  N4  UNL     1      28.831  21.406 -57.339  1.00  0.00    -0.254 N 
HETATM   11  N5  UNL     1      28.387  22.539 -57.685  1.00  0.00    -0.331 N 
ATOM     12  H52 UNL     1      27.937  22.595 -58.599  1.00  0.00     0.178 HD
ATOM     13  H51 UNL     1      28.449  23.383 -57.116  1.00  0.00     0.178 HD
ATOM     14  H4  UNL     1      29.285  21.331 -56.428  1.00  0.00     0.207 HD
ENDBRANCH   8  10
ENDBRANCH   7   8
ENDBRANCH   6   7
BRANCH   1  15
HETATM   15  C3  UNL     1      27.696  15.236 -56.062  1.00  0.00     0.147 C 
BRANCH  15  16
HETATM   16  C2  UNL     1      27.261  14.029 -55.343  1.00  0.00    -0.018 C 
HETATM   17  C1  UNL     1      27.319  13.985 -54.026  1.00  0.00     0.008 C 
ENDBRANCH  15  16
ENDBRANCH   1  15
TORSDOF 5
ENDMDL
MODEL 3
REMARK VINA RESULT: -5.205410723      4.514      6.726
REMARK  5 active torsions:
REMARK  status: ('A' for Active; 'I' for Inactive)
REMARK    1  A    between atoms: C2_2  and  C3_3 
REMARK    2  A    between atoms: C3_3  and  N1_4 
REMARK    3  A    between atoms: C5_9  and  C6_10 
REMARK    4  A    between atoms: C6_10  and  N3_11 
REMARK    5  A    between atoms: N3_11  and  N4_13 
ROOT
HETATM    1  N1  UNL     1      27.893  16.284 -55.814  1.00  0.00    -0.375 N 
ATOM      2  H1  UNL     1      27.581  15.773 -56.639  1.00  0.00     0.161 HD
HETATM    3  C4  UNL     1      28.135  17.531 -55.941  1.00  0.00     0.098 A 
HETATM    4  N2  UNL     1      28.147  18.640 -56.898  1.00  0.00    -0.365 N 
ATOM      5  H2  UNL     1      28.000  19.005 -57.838  1.00  0.00     0.161 HD
HETATM    6  C5  UNL     1      28.536  18.841 -55.466  1.00  0.00     0.169 A 
ENDROOT
BRANCH   6   7
HETATM    7  C6  UNL     1      27.593  19.749 -54.753  1.00  0.00     0.173 C 
BRANCH   7   8
HETATM    8  N3  UNL     1      26.395  19.101 -54.265  1.00  0.00    -0.320 N 
ATOM      9  H3  UNL     1      26.434  18.353 -53.573  1.00  0.00     0.181 HD
BRANCH   8  10
HETATM   10  N4  UNL     1      25.182  19.552 -54.789  1.00  0.00    -0.254 N 
HETATM   11  N5  UNL     1      24.797  20.757 -54.773  1.00  0.00    -0.331 N 
ATOM     12  H52 UNL     1      25.429  21.434 -54.343  1.00  0.00     0.178 HD
ATOM     13  H51 UNL     1      23.910  21.087 -55.156  1.00  0.00     0.178 HD
ATOM     14  H4  UNL     1      24.563  18.861 -55.214  1.00  0.00     0.207 HD
ENDBRANCH   8  10
ENDBRANCH   7   8
ENDBRANCH   6   7
BRANCH   1  15
HETATM   15  C3  UNL     1      28.030  15.553 -54.582  1.00  0.00     0.147 C 
BRANCH  15  16
HETATM   16  C2  UNL     1      27.349  14.250 -54.598  1.00  0.00    -0.018 C 
HETATM   17  C1  UNL     1      27.131  13.630 -55.741  1.00  0.00     0.008 C 
ENDBRANCH  15  16
ENDBRANCH   1  15
TORSDOF 5
ENDMDL
MODEL 4
REMARK VINA RESULT: -5.170155185      4.506      6.604
REMARK  5 active torsions:
REMARK  status: ('A' for Active; 'I' for Inactive)
REMARK    1  A    between atoms: C2_2  and  C3_3 
REMARK    2  A    between atoms: C3_3  and  N1_4 
REMARK    3  A    between atoms: C5_9  and  C6_10 
REMARK    4  A    between atoms: C6_10  and  N3_11 
REMARK    5  A    between atoms: N3_11  and  N4_13 
ROOT
HETATM    1  N1  UNL     1      27.952  16.276 -55.792  1.00  0.00    -0.375 N 
ATOM      2  H1  UNL     1      27.758  15.750 -56.643  1.00  0.00     0.161 HD
HETATM    3  C4  UNL     1      28.136  17.534 -55.897  1.00  0.00     0.098 A 
HETATM    4  N2  UNL     1      28.186  18.646 -56.850  1.00  0.00    -0.365 N 
ATOM      5  H2  UNL     1      28.117  19.004 -57.802  1.00  0.00     0.161 HD
HETATM    6  C5  UNL     1      28.411  18.863 -55.386  1.00  0.00     0.169 A 
ENDROOT
BRANCH   6   7
HETATM    7  C6  UNL     1      27.350  19.715 -54.777  1.00  0.00     0.173 C 
BRANCH   7   8
HETATM    8  N3  UNL     1      26.001  19.251 -55.019  1.00  0.00    -0.320 N 
ATOM      9  H3  UNL     1      25.643  19.114 -55.964  1.00  0.00     0.181 HD
BRANCH   8  10
HETATM   10  N4  UNL     1      25.214  19.000 -53.894  1.00  0.00    -0.254 N 
HETATM   11  N5  UNL     1      25.434  18.078 -53.055  1.00  0.00    -0.331 N 
ATOM     12  H52 UNL     1      26.247  17.486 -53.229  1.00  0.00     0.178 HD
ATOM     13  H51 UNL     1      24.859  17.895 -52.233  1.00  0.00     0.178 HD
ATOM     14  H4  UNL     1      24.405  19.602 -53.737  1.00  0.00     0.207 HD
ENDBRANCH   8  10
ENDBRANCH   7   8
ENDBRANCH   6   7
BRANCH   1  15
HETATM   15  C3  UNL     1      28.002  15.550 -54.549  1.00  0.00     0.147 C 
BRANCH  15  16
HETATM   16  C2  UNL     1      27.329  14.244 -54.610  1.00  0.00    -0.018 C 
HETATM   17  C1  UNL     1      27.154  13.643 -55.771  1.00  0.00     0.008 C 
ENDBRANCH  15  16
ENDBRANCH   1  15
TORSDOF 5
ENDMDL
MODEL 5
REMARK VINA RESULT: -5.141434452      2.498      3.273
REMARK  5 active torsions:
REMARK  status: ('A' for Active; 'I' for Inactive)
REMARK    1  A    between atoms: C2_2  and  C3_3 
REMARK    2  A    between atoms: C3_3  and  N1_4 
REMARK    3  A    between atoms: C5_9  and  C6_10 
REMARK    4  A    between atoms: C6_10  and  N3_11 
REMARK    5  A    between atoms: N3_11  and  N4_13 
ROOT
HETATM    1  N1  UNL     1      28.127  16.244 -55.592  1.00  0.00    -0.375 N 
ATOM      2  H1  UNL     1      28.362  16.095 -54.611  1.00  0.00     0.161 HD
HETATM    3  C4  UNL     1      28.258  17.422 -56.064  1.00  0.00     0.098 A 
HETATM    4  N2  UNL     1      28.652  18.793 -55.727  1.00  0.00    -0.365 N 
ATOM      5  H2  UNL     1      28.987  19.482 -55.055  1.00  0.00     0.161 HD
HETATM    6  C5  UNL     1      28.196  18.429 -57.105  1.00  0.00     0.169 A 
ENDROOT
BRANCH   6   7
HETATM    7  C6  UNL     1      29.281  18.594 -58.115  1.00  0.00     0.173 C 
BRANCH   7   8
HETATM    8  N3  UNL     1      30.079  17.407 -58.333  1.00  0.00    -0.320 N 
ATOM      9  H3  UNL     1      30.958  17.255 -57.840  1.00  0.00     0.181 HD
BRANCH   8  10
HETATM   10  N4  UNL     1      29.584  16.479 -59.251  1.00  0.00    -0.254 N 
HETATM   11  N5  UNL     1      30.288  15.606 -59.839  1.00  0.00    -0.331 N 
ATOM     12  H52 UNL     1      31.283  15.593 -59.614  1.00  0.00     0.178 HD
ATOM     13  H51 UNL     1      29.927  14.928 -60.510  1.00  0.00     0.178 HD
ATOM     14  H4  UNL     1      28.587  16.507 -59.464  1.00  0.00     0.207 HD
ENDBRANCH   8  10
ENDBRANCH   7   8
ENDBRANCH   6   7
BRANCH   1  15
HETATM   15  C3  UNL     1      27.670  15.112 -56.354  1.00  0.00     0.147 C 
BRANCH  15  16
HETATM   16  C2  UNL     1      27.256  13.975 -55.518  1.00  0.00    -0.018 C 
HETATM   17  C1  UNL     1      27.330  14.058 -54.203  1.00  0.00     0.008 C 
ENDBRANCH  15  16
ENDBRANCH   1  15
TORSDOF 5
ENDMDL
