MODEL 1
REMARK VINA RESULT: -5.123640908      0.000      0.000
REMARK  5 active torsions:
REMARK  status: ('A' for Active; 'I' for Inactive)
REMARK    1  A    between atoms: N2_4  and  N3_6 
REMARK    2  A    between atoms: N3_6  and  C1_8 
REMARK    3  A    between atoms: N4_9  and  C2_11 
REMARK    4  A    between atoms: N5_12  and  C3_14 
REMARK    5  A    between atoms: C3_14  and  C4_15 
ROOT
HETATM    1  C1  UNL     1      31.808  13.467 -60.582  1.00  0.00     0.199 C 
HETATM    2  N4  UNL     1      30.778  13.637 -59.832  1.00  0.00    -0.348 N 
ATOM      3  H4  UNL     1      30.524  12.908 -59.166  1.00  0.00     0.167 HD
ENDROOT
BRANCH   2   4
HETATM    4  C2  UNL     1      29.983  14.814 -59.906  1.00  0.00     0.176 C 
HETATM    5  N5  UNL     1      28.953  15.030 -59.176  1.00  0.00    -0.385 N 
ATOM      6  H5  UNL     1      28.460  15.912 -59.318  1.00  0.00     0.160 HD
BRANCH   5   7
HETATM    7  C3  UNL     1      28.432  14.146 -58.181  1.00  0.00     0.135 C 
BRANCH   7   8
HETATM    8  C4  UNL     1      27.441  14.857 -57.271  1.00  0.00     0.080 A 
HETATM    9  C5  UNL     1      27.357  14.189 -55.991  1.00  0.00     0.071 A 
HETATM   10  N6  UNL     1      27.809  15.147 -55.367  1.00  0.00    -0.381 N 
HETATM   11  C6  UNL     1      27.971  15.955 -56.464  1.00  0.00     0.071 A 
ATOM     12  H6  UNL     1      27.998  15.291 -54.374  1.00  0.00     0.164 HD
ENDBRANCH   7   8
ENDBRANCH   5   7
ENDBRANCH   2   4
BRANCH   1  13
HETATM   13  N3  UNL     1      32.164  14.475 -61.507  1.00  0.00    -0.282 N 
ATOM     14  H3  UNL     1      32.566  15.350 -61.173  1.00  0.00     0.189 HD
BRANCH  13  15
HETATM   15  N2  UNL     1      31.967  14.278 -62.883  1.00  0.00    -0.248 N 
HETATM   16  N1  UNL     1      32.913  14.279 -63.708  1.00  0.00    -0.331 N 
ATOM     17  H12 UNL     1      33.855  14.430 -63.347  1.00  0.00     0.178 HD
ATOM     18  H11 UNL     1      32.770  14.136 -64.707  1.00  0.00     0.178 HD
ATOM     19  H2  UNL     1      31.018  14.128 -63.226  1.00  0.00     0.207 HD
ENDBRANCH  13  15
ENDBRANCH   1  13
TORSDOF 5
ENDMDL
MODEL 2
REMARK VINA RESULT: -4.878637007      1.671      2.389
REMARK  5 active torsions:
REMARK  status: ('A' for Active; 'I' for Inactive)
REMARK    1  A    between atoms: N2_4  and  N3_6 
REMARK    2  A    between atoms: N3_6  and  C1_8 
REMARK    3  A    between atoms: N4_9  and  C2_11 
REMARK    4  A    between atoms: N5_12  and  C3_14 
REMARK    5  A    between atoms: C3_14  and  C4_15 
ROOT
HETATM    1  C1  UNL     1      29.963  15.741 -60.045  1.00  0.00     0.199 C 
HETATM    2  N4  UNL     1      29.209  15.424 -59.052  1.00  0.00    -0.348 N 
ATOM      3  H4  UNL     1      28.862  16.160 -58.439  1.00  0.00     0.167 HD
ENDROOT
BRANCH   2   4
HETATM    4  C2  UNL     1      28.847  14.074 -58.787  1.00  0.00     0.176 C 
HETATM    5  N5  UNL     1      28.149  13.705 -57.779  1.00  0.00    -0.385 N 
ATOM      6  H5  UNL     1      27.951  12.708 -57.692  1.00  0.00     0.160 HD
BRANCH   5   7
HETATM    7  C3  UNL     1      27.622  14.564 -56.766  1.00  0.00     0.135 C 
BRANCH   7   8
HETATM    8  C4  UNL     1      27.426  13.820 -55.453  1.00  0.00     0.080 A 
HETATM    9  C5  UNL     1      27.679  14.695 -54.330  1.00  0.00     0.071 A 
HETATM   10  N6  UNL     1      26.521  14.644 -53.922  1.00  0.00    -0.381 N 
HETATM   11  C6  UNL     1      26.068  13.807 -54.909  1.00  0.00     0.071 A 
ATOM     12  H6  UNL     1      26.056  15.077 -53.122  1.00  0.00     0.164 HD
ENDBRANCH   7   8
ENDBRANCH   5   7
ENDBRANCH   2   4
BRANCH   1  13
HETATM   13  N3  UNL     1      30.447  14.723 -60.898  1.00  0.00    -0.282 N 
ATOM     14  H3  UNL     1      29.803  14.235 -61.521  1.00  0.00     0.189 HD
BRANCH  13  15
HETATM   15  N2  UNL     1      31.808  14.379 -60.893  1.00  0.00    -0.248 N 
HETATM   16  N1  UNL     1      32.269  13.456 -60.178  1.00  0.00    -0.331 N 
ATOM     17  H12 UNL     1      31.615  12.946 -59.583  1.00  0.00     0.178 HD
ATOM     18  H11 UNL     1      33.258  13.206 -60.174  1.00  0.00     0.178 HD
ATOM     19  H2  UNL     1      32.447  14.899 -61.494  1.00  0.00     0.207 HD
ENDBRANCH  13  15
ENDBRANCH   1  13
TORSDOF 5
ENDMDL
MODEL 3
REMARK VINA RESULT: -4.843503461      2.397      3.011
REMARK  5 active torsions:
REMARK  status: ('A' for Active; 'I' for Inactive)
REMARK    1  A    between atoms: N2_4  and  N3_6 
REMARK    2  A    between atoms: N3_6  and  C1_8 
REMARK    3  A    between atoms: N4_9  and  C2_11 
REMARK    4  A    between atoms: N5_12  and  C3_14 
REMARK    5  A    between atoms: C3_14  and  C4_15 
ROOT
HETATM    1  C1  UNL     1      31.219  14.504 -60.965  1.00  0.00     0.199 C 
HETATM    2  N4  UNL     1      30.218  15.263 -60.688  1.00  0.00    -0.348 N 
ATOM      3  H4  UNL     1      29.970  16.012 -61.333  1.00  0.00     0.167 HD
ENDROOT
BRANCH   2   4
HETATM    4  C2  UNL     1      29.449  15.085 -59.504  1.00  0.00     0.176 C 
HETATM    5  N5  UNL     1      29.213  16.017 -58.658  1.00  0.00    -0.385 N 
ATOM      6  H5  UNL     1      28.648  15.772 -57.844  1.00  0.00     0.160 HD
BRANCH   5   7
HETATM    7  C3  UNL     1      29.668  17.368 -58.750  1.00  0.00     0.135 C 
BRANCH   7   8
HETATM    8  C4  UNL     1      29.563  18.083 -57.411  1.00  0.00     0.080 A 
HETATM    9  C5  UNL     1      28.877  19.347 -57.563  1.00  0.00     0.071 A 
HETATM   10  N6  UNL     1      27.925  19.011 -56.861  1.00  0.00    -0.381 N 
HETATM   11  C6  UNL     1      28.400  17.753 -56.588  1.00  0.00     0.071 A 
ATOM     12  H6  UNL     1      27.075  19.500 -56.578  1.00  0.00     0.164 HD
ENDBRANCH   7   8
ENDBRANCH   5   7
ENDBRANCH   2   4
BRANCH   1  13
HETATM   13  N3  UNL     1      31.567  13.465 -60.073  1.00  0.00    -0.282 N 
ATOM     14  H3  UNL     1      31.035  13.336 -59.213  1.00  0.00     0.189 HD
BRANCH  13  15
HETATM   15  N2  UNL     1      32.641  12.609 -60.363  1.00  0.00    -0.248 N 
HETATM   16  N1  UNL     1      33.649  12.986 -61.009  1.00  0.00    -0.331 N 
ATOM     17  H12 UNL     1      33.673  13.954 -61.328  1.00  0.00     0.178 HD
ATOM     18  H11 UNL     1      34.430  12.364 -61.220  1.00  0.00     0.178 HD
ATOM     19  H2  UNL     1      32.601  11.644 -60.036  1.00  0.00     0.207 HD
ENDBRANCH  13  15
ENDBRANCH   1  13
TORSDOF 5
ENDMDL
MODEL 4
REMARK VINA RESULT: -4.795368170     10.553     12.513
REMARK  5 active torsions:
REMARK  status: ('A' for Active; 'I' for Inactive)
REMARK    1  A    between atoms: N2_4  and  N3_6 
REMARK    2  A    between atoms: N3_6  and  C1_8 
REMARK    3  A    between atoms: N4_9  and  C2_11 
REMARK    4  A    between atoms: N5_12  and  C3_14 
REMARK    5  A    between atoms: C3_14  and  C4_15 
ROOT
HETATM    1  C1  UNL     1      24.313  16.500 -51.375  1.00  0.00     0.199 C 
HETATM    2  N4  UNL     1      24.476  17.194 -50.305  1.00  0.00    -0.348 N 
ATOM      3  H4  UNL     1      25.115  17.989 -50.322  1.00  0.00     0.167 HD
ENDROOT
BRANCH   2   4
HETATM    4  C2  UNL     1      23.791  16.883 -49.099  1.00  0.00     0.176 C 
HETATM    5  N5  UNL     1      23.893  17.566 -48.021  1.00  0.00    -0.385 N 
ATOM      6  H5  UNL     1      23.353  17.247 -47.216  1.00  0.00     0.160 HD
BRANCH   5   7
HETATM    7  C3  UNL     1      24.696  18.735 -47.843  1.00  0.00     0.135 C 
BRANCH   7   8
HETATM    8  C4  UNL     1      23.878  20.004 -48.030  1.00  0.00     0.080 A 
HETATM    9  C5  UNL     1      24.606  21.154 -47.542  1.00  0.00     0.071 A 
HETATM   10  N6  UNL     1      24.693  21.677 -48.651  1.00  0.00    -0.381 N 
HETATM   11  C6  UNL     1      24.019  20.684 -49.318  1.00  0.00     0.071 A 
ATOM     12  H6  UNL     1      25.118  22.549 -48.968  1.00  0.00     0.164 HD
ENDBRANCH   7   8
ENDBRANCH   5   7
ENDBRANCH   2   4
BRANCH   1  13
HETATM   13  N3  UNL     1      23.430  15.397 -51.356  1.00  0.00    -0.282 N 
ATOM     14  H3  UNL     1      23.701  14.540 -50.874  1.00  0.00     0.189 HD
BRANCH  13  15
HETATM   15  N2  UNL     1      22.183  15.474 -51.996  1.00  0.00    -0.248 N 
HETATM   16  N1  UNL     1      21.112  15.657 -51.367  1.00  0.00    -0.331 N 
ATOM     17  H12 UNL     1      21.168  15.752 -50.353  1.00  0.00     0.178 HD
ATOM     18  H11 UNL     1      20.206  15.712 -51.832  1.00  0.00     0.178 HD
ATOM     19  H2  UNL     1      22.146  15.377 -53.010  1.00  0.00     0.207 HD
ENDBRANCH  13  15
ENDBRANCH   1  13
TORSDOF 5
ENDMDL
MODEL 5
REMARK VINA RESULT: -4.789611887      2.389      7.451
REMARK  5 active torsions:
REMARK  status: ('A' for Active; 'I' for Inactive)
REMARK    1  A    between atoms: N2_4  and  N3_6 
REMARK    2  A    between atoms: N3_6  and  C1_8 
REMARK    3  A    between atoms: N4_9  and  C2_11 
REMARK    4  A    between atoms: N5_12  and  C3_14 
REMARK    5  A    between atoms: C3_14  and  C4_15 
ROOT
HETATM    1  C1  UNL     1      26.899  14.121 -53.914  1.00  0.00     0.199 C 
HETATM    2  N4  UNL     1      27.671  14.295 -54.928  1.00  0.00    -0.348 N 
ATOM      3  H4  UNL     1      28.296  13.541 -55.210  1.00  0.00     0.167 HD
ENDROOT
BRANCH   2   4
HETATM    4  C2  UNL     1      27.675  15.511 -55.666  1.00  0.00     0.176 C 
HETATM    5  N5  UNL     1      27.894  15.583 -56.925  1.00  0.00    -0.385 N 
ATOM      6  H5  UNL     1      27.872  16.511 -57.348  1.00  0.00     0.160 HD
BRANCH   5   7
HETATM    7  C3  UNL     1      28.168  14.480 -57.792  1.00  0.00     0.135 C 
BRANCH   7   8
HETATM    8  C4  UNL     1      28.537  14.951 -59.191  1.00  0.00     0.080 A 
HETATM    9  C5  UNL     1      29.259  16.203 -59.131  1.00  0.00     0.071 A 
HETATM   10  N6  UNL     1      30.294  15.725 -59.591  1.00  0.00    -0.381 N 
HETATM   11  C6  UNL     1      29.801  14.452 -59.733  1.00  0.00     0.071 A 
ATOM     12  H6  UNL     1      31.206  16.135 -59.797  1.00  0.00     0.164 HD
ENDBRANCH   7   8
ENDBRANCH   5   7
ENDBRANCH   2   4
BRANCH   1  13
HETATM   13  N3  UNL     1      26.031  15.164 -53.519  1.00  0.00    -0.282 N 
ATOM     14  H3  UNL     1      26.176  16.107 -53.878  1.00  0.00     0.189 HD
BRANCH  13  15
HETATM   15  N2  UNL     1      24.970  14.909 -52.635  1.00  0.00    -0.248 N 
HETATM   16  N1  UNL     1      24.507  15.785 -51.865  1.00  0.00    -0.331 N 
ATOM     17  H12 UNL     1      24.929  16.713 -51.896  1.00  0.00     0.178 HD
ATOM     18  H11 UNL     1      23.736  15.600 -51.223  1.00  0.00     0.178 HD
ATOM     19  H2  UNL     1      24.560  13.975 -52.618  1.00  0.00     0.207 HD
ENDBRANCH  13  15
ENDBRANCH   1  13
TORSDOF 5
ENDMDL
