MODEL 1
REMARK VINA RESULT: -3.965133457      0.000      0.000
REMARK  6 active torsions:
REMARK  status: ('A' for Active; 'I' for Inactive)
REMARK    1  A    between atoms: N1_2  and  C2_3 
REMARK    2  A    between atoms: C2_3  and  C3_4 
REMARK    3  A    between atoms: C3_4  and  N2_5 
REMARK    4  A    between atoms: N2_5  and  C4_7 
REMARK    5  A    between atoms: N3_8  and  N4_10 
REMARK    6  A    between atoms: N4_10  and  N5_11 
ROOT
HETATM    1  N2  UNL     1      24.015  17.160 -47.870  1.00  0.00    -0.384 N 
ATOM      2  H2  UNL     1      24.555  16.644 -47.175  1.00  0.00     0.160 HD
ENDROOT
BRANCH   1   3
HETATM    3  C3  UNL     1      24.287  18.567 -48.041  1.00  0.00     0.148 C 
BRANCH   3   4
HETATM    4  C2  UNL     1      25.506  18.700 -48.929  1.00  0.00     0.256 C 
BRANCH   4   5
HETATM    5  N1  UNL     1      25.338  19.706 -49.952  1.00  0.00    -0.066 N 
HETATM    6  C1  UNL     1      24.265  20.677 -49.757  1.00  0.00     0.272 C 
HETATM    7  C5  UNL     1      25.400  19.177 -51.315  1.00  0.00     0.265 A 
HETATM    8  C6  UNL     1      26.458  20.063 -50.783  1.00  0.00     0.265 A 
ENDBRANCH   4   5
ENDBRANCH   3   4
ENDBRANCH   1   3
BRANCH   1   9
HETATM    9  C4  UNL     1      23.041  16.461 -48.614  1.00  0.00     0.191 C 
HETATM   10  N3  UNL     1      23.190  16.142 -49.847  1.00  0.00    -0.281 N 
ATOM     11  H3  UNL     1      24.055  16.403 -50.319  1.00  0.00     0.185 HD
BRANCH  10  12
HETATM   12  N4  UNL     1      22.212  15.449 -50.571  1.00  0.00    -0.029 NA
BRANCH  12  13
HETATM   13  N5  UNL     1      22.659  15.011 -51.819  1.00  0.00    -0.329 N 
ATOM     14  H52 UNL     1      23.620  14.708 -51.982  1.00  0.00     0.174 HD
ATOM     15  H51 UNL     1      21.932  15.027 -52.534  1.00  0.00     0.174 HD
ENDBRANCH  12  13
ENDBRANCH  10  12
ENDBRANCH   1   9
TORSDOF 6
ENDMDL
MODEL 2
REMARK VINA RESULT: -3.957097288      1.271      1.933
REMARK  6 active torsions:
REMARK  status: ('A' for Active; 'I' for Inactive)
REMARK    1  A    between atoms: N1_2  and  C2_3 
REMARK    2  A    between atoms: C2_3  and  C3_4 
REMARK    3  A    between atoms: C3_4  and  N2_5 
REMARK    4  A    between atoms: N2_5  and  C4_7 
REMARK    5  A    between atoms: N3_8  and  N4_10 
REMARK    6  A    between atoms: N4_10  and  N5_11 
ROOT
HETATM    1  N2  UNL     1      24.036  17.174 -47.892  1.00  0.00    -0.384 N 
ATOM      2  H2  UNL     1      24.453  16.722 -47.079  1.00  0.00     0.160 HD
ENDROOT
BRANCH   1   3
HETATM    3  C3  UNL     1      24.484  18.500 -48.243  1.00  0.00     0.148 C 
BRANCH   3   4
HETATM    4  C2  UNL     1      25.666  18.359 -49.178  1.00  0.00     0.256 C 
BRANCH   4   5
HETATM    5  N1  UNL     1      26.765  19.223 -48.814  1.00  0.00    -0.066 N 
HETATM    6  C1  UNL     1      27.198  20.200 -49.809  1.00  0.00     0.272 C 
HETATM    7  C5  UNL     1      27.875  18.524 -48.167  1.00  0.00     0.265 A 
HETATM    8  C6  UNL     1      27.030  19.483 -47.423  1.00  0.00     0.265 A 
ENDBRANCH   4   5
ENDBRANCH   3   4
ENDBRANCH   1   3
BRANCH   1   9
HETATM    9  C4  UNL     1      23.051  16.470 -48.616  1.00  0.00     0.191 C 
HETATM   10  N3  UNL     1      23.194  16.116 -49.841  1.00  0.00    -0.281 N 
ATOM     11  H3  UNL     1      24.062  16.352 -50.321  1.00  0.00     0.185 HD
BRANCH  10  12
HETATM   12  N4  UNL     1      22.204  15.418 -50.546  1.00  0.00    -0.029 NA
BRANCH  12  13
HETATM   13  N5  UNL     1      22.621  15.006 -51.813  1.00  0.00    -0.329 N 
ATOM     14  H52 UNL     1      23.336  14.292 -51.950  1.00  0.00     0.174 HD
ATOM     15  H51 UNL     1      22.138  15.490 -52.570  1.00  0.00     0.174 HD
ENDBRANCH  12  13
ENDBRANCH  10  12
ENDBRANCH   1   9
TORSDOF 6
ENDMDL
MODEL 3
REMARK VINA RESULT: -3.927862805      1.364      1.990
REMARK  6 active torsions:
REMARK  status: ('A' for Active; 'I' for Inactive)
REMARK    1  A    between atoms: N1_2  and  C2_3 
REMARK    2  A    between atoms: C2_3  and  C3_4 
REMARK    3  A    between atoms: C3_4  and  N2_5 
REMARK    4  A    between atoms: N2_5  and  C4_7 
REMARK    5  A    between atoms: N3_8  and  N4_10 
REMARK    6  A    between atoms: N4_10  and  N5_11 
ROOT
HETATM    1  N2  UNL     1      24.012  17.144 -48.096  1.00  0.00    -0.384 N 
ATOM      2  H2  UNL     1      24.155  16.449 -47.364  1.00  0.00     0.160 HD
ENDROOT
BRANCH   1   3
HETATM    3  C3  UNL     1      24.480  18.489 -47.863  1.00  0.00     0.148 C 
BRANCH   3   4
HETATM    4  C2  UNL     1      24.418  19.237 -49.178  1.00  0.00     0.256 C 
BRANCH   4   5
HETATM    5  N1  UNL     1      24.054  20.624 -49.009  1.00  0.00    -0.066 N 
HETATM    6  C1  UNL     1      23.985  21.444 -50.215  1.00  0.00     0.272 C 
HETATM    7  C5  UNL     1      24.744  21.283 -47.900  1.00  0.00     0.265 A 
HETATM    8  C6  UNL     1      23.290  21.020 -47.854  1.00  0.00     0.265 A 
ENDBRANCH   4   5
ENDBRANCH   3   4
ENDBRANCH   1   3
BRANCH   1   9
HETATM    9  C4  UNL     1      23.368  16.740 -49.284  1.00  0.00     0.191 C 
HETATM   10  N3  UNL     1      22.598  15.717 -49.358  1.00  0.00    -0.281 N 
ATOM     11  H3  UNL     1      22.439  15.163 -48.516  1.00  0.00     0.185 HD
BRANCH  10  12
HETATM   12  N4  UNL     1      21.967  15.330 -50.547  1.00  0.00    -0.029 NA
BRANCH  12  13
HETATM   13  N5  UNL     1      22.865  15.063 -51.582  1.00  0.00    -0.329 N 
ATOM     14  H52 UNL     1      23.541  15.751 -51.914  1.00  0.00     0.174 HD
ATOM     15  H51 UNL     1      22.769  14.121 -51.963  1.00  0.00     0.174 HD
ENDBRANCH  12  13
ENDBRANCH  10  12
ENDBRANCH   1   9
TORSDOF 6
ENDMDL
MODEL 4
REMARK VINA RESULT: -3.919664420      0.423      1.196
REMARK  6 active torsions:
REMARK  status: ('A' for Active; 'I' for Inactive)
REMARK    1  A    between atoms: N1_2  and  C2_3 
REMARK    2  A    between atoms: C2_3  and  C3_4 
REMARK    3  A    between atoms: C3_4  and  N2_5 
REMARK    4  A    between atoms: N2_5  and  C4_7 
REMARK    5  A    between atoms: N3_8  and  N4_10 
REMARK    6  A    between atoms: N4_10  and  N5_11 
ROOT
HETATM    1  N2  UNL     1      23.998  17.208 -47.872  1.00  0.00    -0.384 N 
ATOM      2  H2  UNL     1      24.455  16.764 -47.076  1.00  0.00     0.160 HD
ENDROOT
BRANCH   1   3
HETATM    3  C3  UNL     1      24.372  18.561 -48.209  1.00  0.00     0.148 C 
BRANCH   3   4
HETATM    4  C2  UNL     1      25.569  18.496 -49.133  1.00  0.00     0.256 C 
BRANCH   4   5
HETATM    5  N1  UNL     1      25.363  19.234 -50.358  1.00  0.00    -0.066 N 
HETATM    6  C1  UNL     1      25.206  18.455 -51.583  1.00  0.00     0.272 C 
HETATM    7  C5  UNL     1      26.256  20.382 -50.511  1.00  0.00     0.265 A 
HETATM    8  C6  UNL     1      24.804  20.559 -50.299  1.00  0.00     0.265 A 
ENDBRANCH   4   5
ENDBRANCH   3   4
ENDBRANCH   1   3
BRANCH   1   9
HETATM    9  C4  UNL     1      23.034  16.468 -48.588  1.00  0.00     0.191 C 
HETATM   10  N3  UNL     1      23.178  16.119 -49.814  1.00  0.00    -0.281 N 
ATOM     11  H3  UNL     1      24.033  16.388 -50.301  1.00  0.00     0.185 HD
BRANCH  10  12
HETATM   12  N4  UNL     1      22.209  15.385 -50.509  1.00  0.00    -0.029 NA
BRANCH  12  13
HETATM   13  N5  UNL     1      22.614  15.023 -51.796  1.00  0.00    -0.329 N 
ATOM     14  H52 UNL     1      23.588  15.062 -52.096  1.00  0.00     0.174 HD
ATOM     15  H51 UNL     1      21.841  14.721 -52.389  1.00  0.00     0.174 HD
ENDBRANCH  12  13
ENDBRANCH  10  12
ENDBRANCH   1   9
TORSDOF 6
ENDMDL
MODEL 5
REMARK VINA RESULT: -3.916116026     10.347     11.771
REMARK  6 active torsions:
REMARK  status: ('A' for Active; 'I' for Inactive)
REMARK    1  A    between atoms: N1_2  and  C2_3 
REMARK    2  A    between atoms: C2_3  and  C3_4 
REMARK    3  A    between atoms: C3_4  and  N2_5 
REMARK    4  A    between atoms: N2_5  and  C4_7 
REMARK    5  A    between atoms: N3_8  and  N4_10 
REMARK    6  A    between atoms: N4_10  and  N5_11 
ROOT
HETATM    1  N2  UNL     1      29.543  15.306 -60.146  1.00  0.00    -0.384 N 
ATOM      2  H2  UNL     1      28.961  15.538 -60.950  1.00  0.00     0.160 HD
ENDROOT
BRANCH   1   3
HETATM    3  C3  UNL     1      29.169  15.835 -58.856  1.00  0.00     0.148 C 
BRANCH   3   4
HETATM    4  C2  UNL     1      29.694  17.252 -58.764  1.00  0.00     0.256 C 
BRANCH   4   5
HETATM    5  N1  UNL     1      29.243  17.934 -57.574  1.00  0.00    -0.066 N 
HETATM    6  C1  UNL     1      28.356  17.193 -56.681  1.00  0.00     0.272 C 
HETATM    7  C5  UNL     1      28.808  19.310 -57.812  1.00  0.00     0.265 A 
HETATM    8  C6  UNL     1      30.030  19.012 -57.035  1.00  0.00     0.265 A 
ENDBRANCH   4   5
ENDBRANCH   3   4
ENDBRANCH   1   3
BRANCH   1   9
HETATM    9  C4  UNL     1      30.671  14.485 -60.351  1.00  0.00     0.191 C 
HETATM   10  N3  UNL     1      31.530  14.686 -61.282  1.00  0.00    -0.281 N 
ATOM     11  H3  UNL     1      31.396  15.479 -61.909  1.00  0.00     0.185 HD
BRANCH  10  12
HETATM   12  N4  UNL     1      32.645  13.860 -61.473  1.00  0.00    -0.029 NA
BRANCH  12  13
HETATM   13  N5  UNL     1      32.759  12.861 -60.504  1.00  0.00    -0.329 N 
ATOM     14  H52 UNL     1      33.516  12.843 -59.821  1.00  0.00     0.174 HD
ATOM     15  H51 UNL     1      32.015  12.165 -60.556  1.00  0.00     0.174 HD
ENDBRANCH  12  13
ENDBRANCH  10  12
ENDBRANCH   1   9
TORSDOF 6
ENDMDL
