MODEL 1
REMARK VINA RESULT: -5.882480816      0.000      0.000
REMARK  2 active torsions:
REMARK  status: ('A' for Active; 'I' for Inactive)
REMARK    1  A    between atoms: C3_6  and  O1_8 
REMARK    2  A    between atoms: O1_8  and  C4_9 
ROOT
HETATM    1  F1  UNL     1      27.348  15.187   4.496  1.00  0.00    -0.236 F 
HETATM    2  C1  UNL     1      28.024  16.374   4.259  1.00  0.00     0.322 A 
HETATM    3  C2  UNL     1      27.299  17.492   3.543  1.00  0.00     0.342 A 
HETATM    4  F2  UNL     1      27.981  18.334   2.718  1.00  0.00    -0.196 F 
HETATM    5  F3  UNL     1      26.000  17.180   3.208  1.00  0.00    -0.196 F 
HETATM    6  C3  UNL     1      27.668  17.571   5.024  1.00  0.00     0.312 A 
HETATM    7  F4  UNL     1      28.720  18.419   5.342  1.00  0.00    -0.201 F 
ENDROOT
BRANCH   6   8
HETATM    8  O1  UNL     1      26.550  17.622   5.849  1.00  0.00    -0.329 OA
BRANCH   8   9
HETATM    9  C4  UNL     1      26.933  18.216   7.050  1.00  0.00     0.286 C 
HETATM   10 CL1  UNL     1      26.683  19.962   7.046  1.00  0.00    -0.102 Cl
ENDBRANCH   8   9
ENDBRANCH   6   8
TORSDOF 2
ENDMDL
MODEL 2
REMARK VINA RESULT: -5.668341251      1.203      2.424
REMARK  2 active torsions:
REMARK  status: ('A' for Active; 'I' for Inactive)
REMARK    1  A    between atoms: C3_6  and  O1_8 
REMARK    2  A    between atoms: O1_8  and  C4_9 
ROOT
HETATM    1  F1  UNL     1      27.914  18.257   3.098  1.00  0.00    -0.236 F 
HETATM    2  C1  UNL     1      27.120  17.294   3.701  1.00  0.00     0.322 A 
HETATM    3  C2  UNL     1      27.791  16.161   4.446  1.00  0.00     0.342 A 
HETATM    4  F2  UNL     1      27.224  14.923   4.469  1.00  0.00    -0.196 F 
HETATM    5  F3  UNL     1      29.166  16.234   4.436  1.00  0.00    -0.196 F 
HETATM    6  C3  UNL     1      27.010  17.263   5.162  1.00  0.00     0.312 A 
HETATM    7  F4  UNL     1      25.770  16.896   5.667  1.00  0.00    -0.201 F 
ENDROOT
BRANCH   6   8
HETATM    8  O1  UNL     1      27.818  18.038   5.986  1.00  0.00    -0.329 OA
BRANCH   8   9
HETATM    9  C4  UNL     1      26.988  18.732   6.865  1.00  0.00     0.286 C 
HETATM   10 CL1  UNL     1      27.420  20.437   6.992  1.00  0.00    -0.102 Cl
ENDBRANCH   8   9
ENDBRANCH   6   8
TORSDOF 2
ENDMDL
MODEL 3
REMARK VINA RESULT: -5.568644375      1.462      1.714
REMARK  2 active torsions:
REMARK  status: ('A' for Active; 'I' for Inactive)
REMARK    1  A    between atoms: C3_6  and  O1_8 
REMARK    2  A    between atoms: O1_8  and  C4_9 
ROOT
HETATM    1  F1  UNL     1      24.896  15.686   4.798  1.00  0.00    -0.236 F 
HETATM    2  C1  UNL     1      26.256  15.551   5.027  1.00  0.00     0.322 A 
HETATM    3  C2  UNL     1      27.220  16.318   4.148  1.00  0.00     0.342 A 
HETATM    4  F2  UNL     1      28.437  15.788   3.840  1.00  0.00    -0.196 F 
HETATM    5  F3  UNL     1      26.599  17.092   3.194  1.00  0.00    -0.196 F 
HETATM    6  C3  UNL     1      27.001  16.664   5.620  1.00  0.00     0.312 A 
HETATM    7  F4  UNL     1      28.027  16.310   6.485  1.00  0.00    -0.201 F 
ENDROOT
BRANCH   6   8
HETATM    8  O1  UNL     1      26.443  17.925   5.793  1.00  0.00    -0.329 OA
BRANCH   8   9
HETATM    9  C4  UNL     1      26.816  18.387   7.054  1.00  0.00     0.286 C 
HETATM   10 CL1  UNL     1      27.420  20.044   7.011  1.00  0.00    -0.102 Cl
ENDBRANCH   8   9
ENDBRANCH   6   8
TORSDOF 2
ENDMDL
MODEL 4
REMARK VINA RESULT: -5.428298474      1.364      2.065
REMARK  2 active torsions:
REMARK  status: ('A' for Active; 'I' for Inactive)
REMARK    1  A    between atoms: C3_6  and  O1_8 
REMARK    2  A    between atoms: O1_8  and  C4_9 
ROOT
HETATM    1  F1  UNL     1      26.281  16.709   3.428  1.00  0.00    -0.236 F 
HETATM    2  C1  UNL     1      27.053  16.206   4.463  1.00  0.00     0.322 A 
HETATM    3  C2  UNL     1      28.332  16.926   4.831  1.00  0.00     0.342 A 
HETATM    4  F2  UNL     1      29.407  16.225   5.289  1.00  0.00    -0.196 F 
HETATM    5  F3  UNL     1      28.576  18.042   4.063  1.00  0.00    -0.196 F 
HETATM    6  C3  UNL     1      27.103  16.924   5.739  1.00  0.00     0.312 A 
HETATM    7  F4  UNL     1      27.190  16.130   6.875  1.00  0.00    -0.201 F 
ENDROOT
BRANCH   6   8
HETATM    8  O1  UNL     1      26.559  18.193   5.902  1.00  0.00    -0.329 OA
BRANCH   8   9
HETATM    9  C4  UNL     1      26.921  18.653   7.166  1.00  0.00     0.286 C 
HETATM   10 CL1  UNL     1      27.670  20.249   7.111  1.00  0.00    -0.102 Cl
ENDBRANCH   8   9
ENDBRANCH   6   8
TORSDOF 2
ENDMDL
MODEL 5
REMARK VINA RESULT: -5.281544216      1.261      1.553
REMARK  2 active torsions:
REMARK  status: ('A' for Active; 'I' for Inactive)
REMARK    1  A    between atoms: C3_6  and  O1_8 
REMARK    2  A    between atoms: O1_8  and  C4_9 
ROOT
HETATM    1  F1  UNL     1      29.804  16.012   5.216  1.00  0.00    -0.236 F 
HETATM    2  C1  UNL     1      29.031  16.985   4.603  1.00  0.00     0.322 A 
HETATM    3  C2  UNL     1      27.678  16.595   4.049  1.00  0.00     0.342 A 
HETATM    4  F2  UNL     1      27.190  17.208   2.935  1.00  0.00    -0.196 F 
HETATM    5  F3  UNL     1      27.369  15.267   4.236  1.00  0.00    -0.196 F 
HETATM    6  C3  UNL     1      27.832  17.486   5.282  1.00  0.00     0.312 A 
HETATM    7  F4  UNL     1      27.552  18.832   5.096  1.00  0.00    -0.201 F 
ENDROOT
BRANCH   6   8
HETATM    8  O1  UNL     1      27.326  16.893   6.433  1.00  0.00    -0.329 OA
BRANCH   8   9
HETATM    9  C4  UNL     1      26.186  17.599   6.810  1.00  0.00     0.286 C 
HETATM   10 CL1  UNL     1      26.567  19.014   7.792  1.00  0.00    -0.102 Cl
ENDBRANCH   8   9
ENDBRANCH   6   8
TORSDOF 2
ENDMDL
