MODEL 1
REMARK VINA RESULT: -6.156176946      0.000      0.000
REMARK  1 active torsions:
REMARK  status: ('A' for Active; 'I' for Inactive)
REMARK    1  A    between atoms: C3_5  and  N1_6 
ROOT
HETATM    1  F1  UNL     1      29.456  15.957   5.185  1.00  0.00    -0.199 F 
HETATM    2  C1  UNL     1      28.140  16.344   5.001  1.00  0.00     0.312 C 
HETATM    3  F2  UNL     1      27.520  15.644   4.012  1.00  0.00    -0.199 F 
HETATM    4  C2  UNL     1      27.312  16.406   6.251  1.00  0.00     0.118 C 
HETATM    5  C3  UNL     1      26.896  17.822   5.841  1.00  0.00     0.178 C 
HETATM    6  C4  UNL     1      28.030  17.858   4.901  1.00  0.00     0.328 C 
HETATM    7  F3  UNL     1      27.690  18.196   3.599  1.00  0.00    -0.197 F 
HETATM    8  F4  UNL     1      29.157  18.543   5.281  1.00  0.00    -0.197 F 
ENDROOT
BRANCH   5   9
HETATM    9  N1  UNL     1      26.905  18.665   6.974  1.00  0.00    -0.323 N 
HETATM   10 CL1  UNL     1      26.884  20.315   6.788  1.00  0.00     0.006 Cl
ATOM     11  H1  UNL     1      26.924  18.259   7.910  1.00  0.00     0.174 HD
ENDBRANCH   5   9
TORSDOF 1
ENDMDL
MODEL 2
REMARK VINA RESULT: -6.044792540      1.420      1.671
REMARK  1 active torsions:
REMARK  status: ('A' for Active; 'I' for Inactive)
REMARK    1  A    between atoms: C3_5  and  N1_6 
ROOT
HETATM    1  F1  UNL     1      27.580  14.806   4.375  1.00  0.00    -0.199 F 
HETATM    2  C1  UNL     1      26.638  15.716   4.822  1.00  0.00     0.312 C 
HETATM    3  F2  UNL     1      25.365  15.245   4.727  1.00  0.00    -0.199 F 
HETATM    4  C2  UNL     1      26.918  16.313   6.170  1.00  0.00     0.118 C 
HETATM    5  C3  UNL     1      26.711  17.694   5.542  1.00  0.00     0.178 C 
HETATM    6  C4  UNL     1      26.877  17.088   4.210  1.00  0.00     0.328 C 
HETATM    7  F3  UNL     1      25.852  17.363   3.318  1.00  0.00    -0.197 F 
HETATM    8  F4  UNL     1      28.091  17.236   3.585  1.00  0.00    -0.197 F 
ENDROOT
BRANCH   5   9
HETATM    9  N1  UNL     1      27.692  18.587   6.027  1.00  0.00    -0.323 N 
HETATM   10 CL1  UNL     1      27.247  19.898   6.944  1.00  0.00     0.006 Cl
ATOM     11  H1  UNL     1      28.677  18.426   5.815  1.00  0.00     0.174 HD
ENDBRANCH   5   9
TORSDOF 1
ENDMDL
MODEL 3
REMARK VINA RESULT: -5.959612605      1.402      2.443
REMARK  1 active torsions:
REMARK  status: ('A' for Active; 'I' for Inactive)
REMARK    1  A    between atoms: C3_5  and  N1_6 
ROOT
HETATM    1  F1  UNL     1      27.497  17.320   2.866  1.00  0.00    -0.199 F 
HETATM    2  C1  UNL     1      27.832  16.826   4.115  1.00  0.00     0.312 C 
HETATM    3  F2  UNL     1      28.904  15.988   4.078  1.00  0.00    -0.199 F 
HETATM    4  C2  UNL     1      27.962  17.859   5.195  1.00  0.00     0.118 C 
HETATM    5  C3  UNL     1      27.019  17.006   6.049  1.00  0.00     0.178 C 
HETATM    6  C4  UNL     1      26.603  16.288   4.832  1.00  0.00     0.328 C 
HETATM    7  F3  UNL     1      26.703  14.907   4.914  1.00  0.00    -0.197 F 
HETATM    8  F4  UNL     1      25.405  16.636   4.260  1.00  0.00    -0.197 F 
ENDROOT
BRANCH   5   9
HETATM    9  N1  UNL     1      26.094  17.843   6.713  1.00  0.00    -0.323 N 
HETATM   10 CL1  UNL     1      26.627  18.976   7.804  1.00  0.00     0.006 Cl
ATOM     11  H1  UNL     1      25.097  17.753   6.521  1.00  0.00     0.174 HD
ENDBRANCH   5   9
TORSDOF 1
ENDMDL
MODEL 4
REMARK VINA RESULT: -5.891759142      1.106      1.656
REMARK  1 active torsions:
REMARK  status: ('A' for Active; 'I' for Inactive)
REMARK    1  A    between atoms: C3_5  and  N1_6 
ROOT
HETATM    1  F1  UNL     1      27.811  15.287   3.716  1.00  0.00    -0.199 F 
HETATM    2  C1  UNL     1      27.489  16.623   3.883  1.00  0.00     0.312 C 
HETATM    3  F2  UNL     1      27.434  17.301   2.704  1.00  0.00    -0.199 F 
HETATM    4  C2  UNL     1      26.286  16.886   4.740  1.00  0.00     0.118 C 
HETATM    5  C3  UNL     1      27.142  17.870   5.544  1.00  0.00     0.178 C 
HETATM    6  C4  UNL     1      28.350  17.257   4.964  1.00  0.00     0.328 C 
HETATM    7  F3  UNL     1      29.224  18.154   4.370  1.00  0.00    -0.197 F 
HETATM    8  F4  UNL     1      29.051  16.365   5.738  1.00  0.00    -0.197 F 
ENDROOT
BRANCH   5   9
HETATM    9  N1  UNL     1      26.876  17.713   6.923  1.00  0.00    -0.323 N 
HETATM   10 CL1  UNL     1      26.564  19.041   7.869  1.00  0.00     0.006 Cl
ATOM     11  H1  UNL     1      26.874  16.781   7.338  1.00  0.00     0.174 HD
ENDBRANCH   5   9
TORSDOF 1
ENDMDL
MODEL 5
REMARK VINA RESULT: -5.615436110      1.515      2.414
REMARK  1 active torsions:
REMARK  status: ('A' for Active; 'I' for Inactive)
REMARK    1  A    between atoms: C3_5  and  N1_6 
ROOT
HETATM    1  F1  UNL     1      27.136  16.196   3.996  1.00  0.00    -0.199 F 
HETATM    2  C1  UNL     1      27.770  16.638   5.144  1.00  0.00     0.312 C 
HETATM    3  F2  UNL     1      28.873  15.901   5.453  1.00  0.00    -0.199 F 
HETATM    4  C2  UNL     1      28.047  18.112   5.194  1.00  0.00     0.118 C 
HETATM    5  C3  UNL     1      27.381  18.136   6.573  1.00  0.00     0.178 C 
HETATM    6  C4  UNL     1      26.772  16.828   6.276  1.00  0.00     0.328 C 
HETATM    7  F3  UNL     1      26.997  15.854   7.238  1.00  0.00    -0.197 F 
HETATM    8  F4  UNL     1      25.454  16.806   5.891  1.00  0.00    -0.197 F 
ENDROOT
BRANCH   5   9
HETATM    9  N1  UNL     1      26.557  19.278   6.681  1.00  0.00    -0.323 N 
HETATM   10 CL1  UNL     1      27.227  20.764   7.000  1.00  0.00     0.006 Cl
ATOM     11  H1  UNL     1      25.548  19.191   6.563  1.00  0.00     0.174 HD
ENDBRANCH   5   9
TORSDOF 1
ENDMDL
