MODEL 1
REMARK VINA RESULT: -8.221023845      0.000      0.000
REMARK  9 active torsions:
REMARK  status: ('A' for Active; 'I' for Inactive)
REMARK    1  A    between atoms: C9_12  and  C10_13 
REMARK    2  A    between atoms: C10_13  and  C11_14 
REMARK    3  A    between atoms: C11_14  and  C12_15 
REMARK    4  A    between atoms: C22_30  and  C23_31 
REMARK    5  A    between atoms: C23_31  and  C24_32 
REMARK    6  A    between atoms: C24_32  and  C25_33 
REMARK    7  A    between atoms: C25_33  and  C26_34 
REMARK    8  A    between atoms: C26_34  and  C27_35 
REMARK    9  A    between atoms: C27_35  and  C28_36 
ROOT
HETATM    1  C1  UNL     1      17.717  43.400   4.943  1.00  0.00     0.044 C 
HETATM    2  C2  UNL     1      17.886  43.526   3.652  1.00  0.00     0.036 A 
HETATM    3  N1  UNL     1      19.181  43.600   3.212  1.00  0.00    -0.354 N 
ATOM      4  H1  UNL     1      19.940  43.553   3.891  1.00  0.00     0.166 HD
HETATM    5  C3  UNL     1      19.474  43.731   1.920  1.00  0.00     0.073 A 
HETATM    6  C4  UNL     1      18.446  43.795   0.972  1.00  0.00     0.046 A 
HETATM    7  C5  UNL     1      17.133  43.725   1.369  1.00  0.00     0.196 A 
HETATM    8  O1  UNL     1      16.173  43.778   0.559  1.00  0.00    -0.287 OA
HETATM    9  C6  UNL     1      16.871  43.588   2.734  1.00  0.00     0.031 A 
HETATM   10  C7  UNL     1      15.621  43.520   3.134  1.00  0.00     0.030 C 
HETATM   11  C8  UNL     1      18.766  43.938  -0.439  1.00  0.00     0.047 A 
HETATM   12  C9  UNL     1      19.968  44.017  -0.944  1.00  0.00     0.030 A 
HETATM   13  N3  UNL     1      21.049  43.949   0.041  1.00  0.00    -0.355 N 
ATOM     14  H3  UNL     1      22.007  44.005  -0.305  1.00  0.00     0.166 HD
HETATM   15  C21 UNL     1      20.865  43.812   1.419  1.00  0.00     0.056 A 
HETATM   16  C22 UNL     1      21.863  43.760   2.281  1.00  0.00     0.005 C 
ENDROOT
BRANCH  12  17
HETATM   17  C10 UNL     1      20.396  44.160  -2.295  1.00  0.00     0.007 C 
BRANCH  17  18
HETATM   18  C11 UNL     1      21.365  45.062  -2.855  1.00  0.00     0.074 C 
BRANCH  18  19
HETATM   19  C12 UNL     1      21.647  45.083  -4.303  1.00  0.00     0.026 A 
HETATM   20  C13 UNL     1      21.906  46.254  -4.976  1.00  0.00     0.003 A 
HETATM   21  C14 UNL     1      21.959  47.545  -4.494  1.00  0.00     0.021 A 
HETATM   22  C19 UNL     1      22.100  45.951  -6.283  1.00  0.00     0.046 A 
HETATM   23  C15 UNL     1      22.217  48.584  -5.349  1.00  0.00    -0.061 A 
HETATM   24  C16 UNL     1      22.284  50.009  -4.863  1.00  0.00     0.048 C 
HETATM   25  C17 UNL     1      22.419  48.308  -6.682  1.00  0.00     0.009 A 
HETATM   26  C18 UNL     1      22.364  47.017  -7.156  1.00  0.00     0.031 A 
HETATM   27  N2  UNL     1      21.999  44.714  -6.548  1.00  0.00    -0.322 N 
HETATM   28  C20 UNL     1      21.701  44.057  -5.292  1.00  0.00     0.253 A 
ATOM     29  H2  UNL     1      22.107  44.272  -7.461  1.00  0.00     0.169 HD
HETATM   30  O2  UNL     1      21.542  42.834  -5.189  1.00  0.00    -0.268 OA
ENDBRANCH  18  19
ENDBRANCH  17  18
ENDBRANCH  12  17
BRANCH  16  31
HETATM   31  C23 UNL     1      23.312  43.826   1.962  1.00  0.00     0.029 C 
BRANCH  31  32
HETATM   32  C24 UNL     1      23.973  44.926   2.790  1.00  0.00     0.004 C 
BRANCH  32  33
HETATM   33  C25 UNL     1      24.758  45.866   1.965  1.00  0.00     0.001 C 
BRANCH  33  34
HETATM   34  C26 UNL     1      25.985  46.476   2.492  1.00  0.00     0.010 C 
BRANCH  34  35
HETATM   35  C27 UNL     1      25.960  47.837   3.078  1.00  0.00     0.113 C 
BRANCH  35  36
HETATM   36  C28 UNL     1      25.930  47.936   4.526  1.00  0.00     0.172 C 
HETATM   37  O3  UNL     1      26.318  46.930   5.222  1.00  0.00    -0.648 OA
HETATM   38  O4  UNL     1      25.517  49.021   5.256  1.00  0.00    -0.648 OA
ENDBRANCH  35  36
ENDBRANCH  34  35
ENDBRANCH  33  34
ENDBRANCH  32  33
ENDBRANCH  31  32
ENDBRANCH  16  31
TORSDOF 9
ENDMDL
MODEL 2
REMARK VINA RESULT: -8.065176310      1.488      2.111
REMARK  9 active torsions:
REMARK  status: ('A' for Active; 'I' for Inactive)
REMARK    1  A    between atoms: C9_12  and  C10_13 
REMARK    2  A    between atoms: C10_13  and  C11_14 
REMARK    3  A    between atoms: C11_14  and  C12_15 
REMARK    4  A    between atoms: C22_30  and  C23_31 
REMARK    5  A    between atoms: C23_31  and  C24_32 
REMARK    6  A    between atoms: C24_32  and  C25_33 
REMARK    7  A    between atoms: C25_33  and  C26_34 
REMARK    8  A    between atoms: C26_34  and  C27_35 
REMARK    9  A    between atoms: C27_35  and  C28_36 
ROOT
HETATM    1  C1  UNL     1      19.141  43.933   4.142  1.00  0.00     0.044 C 
HETATM    2  C2  UNL     1      19.124  43.787   2.842  1.00  0.00     0.036 A 
HETATM    3  N1  UNL     1      20.338  43.839   2.208  1.00  0.00    -0.354 N 
ATOM      4  H1  UNL     1      21.182  43.985   2.762  1.00  0.00     0.166 HD
HETATM    5  C3  UNL     1      20.444  43.704   0.889  1.00  0.00     0.073 A 
HETATM    6  C4  UNL     1      19.297  43.501   0.112  1.00  0.00     0.046 A 
HETATM    7  C5  UNL     1      18.060  43.442   0.706  1.00  0.00     0.196 A 
HETATM    8  O1  UNL     1      16.999  43.262   0.054  1.00  0.00    -0.287 OA
HETATM    9  C6  UNL     1      17.995  43.589   2.093  1.00  0.00     0.031 A 
HETATM   10  C7  UNL     1      16.820  43.536   2.680  1.00  0.00     0.030 C 
HETATM   11  C8  UNL     1      19.412  43.353  -1.330  1.00  0.00     0.047 A 
HETATM   12  C9  UNL     1      20.524  43.390  -2.014  1.00  0.00     0.030 A 
HETATM   13  N3  UNL     1      21.728  43.600  -1.209  1.00  0.00    -0.355 N 
ATOM     14  H3  UNL     1      22.623  43.636  -1.697  1.00  0.00     0.166 HD
HETATM   15  C21 UNL     1      21.743  43.756   0.180  1.00  0.00     0.056 A 
HETATM   16  C22 UNL     1      22.847  43.950   0.875  1.00  0.00     0.005 C 
ENDROOT
BRANCH  12  17
HETATM   17  C10 UNL     1      20.754  43.262  -3.414  1.00  0.00     0.007 C 
BRANCH  17  18
HETATM   18  C11 UNL     1      21.862  43.726  -4.203  1.00  0.00     0.074 C 
BRANCH  18  19
HETATM   19  C12 UNL     1      22.126  45.166  -4.383  1.00  0.00     0.026 A 
HETATM   20  C13 UNL     1      22.009  45.779  -5.609  1.00  0.00     0.003 A 
HETATM   21  C14 UNL     1      21.650  45.238  -6.826  1.00  0.00     0.021 A 
HETATM   22  C19 UNL     1      22.337  47.085  -5.456  1.00  0.00     0.046 A 
HETATM   23  C15 UNL     1      21.614  46.029  -7.942  1.00  0.00    -0.061 A 
HETATM   24  C16 UNL     1      21.228  45.478  -9.290  1.00  0.00     0.048 C 
HETATM   25  C17 UNL     1      21.941  47.361  -7.819  1.00  0.00     0.009 A 
HETATM   26  C18 UNL     1      22.298  47.894  -6.602  1.00  0.00     0.031 A 
HETATM   27  N2  UNL     1      22.655  47.404  -4.270  1.00  0.00    -0.322 N 
HETATM   28  C20 UNL     1      22.542  46.192  -3.485  1.00  0.00     0.253 A 
ATOM     29  H2  UNL     1      22.933  48.327  -3.936  1.00  0.00     0.169 HD
HETATM   30  O2  UNL     1      22.780  46.148  -2.270  1.00  0.00    -0.268 OA
ENDBRANCH  18  19
ENDBRANCH  17  18
ENDBRANCH  12  17
BRANCH  16  31
HETATM   31  C23 UNL     1      24.229  44.029   0.337  1.00  0.00     0.029 C 
BRANCH  31  32
HETATM   32  C24 UNL     1      25.192  44.443   1.449  1.00  0.00     0.004 C 
BRANCH  32  33
HETATM   33  C25 UNL     1      25.126  45.887   1.750  1.00  0.00     0.001 C 
BRANCH  33  34
HETATM   34  C26 UNL     1      26.079  46.497   2.687  1.00  0.00     0.010 C 
BRANCH  34  35
HETATM   35  C27 UNL     1      25.868  47.877   3.183  1.00  0.00     0.113 C 
BRANCH  35  36
HETATM   36  C28 UNL     1      25.943  48.085   4.619  1.00  0.00     0.172 C 
HETATM   37  O3  UNL     1      26.414  47.146   5.355  1.00  0.00    -0.648 OA
HETATM   38  O4  UNL     1      25.547  49.210   5.296  1.00  0.00    -0.648 OA
ENDBRANCH  35  36
ENDBRANCH  34  35
ENDBRANCH  33  34
ENDBRANCH  32  33
ENDBRANCH  31  32
ENDBRANCH  16  31
TORSDOF 9
ENDMDL
MODEL 3
REMARK VINA RESULT: -8.054772868      1.688      2.608
REMARK  9 active torsions:
REMARK  status: ('A' for Active; 'I' for Inactive)
REMARK    1  A    between atoms: C9_12  and  C10_13 
REMARK    2  A    between atoms: C10_13  and  C11_14 
REMARK    3  A    between atoms: C11_14  and  C12_15 
REMARK    4  A    between atoms: C22_30  and  C23_31 
REMARK    5  A    between atoms: C23_31  and  C24_32 
REMARK    6  A    between atoms: C24_32  and  C25_33 
REMARK    7  A    between atoms: C25_33  and  C26_34 
REMARK    8  A    between atoms: C26_34  and  C27_35 
REMARK    9  A    between atoms: C27_35  and  C28_36 
ROOT
HETATM    1  C1  UNL     1      19.198  42.909   4.116  1.00  0.00     0.044 C 
HETATM    2  C2  UNL     1      19.210  43.302   2.868  1.00  0.00     0.036 A 
HETATM    3  N1  UNL     1      20.443  43.476   2.297  1.00  0.00    -0.354 N 
ATOM      4  H1  UNL     1      21.278  43.296   2.854  1.00  0.00     0.166 HD
HETATM    5  C3  UNL     1      20.579  43.873   1.034  1.00  0.00     0.073 A 
HETATM    6  C4  UNL     1      19.444  44.124   0.254  1.00  0.00     0.046 A 
HETATM    7  C5  UNL     1      18.188  43.962   0.786  1.00  0.00     0.196 A 
HETATM    8  O1  UNL     1      17.137  44.174   0.129  1.00  0.00    -0.287 OA
HETATM    9  C6  UNL     1      18.092  43.543   2.115  1.00  0.00     0.031 A 
HETATM   10  C7  UNL     1      16.898  43.384   2.642  1.00  0.00     0.030 C 
HETATM   11  C8  UNL     1      19.591  44.559  -1.126  1.00  0.00     0.047 A 
HETATM   12  C9  UNL     1      20.724  44.750  -1.748  1.00  0.00     0.030 A 
HETATM   13  N3  UNL     1      21.916  44.488  -0.939  1.00  0.00    -0.355 N 
ATOM     14  H3  UNL     1      22.826  44.622  -1.380  1.00  0.00     0.166 HD
HETATM   15  C21 UNL     1      21.899  44.068   0.394  1.00  0.00     0.056 A 
HETATM   16  C22 UNL     1      22.994  43.847   1.097  1.00  0.00     0.005 C 
ENDROOT
BRANCH  12  17
HETATM   17  C10 UNL     1      20.986  45.173  -3.082  1.00  0.00     0.007 C 
BRANCH  17  18
HETATM   18  C11 UNL     1      22.057  45.988  -3.588  1.00  0.00     0.074 C 
BRANCH  18  19
HETATM   19  C12 UNL     1      21.938  46.699  -4.876  1.00  0.00     0.026 A 
HETATM   20  C13 UNL     1      21.832  46.025  -6.070  1.00  0.00     0.003 A 
HETATM   21  C14 UNL     1      21.811  44.667  -6.308  1.00  0.00     0.021 A 
HETATM   22  C19 UNL     1      21.763  46.945  -7.063  1.00  0.00     0.046 A 
HETATM   23  C15 UNL     1      21.717  44.199  -7.591  1.00  0.00    -0.061 A 
HETATM   24  C16 UNL     1      21.691  42.723  -7.895  1.00  0.00     0.048 C 
HETATM   25  C17 UNL     1      21.645  45.108  -8.622  1.00  0.00     0.009 A 
HETATM   26  C18 UNL     1      21.667  46.462  -8.377  1.00  0.00     0.031 A 
HETATM   27  N2  UNL     1      21.811  48.147  -6.661  1.00  0.00    -0.322 N 
HETATM   28  C20 UNL     1      21.926  48.083  -5.218  1.00  0.00     0.253 A 
ATOM     29  H2  UNL     1      21.776  48.988  -7.236  1.00  0.00     0.169 HD
HETATM   30  O2  UNL     1      21.993  49.088  -4.500  1.00  0.00    -0.268 OA
ENDBRANCH  18  19
ENDBRANCH  17  18
ENDBRANCH  12  17
BRANCH  16  31
HETATM   31  C23 UNL     1      24.394  43.989   0.622  1.00  0.00     0.029 C 
BRANCH  31  32
HETATM   32  C24 UNL     1      25.265  44.548   1.747  1.00  0.00     0.004 C 
BRANCH  32  33
HETATM   33  C25 UNL     1      25.030  45.985   1.988  1.00  0.00     0.001 C 
BRANCH  33  34
HETATM   34  C26 UNL     1      26.153  46.886   2.280  1.00  0.00     0.010 C 
BRANCH  34  35
HETATM   35  C27 UNL     1      25.946  48.113   3.083  1.00  0.00     0.113 C 
BRANCH  35  36
HETATM   36  C28 UNL     1      25.949  47.970   4.529  1.00  0.00     0.172 C 
HETATM   37  O3  UNL     1      25.566  48.961   5.248  1.00  0.00    -0.648 OA
HETATM   38  O4  UNL     1      26.334  46.858   5.232  1.00  0.00    -0.648 OA
ENDBRANCH  35  36
ENDBRANCH  34  35
ENDBRANCH  33  34
ENDBRANCH  32  33
ENDBRANCH  31  32
ENDBRANCH  16  31
TORSDOF 9
ENDMDL
MODEL 4
REMARK VINA RESULT: -8.052375182      1.396      1.704
REMARK  9 active torsions:
REMARK  status: ('A' for Active; 'I' for Inactive)
REMARK    1  A    between atoms: C9_12  and  C10_13 
REMARK    2  A    between atoms: C10_13  and  C11_14 
REMARK    3  A    between atoms: C11_14  and  C12_15 
REMARK    4  A    between atoms: C22_30  and  C23_31 
REMARK    5  A    between atoms: C23_31  and  C24_32 
REMARK    6  A    between atoms: C24_32  and  C25_33 
REMARK    7  A    between atoms: C25_33  and  C26_34 
REMARK    8  A    between atoms: C26_34  and  C27_35 
REMARK    9  A    between atoms: C27_35  and  C28_36 
ROOT
HETATM    1  C1  UNL     1      20.417  43.700   5.609  1.00  0.00     0.044 C 
HETATM    2  C2  UNL     1      20.201  43.726   4.319  1.00  0.00     0.036 A 
HETATM    3  N1  UNL     1      21.307  43.833   3.518  1.00  0.00    -0.354 N 
ATOM      4  H1  UNL     1      22.229  43.885   3.950  1.00  0.00     0.166 HD
HETATM    5  C3  UNL     1      21.209  43.870   2.191  1.00  0.00     0.073 A 
HETATM    6  C4  UNL     1      19.951  43.798   1.581  1.00  0.00     0.046 A 
HETATM    7  C5  UNL     1      18.816  43.690   2.345  1.00  0.00     0.196 A 
HETATM    8  O1  UNL     1      17.662  43.622   1.847  1.00  0.00    -0.287 OA
HETATM    9  C6  UNL     1      18.964  43.655   3.733  1.00  0.00     0.031 A 
HETATM   10  C7  UNL     1      17.889  43.553   4.482  1.00  0.00     0.030 C 
HETATM   11  C8  UNL     1      19.843  43.838   0.131  1.00  0.00     0.047 A 
HETATM   12  C9  UNL     1      20.842  43.939  -0.705  1.00  0.00     0.030 A 
HETATM   13  N3  UNL     1      22.160  44.013  -0.074  1.00  0.00    -0.355 N 
ATOM     14  H3  UNL     1      22.973  44.092  -0.686  1.00  0.00     0.166 HD
HETATM   15  C21 UNL     1      22.389  43.984   1.304  1.00  0.00     0.056 A 
HETATM   16  C22 UNL     1      23.592  44.059   1.840  1.00  0.00     0.005 C 
ENDROOT
BRANCH  12  17
HETATM   17  C10 UNL     1      20.854  43.990  -2.128  1.00  0.00     0.007 C 
BRANCH  17  18
HETATM   18  C11 UNL     1      20.829  45.133  -3.001  1.00  0.00     0.074 C 
BRANCH  18  19
HETATM   19  C12 UNL     1      21.502  45.111  -4.314  1.00  0.00     0.026 A 
HETATM   20  C13 UNL     1      21.920  46.264  -4.935  1.00  0.00     0.003 A 
HETATM   21  C14 UNL     1      21.818  47.572  -4.511  1.00  0.00     0.021 A 
HETATM   22  C19 UNL     1      22.475  45.921  -6.123  1.00  0.00     0.046 A 
HETATM   23  C15 UNL     1      22.287  48.587  -5.301  1.00  0.00    -0.061 A 
HETATM   24  C16 UNL     1      22.195  50.029  -4.875  1.00  0.00     0.048 C 
HETATM   25  C17 UNL     1      22.857  48.270  -6.514  1.00  0.00     0.009 A 
HETATM   26  C18 UNL     1      22.955  46.963  -6.931  1.00  0.00     0.031 A 
HETATM   27  N2  UNL     1      22.471  44.673  -6.356  1.00  0.00    -0.322 N 
HETATM   28  C20 UNL     1      21.844  44.053  -5.206  1.00  0.00     0.253 A 
ATOM     29  H2  UNL     1      22.835  44.203  -7.184  1.00  0.00     0.169 HD
HETATM   30  O2  UNL     1      21.682  42.830  -5.102  1.00  0.00    -0.268 OA
ENDBRANCH  18  19
ENDBRANCH  17  18
ENDBRANCH  12  17
BRANCH  16  31
HETATM   31  C23 UNL     1      24.880  44.176   1.111  1.00  0.00     0.029 C 
BRANCH  31  32
HETATM   32  C24 UNL     1      25.909  44.882   1.993  1.00  0.00     0.004 C 
BRANCH  32  33
HETATM   33  C25 UNL     1      25.647  46.329   2.127  1.00  0.00     0.001 C 
BRANCH  33  34
HETATM   34  C26 UNL     1      25.651  46.969   3.449  1.00  0.00     0.010 C 
BRANCH  34  35
HETATM   35  C27 UNL     1      25.634  46.148   4.682  1.00  0.00     0.113 C 
BRANCH  35  36
HETATM   36  C28 UNL     1      24.338  45.857   5.269  1.00  0.00     0.172 C 
HETATM   37  O3  UNL     1      24.283  45.506   6.502  1.00  0.00    -0.648 OA
HETATM   38  O4  UNL     1      23.127  45.913   4.628  1.00  0.00    -0.648 OA
ENDBRANCH  35  36
ENDBRANCH  34  35
ENDBRANCH  33  34
ENDBRANCH  32  33
ENDBRANCH  31  32
ENDBRANCH  16  31
TORSDOF 9
ENDMDL
MODEL 5
REMARK VINA RESULT: -7.828737005      3.955      6.196
REMARK  9 active torsions:
REMARK  status: ('A' for Active; 'I' for Inactive)
REMARK    1  A    between atoms: C9_12  and  C10_13 
REMARK    2  A    between atoms: C10_13  and  C11_14 
REMARK    3  A    between atoms: C11_14  and  C12_15 
REMARK    4  A    between atoms: C22_30  and  C23_31 
REMARK    5  A    between atoms: C23_31  and  C24_32 
REMARK    6  A    between atoms: C24_32  and  C25_33 
REMARK    7  A    between atoms: C25_33  and  C26_34 
REMARK    8  A    between atoms: C26_34  and  C27_35 
REMARK    9  A    between atoms: C27_35  and  C28_36 
ROOT
HETATM    1  C1  UNL     1      26.901  40.020  -2.539  1.00  0.00     0.044 C 
HETATM    2  C2  UNL     1      26.245  41.086  -2.914  1.00  0.00     0.036 A 
HETATM    3  N1  UNL     1      25.573  41.765  -1.931  1.00  0.00    -0.354 N 
ATOM      4  H1  UNL     1      25.614  41.419  -0.972  1.00  0.00     0.166 HD
HETATM    5  C3  UNL     1      24.870  42.863  -2.194  1.00  0.00     0.073 A 
HETATM    6  C4  UNL     1      24.804  43.355  -3.503  1.00  0.00     0.046 A 
HETATM    7  C5  UNL     1      25.462  42.707  -4.520  1.00  0.00     0.196 A 
HETATM    8  O1  UNL     1      25.434  43.105  -5.712  1.00  0.00    -0.287 OA
HETATM    9  C6  UNL     1      26.188  41.557  -4.199  1.00  0.00     0.031 A 
HETATM   10  C7  UNL     1      26.823  40.923  -5.158  1.00  0.00     0.030 C 
HETATM   11  C8  UNL     1      24.036  44.555  -3.792  1.00  0.00     0.047 A 
HETATM   12  C9  UNL     1      23.367  45.261  -2.919  1.00  0.00     0.030 A 
HETATM   13  N3  UNL     1      23.433  44.754  -1.547  1.00  0.00    -0.355 N 
ATOM     14  H3  UNL     1      22.928  45.272  -0.828  1.00  0.00     0.166 HD
HETATM   15  C21 UNL     1      24.137  43.614  -1.150  1.00  0.00     0.056 A 
HETATM   16  C22 UNL     1      24.170  43.182   0.096  1.00  0.00     0.005 C 
ENDROOT
BRANCH  12  17
HETATM   17  C10 UNL     1      22.585  46.439  -3.086  1.00  0.00     0.007 C 
BRANCH  17  18
HETATM   18  C11 UNL     1      21.650  46.773  -4.126  1.00  0.00     0.074 C 
BRANCH  18  19
HETATM   19  C12 UNL     1      22.036  47.641  -5.256  1.00  0.00     0.026 A 
HETATM   20  C13 UNL     1      22.363  47.125  -6.488  1.00  0.00     0.003 A 
HETATM   21  C14 UNL     1      22.397  45.811  -6.905  1.00  0.00     0.021 A 
HETATM   22  C19 UNL     1      22.692  48.160  -7.299  1.00  0.00     0.046 A 
HETATM   23  C15 UNL     1      22.775  45.509  -8.186  1.00  0.00    -0.061 A 
HETATM   24  C16 UNL     1      22.825  44.087  -8.681  1.00  0.00     0.048 C 
HETATM   25  C17 UNL     1      23.114  46.539  -9.034  1.00  0.00     0.009 A 
HETATM   26  C18 UNL     1      23.078  47.848  -8.612  1.00  0.00     0.031 A 
HETATM   27  N2  UNL     1      22.618  49.298  -6.743  1.00  0.00    -0.322 N 
HETATM   28  C20 UNL     1      22.187  49.053  -5.382  1.00  0.00     0.253 A 
ATOM     29  H2  UNL     1      22.820  50.203  -7.168  1.00  0.00     0.169 HD
HETATM   30  O2  UNL     1      22.008  49.957  -4.556  1.00  0.00    -0.268 OA
ENDBRANCH  18  19
ENDBRANCH  17  18
ENDBRANCH  12  17
BRANCH  16  31
HETATM   31  C23 UNL     1      23.500  43.803   1.267  1.00  0.00     0.029 C 
BRANCH  31  32
HETATM   32  C24 UNL     1      24.542  44.477   2.160  1.00  0.00     0.004 C 
BRANCH  32  33
HETATM   33  C25 UNL     1      24.866  45.849   1.720  1.00  0.00     0.001 C 
BRANCH  33  34
HETATM   34  C26 UNL     1      26.063  46.531   2.228  1.00  0.00     0.010 C 
BRANCH  34  35
HETATM   35  C27 UNL     1      25.947  47.821   2.947  1.00  0.00     0.113 C 
BRANCH  35  36
HETATM   36  C28 UNL     1      25.935  47.774   4.398  1.00  0.00     0.172 C 
HETATM   37  O3  UNL     1      25.554  48.814   5.047  1.00  0.00    -0.648 OA
HETATM   38  O4  UNL     1      26.301  46.707   5.178  1.00  0.00    -0.648 OA
ENDBRANCH  35  36
ENDBRANCH  34  35
ENDBRANCH  33  34
ENDBRANCH  32  33
ENDBRANCH  31  32
ENDBRANCH  16  31
TORSDOF 9
ENDMDL
