MODEL 1
REMARK VINA RESULT: -6.120452006      0.000      0.000
REMARK  9 active torsions:
REMARK  status: ('A' for Active; 'I' for Inactive)
REMARK    1  A    between atoms: N1_6  and  C4_7 
REMARK    2  A    between atoms: C4_7  and  C5_8 
REMARK    3  A    between atoms: C5_8  and  N2_9 
REMARK    4  A    between atoms: N2_9  and  C8_12 
REMARK    5  A    between atoms: C8_12  and  C9_13 
REMARK    6  A    between atoms: C9_13  and  C10_14 
REMARK    7  A    between atoms: C10_14  and  N3_15 
REMARK    8  A    between atoms: N3_15  and  C11_18 
REMARK    9  A    between atoms: C21_31  and  C22_32 
ROOT
HETATM    1  C1  UNL     1      19.180  45.086  -0.382  1.00  0.00     0.011 C 
HETATM    2  C2  UNL     1      19.541  43.895  -1.291  1.00  0.00     0.008 C 
HETATM    3  C3  UNL     1      20.370  44.369  -2.388  1.00  0.00     0.144 C 
HETATM    4  S1  UNL     1      21.592  43.302  -3.087  1.00  0.00     0.210 S 
HETATM    5  O1  UNL     1      21.103  42.393  -4.158  1.00  0.00    -0.229 OA
HETATM    6  N1  UNL     1      22.698  42.625  -1.965  1.00  0.00     0.013 N 
HETATM    7  C17 UNL     1      22.113  41.552  -1.291  1.00  0.00     0.255 C 
HETATM    8  C18 UNL     1      20.628  41.634  -1.080  1.00  0.00     0.043 C 
HETATM    9  C19 UNL     1      20.078  42.819  -0.404  1.00  0.00     0.084 C 
HETATM   10  C20 UNL     1      20.914  43.360   0.700  1.00  0.00     0.223 C 
HETATM   11  O2  UNL     1      20.268  43.772   1.726  1.00  0.00    -0.273 OA
HETATM   12  N4  UNL     1      22.287  43.590   0.962  1.00  0.00    -0.345 N 
ATOM     13  H4  UNL     1      22.427  44.029   1.873  1.00  0.00     0.163 HD
HETATM   14  C21 UNL     1      23.564  43.362   0.268  1.00  0.00     0.212 C 
HETATM   15  C23 UNL     1      23.192  43.725  -1.172  1.00  0.00     0.290 C 
ENDROOT
BRANCH   6  16
HETATM   16  C4  UNL     1      23.954  42.175  -2.626  1.00  0.00     0.282 C 
BRANCH  16  17
HETATM   17  C5  UNL     1      24.528  43.239  -3.447  1.00  0.00     0.265 C 
BRANCH  17  18
HETATM   18  N2  UNL     1      24.945  42.688  -4.779  1.00  0.00    -0.073 N 
HETATM   19  C6  UNL     1      24.422  41.427  -5.018  1.00  0.00     0.272 C 
HETATM   20  C7  UNL     1      26.434  42.466  -4.602  1.00  0.00     0.272 C 
BRANCH  18  21
HETATM   21  C8  UNL     1      24.859  43.725  -5.717  1.00  0.00     0.238 C 
BRANCH  21  22
HETATM   22  C9  UNL     1      23.747  43.876  -6.680  1.00  0.00     0.055 C 
BRANCH  22  23
HETATM   23  C10 UNL     1      22.742  44.962  -6.357  1.00  0.00     0.234 C 
BRANCH  23  24
HETATM   24  N3  UNL     1      23.432  46.186  -6.034  1.00  0.00    -0.071 N 
ATOM     25  H32 UNL     1      23.989  46.077  -5.187  1.00  0.00     0.277 HD
ATOM     26  H31 UNL     1      24.181  46.369  -6.703  1.00  0.00     0.277 HD
BRANCH  24  27
HETATM   27  C11 UNL     1      22.554  47.310  -5.928  1.00  0.00     0.185 C 
HETATM   28  C12 UNL     1      21.975  47.556  -4.573  1.00  0.00     0.033 C 
HETATM   29  C13 UNL     1      21.339  48.938  -4.605  1.00  0.00     0.002 C 
HETATM   30  C14 UNL     1      22.464  49.948  -4.762  1.00  0.00     0.000 C 
HETATM   31  C15 UNL     1      23.292  49.704  -5.984  1.00  0.00     0.002 C 
HETATM   32  C16 UNL     1      22.894  48.493  -6.756  1.00  0.00     0.033 C 
ENDBRANCH  24  27
ENDBRANCH  23  24
ENDBRANCH  22  23
ENDBRANCH  21  22
ENDBRANCH  18  21
ENDBRANCH  17  18
ENDBRANCH  16  17
ENDBRANCH   6  16
BRANCH  14  33
HETATM   33  C22 UNL     1      24.363  44.569   0.684  1.00  0.00     0.198 C 
HETATM   34  O3  UNL     1      24.141  45.661   0.063  1.00  0.00    -0.646 OA
HETATM   35  O4  UNL     1      25.294  44.560   1.707  1.00  0.00    -0.646 OA
ENDBRANCH  14  33
TORSDOF 9
ENDMDL
MODEL 2
REMARK VINA RESULT: -6.092908437      1.942      3.323
REMARK  9 active torsions:
REMARK  status: ('A' for Active; 'I' for Inactive)
REMARK    1  A    between atoms: N1_6  and  C4_7 
REMARK    2  A    between atoms: C4_7  and  C5_8 
REMARK    3  A    between atoms: C5_8  and  N2_9 
REMARK    4  A    between atoms: N2_9  and  C8_12 
REMARK    5  A    between atoms: C8_12  and  C9_13 
REMARK    6  A    between atoms: C9_13  and  C10_14 
REMARK    7  A    between atoms: C10_14  and  N3_15 
REMARK    8  A    between atoms: N3_15  and  C11_18 
REMARK    9  A    between atoms: C21_31  and  C22_32 
ROOT
HETATM    1  C1  UNL     1      19.956  43.672   0.873  1.00  0.00     0.011 C 
HETATM    2  C2  UNL     1      20.640  44.551  -0.192  1.00  0.00     0.008 C 
HETATM    3  C3  UNL     1      22.079  44.357  -0.116  1.00  0.00     0.144 C 
HETATM    4  S1  UNL     1      23.061  44.492  -1.578  1.00  0.00     0.210 S 
HETATM    5  O1  UNL     1      23.501  45.871  -1.922  1.00  0.00    -0.229 OA
HETATM    6  N1  UNL     1      22.556  43.508  -2.889  1.00  0.00     0.013 N 
HETATM    7  C17 UNL     1      21.465  44.085  -3.540  1.00  0.00     0.255 C 
HETATM    8  C18 UNL     1      20.541  44.902  -2.683  1.00  0.00     0.043 C 
HETATM    9  C19 UNL     1      19.951  44.277  -1.490  1.00  0.00     0.084 C 
HETATM   10  C20 UNL     1      19.584  42.845  -1.644  1.00  0.00     0.223 C 
HETATM   11  O2  UNL     1      18.489  42.495  -1.081  1.00  0.00    -0.273 OA
HETATM   12  N4  UNL     1      20.125  41.681  -2.242  1.00  0.00    -0.345 N 
ATOM     13  H4  UNL     1      19.538  40.864  -2.074  1.00  0.00     0.163 HD
HETATM   14  C21 UNL     1      21.312  41.339  -3.043  1.00  0.00     0.212 C 
HETATM   15  C23 UNL     1      22.390  42.178  -2.354  1.00  0.00     0.290 C 
ENDROOT
BRANCH   6  16
HETATM   16  C4  UNL     1      23.656  43.277  -3.866  1.00  0.00     0.282 C 
BRANCH  16  17
HETATM   17  C5  UNL     1      23.419  44.008  -5.109  1.00  0.00     0.265 C 
BRANCH  17  18
HETATM   18  N2  UNL     1      23.679  43.113  -6.285  1.00  0.00    -0.073 N 
HETATM   19  C6  UNL     1      23.600  41.769  -5.956  1.00  0.00     0.272 C 
HETATM   20  C7  UNL     1      25.145  43.358  -6.579  1.00  0.00     0.272 C 
BRANCH  18  21
HETATM   21  C8  UNL     1      23.010  43.655  -7.391  1.00  0.00     0.238 C 
BRANCH  21  22
HETATM   22  C9  UNL     1      21.719  44.370  -7.304  1.00  0.00     0.055 C 
BRANCH  22  23
HETATM   23  C10 UNL     1      21.675  45.728  -7.973  1.00  0.00     0.234 C 
BRANCH  23  24
HETATM   24  N3  UNL     1      21.087  46.694  -7.079  1.00  0.00    -0.071 N 
ATOM     25  H32 UNL     1      20.443  47.308  -7.578  1.00  0.00     0.277 HD
ATOM     26  H31 UNL     1      20.428  46.247  -6.441  1.00  0.00     0.277 HD
BRANCH  24  27
HETATM   27  C11 UNL     1      22.062  47.452  -6.358  1.00  0.00     0.185 C 
HETATM   28  C12 UNL     1      22.657  48.609  -7.092  1.00  0.00     0.033 C 
HETATM   29  C13 UNL     1      23.415  49.443  -6.069  1.00  0.00     0.002 C 
HETATM   30  C14 UNL     1      22.385  50.041  -5.125  1.00  0.00     0.000 C 
HETATM   31  C15 UNL     1      21.542  49.001  -4.457  1.00  0.00     0.002 C 
HETATM   32  C16 UNL     1      21.832  47.608  -4.900  1.00  0.00     0.033 C 
ENDBRANCH  24  27
ENDBRANCH  23  24
ENDBRANCH  22  23
ENDBRANCH  21  22
ENDBRANCH  18  21
ENDBRANCH  17  18
ENDBRANCH  16  17
ENDBRANCH   6  16
BRANCH  14  33
HETATM   33  C22 UNL     1      21.638  39.958  -2.539  1.00  0.00     0.198 C 
HETATM   34  O3  UNL     1      22.679  39.392  -3.015  1.00  0.00    -0.646 OA
HETATM   35  O4  UNL     1      20.894  39.290  -1.584  1.00  0.00    -0.646 OA
ENDBRANCH  14  33
TORSDOF 9
ENDMDL
MODEL 3
REMARK VINA RESULT: -5.988774578      3.396      7.438
REMARK  9 active torsions:
REMARK  status: ('A' for Active; 'I' for Inactive)
REMARK    1  A    between atoms: N1_6  and  C4_7 
REMARK    2  A    between atoms: C4_7  and  C5_8 
REMARK    3  A    between atoms: C5_8  and  N2_9 
REMARK    4  A    between atoms: N2_9  and  C8_12 
REMARK    5  A    between atoms: C8_12  and  C9_13 
REMARK    6  A    between atoms: C9_13  and  C10_14 
REMARK    7  A    between atoms: C10_14  and  N3_15 
REMARK    8  A    between atoms: N3_15  and  C11_18 
REMARK    9  A    between atoms: C21_31  and  C22_32 
ROOT
HETATM    1  C1  UNL     1      22.384  47.945 -10.888  1.00  0.00     0.011 C 
HETATM    2  C2  UNL     1      22.853  46.535 -10.480  1.00  0.00     0.008 C 
HETATM    3  C3  UNL     1      24.154  46.633  -9.838  1.00  0.00     0.144 C 
HETATM    4  S1  UNL     1      24.597  45.482  -8.573  1.00  0.00     0.210 S 
HETATM    5  O1  UNL     1      25.193  44.208  -9.057  1.00  0.00    -0.229 OA
HETATM    6  N1  UNL     1      23.480  45.354  -7.279  1.00  0.00     0.013 N 
HETATM    7  C17 UNL     1      22.392  44.563  -7.650  1.00  0.00     0.255 C 
HETATM    8  C18 UNL     1      22.012  44.602  -9.103  1.00  0.00     0.043 C 
HETATM    9  C19 UNL     1      21.729  45.906  -9.721  1.00  0.00     0.084 C 
HETATM   10  C20 UNL     1      21.022  46.879  -8.847  1.00  0.00     0.223 C 
HETATM   11  O2  UNL     1      20.128  47.588  -9.426  1.00  0.00    -0.273 OA
HETATM   12  N4  UNL     1      21.060  47.294  -7.493  1.00  0.00    -0.345 N 
ATOM     13  H4  UNL     1      20.396  48.047  -7.312  1.00  0.00     0.163 HD
HETATM   14  C21 UNL     1      21.805  46.926  -6.279  1.00  0.00     0.212 C 
HETATM   15  C23 UNL     1      23.210  46.703  -6.845  1.00  0.00     0.290 C 
ENDROOT
BRANCH   6  16
HETATM   16  C4  UNL     1      24.112  44.791  -6.054  1.00  0.00     0.282 C 
BRANCH  16  17
HETATM   17  C5  UNL     1      23.474  43.537  -5.660  1.00  0.00     0.265 C 
BRANCH  17  18
HETATM   18  N2  UNL     1      23.066  43.602  -4.218  1.00  0.00    -0.073 N 
HETATM   19  C6  UNL     1      23.251  42.397  -3.559  1.00  0.00     0.272 C 
HETATM   20  C7  UNL     1      21.563  43.777  -4.298  1.00  0.00     0.272 C 
BRANCH  18  21
HETATM   21  C8  UNL     1      23.527  44.819  -3.697  1.00  0.00     0.238 C 
BRANCH  21  22
HETATM   22  C9  UNL     1      22.831  45.578  -2.637  1.00  0.00     0.055 C 
BRANCH  22  23
HETATM   23  C10 UNL     1      23.207  45.217  -1.215  1.00  0.00     0.234 C 
BRANCH  23  24
HETATM   24  N3  UNL     1      22.037  45.251  -0.376  1.00  0.00    -0.071 N 
ATOM     25  H32 UNL     1      22.258  44.942   0.571  1.00  0.00     0.277 HD
ATOM     26  H31 UNL     1      21.759  46.213  -0.176  1.00  0.00     0.277 HD
BRANCH  24  27
HETATM   27  C11 UNL     1      20.941  44.505  -0.915  1.00  0.00     0.185 C 
HETATM   28  C12 UNL     1      20.987  43.030  -0.686  1.00  0.00     0.033 C 
HETATM   29  C13 UNL     1      19.616  42.480  -1.054  1.00  0.00     0.002 C 
HETATM   30  C14 UNL     1      18.625  43.025  -0.038  1.00  0.00     0.000 C 
HETATM   31  C15 UNL     1      18.614  44.520   0.012  1.00  0.00     0.002 C 
HETATM   32  C16 UNL     1      19.614  45.166  -0.885  1.00  0.00     0.033 C 
ENDBRANCH  24  27
ENDBRANCH  23  24
ENDBRANCH  22  23
ENDBRANCH  21  22
ENDBRANCH  18  21
ENDBRANCH  17  18
ENDBRANCH  16  17
ENDBRANCH   6  16
BRANCH  14  33
HETATM   33  C22 UNL     1      21.965  48.259  -5.597  1.00  0.00     0.198 C 
HETATM   34  O3  UNL     1      21.259  48.472  -4.555  1.00  0.00    -0.646 OA
HETATM   35  O4  UNL     1      22.842  49.242  -6.020  1.00  0.00    -0.646 OA
ENDBRANCH  14  33
TORSDOF 9
ENDMDL
MODEL 4
REMARK VINA RESULT: -5.935770108      3.506      7.282
REMARK  9 active torsions:
REMARK  status: ('A' for Active; 'I' for Inactive)
REMARK    1  A    between atoms: N1_6  and  C4_7 
REMARK    2  A    between atoms: C4_7  and  C5_8 
REMARK    3  A    between atoms: C5_8  and  N2_9 
REMARK    4  A    between atoms: N2_9  and  C8_12 
REMARK    5  A    between atoms: C8_12  and  C9_13 
REMARK    6  A    between atoms: C9_13  and  C10_14 
REMARK    7  A    between atoms: C10_14  and  N3_15 
REMARK    8  A    between atoms: N3_15  and  C11_18 
REMARK    9  A    between atoms: C21_31  and  C22_32 
ROOT
HETATM    1  C1  UNL     1      21.160  47.981 -10.957  1.00  0.00     0.011 C 
HETATM    2  C2  UNL     1      21.913  46.649 -10.773  1.00  0.00     0.008 C 
HETATM    3  C3  UNL     1      23.295  46.929 -10.419  1.00  0.00     0.144 C 
HETATM    4  S1  UNL     1      24.177  45.809  -9.376  1.00  0.00     0.210 S 
HETATM    5  O1  UNL     1      24.833  44.673 -10.077  1.00  0.00    -0.229 OA
HETATM    6  N1  UNL     1      23.410  45.441  -7.887  1.00  0.00     0.013 N 
HETATM    7  C17 UNL     1      22.397  44.501  -8.079  1.00  0.00     0.255 C 
HETATM    8  C18 UNL     1      21.700  44.544  -9.409  1.00  0.00     0.043 C 
HETATM    9  C19 UNL     1      21.094  45.811  -9.844  1.00  0.00     0.084 C 
HETATM   10  C20 UNL     1      20.465  46.615  -8.764  1.00  0.00     0.223 C 
HETATM   11  O2  UNL     1      19.368  47.194  -9.079  1.00  0.00    -0.273 OA
HETATM   12  N4  UNL     1      20.742  46.968  -7.421  1.00  0.00    -0.345 N 
ATOM     13  H4  UNL     1      20.031  47.594  -7.042  1.00  0.00     0.163 HD
HETATM   14  C21 UNL     1      21.787  46.672  -6.428  1.00  0.00     0.212 C 
HETATM   15  C23 UNL     1      23.046  46.707  -7.297  1.00  0.00     0.290 C 
ENDROOT
BRANCH   6  16
HETATM   16  C4  UNL     1      24.378  44.934  -6.875  1.00  0.00     0.282 C 
BRANCH  16  17
HETATM   17  C5  UNL     1      23.963  43.632  -6.356  1.00  0.00     0.265 C 
BRANCH  17  18
HETATM   18  N2  UNL     1      24.338  43.517  -4.908  1.00  0.00    -0.073 N 
HETATM   19  C6  UNL     1      25.618  43.016  -4.729  1.00  0.00     0.272 C 
HETATM   20  C7  UNL     1      23.417  42.422  -4.406  1.00  0.00     0.272 C 
BRANCH  18  21
HETATM   21  C8  UNL     1      23.887  44.672  -4.256  1.00  0.00     0.238 C 
BRANCH  21  22
HETATM   22  C9  UNL     1      23.663  44.761  -2.797  1.00  0.00     0.055 C 
BRANCH  22  23
HETATM   23  C10 UNL     1      22.522  45.657  -2.362  1.00  0.00     0.234 C 
BRANCH  23  24
HETATM   24  N3  UNL     1      21.344  45.359  -3.136  1.00  0.00    -0.071 N 
ATOM     25  H32 UNL     1      20.937  46.211  -3.523  1.00  0.00     0.277 HD
ATOM     26  H31 UNL     1      21.588  44.882  -4.004  1.00  0.00     0.277 HD
BRANCH  24  27
HETATM   27  C11 UNL     1      20.368  44.614  -2.401  1.00  0.00     0.185 C 
HETATM   28  C12 UNL     1      20.367  43.139  -2.635  1.00  0.00     0.033 C 
HETATM   29  C13 UNL     1      19.491  42.517  -1.556  1.00  0.00     0.002 C 
HETATM   30  C14 UNL     1      20.200  42.724  -0.227  1.00  0.00     0.000 C 
HETATM   31  C15 UNL     1      20.475  44.166   0.062  1.00  0.00     0.002 C 
HETATM   32  C16 UNL     1      20.065  45.094  -1.030  1.00  0.00     0.033 C 
ENDBRANCH  24  27
ENDBRANCH  23  24
ENDBRANCH  22  23
ENDBRANCH  21  22
ENDBRANCH  18  21
ENDBRANCH  17  18
ENDBRANCH  16  17
ENDBRANCH   6  16
BRANCH  14  33
HETATM   33  C22 UNL     1      21.895  47.980  -5.691  1.00  0.00     0.198 C 
HETATM   34  O3  UNL     1      22.618  48.892  -6.217  1.00  0.00    -0.646 OA
HETATM   35  O4  UNL     1      21.242  48.251  -4.502  1.00  0.00    -0.646 OA
ENDBRANCH  14  33
TORSDOF 9
ENDMDL
MODEL 5
REMARK VINA RESULT: -5.926888013      3.778      7.273
REMARK  9 active torsions:
REMARK  status: ('A' for Active; 'I' for Inactive)
REMARK    1  A    between atoms: N1_6  and  C4_7 
REMARK    2  A    between atoms: C4_7  and  C5_8 
REMARK    3  A    between atoms: C5_8  and  N2_9 
REMARK    4  A    between atoms: N2_9  and  C8_12 
REMARK    5  A    between atoms: C8_12  and  C9_13 
REMARK    6  A    between atoms: C9_13  and  C10_14 
REMARK    7  A    between atoms: C10_14  and  N3_15 
REMARK    8  A    between atoms: N3_15  and  C11_18 
REMARK    9  A    between atoms: C21_31  and  C22_32 
ROOT
HETATM    1  C1  UNL     1      20.096  48.193 -10.917  1.00  0.00     0.011 C 
HETATM    2  C2  UNL     1      20.972  46.935 -11.070  1.00  0.00     0.008 C 
HETATM    3  C3  UNL     1      22.372  47.325 -11.045  1.00  0.00     0.144 C 
HETATM    4  S1  UNL     1      23.579  46.220 -10.381  1.00  0.00     0.210 S 
HETATM    5  O1  UNL     1      24.118  45.218 -11.340  1.00  0.00    -0.229 OA
HETATM    6  N1  UNL     1      23.256  45.656  -8.794  1.00  0.00     0.013 N 
HETATM    7  C17 UNL     1      22.305  44.635  -8.824  1.00  0.00     0.255 C 
HETATM    8  C18 UNL     1      21.285  44.715  -9.925  1.00  0.00     0.043 C 
HETATM    9  C19 UNL     1      20.490  45.945 -10.059  1.00  0.00     0.084 C 
HETATM   10  C20 UNL     1      20.102  46.589  -8.777  1.00  0.00     0.223 C 
HETATM   11  O2  UNL     1      18.919  47.077  -8.743  1.00  0.00    -0.273 OA
HETATM   12  N4  UNL     1      20.690  46.858  -7.516  1.00  0.00    -0.345 N 
ATOM     13  H4  UNL     1      20.055  47.374  -6.907  1.00  0.00     0.163 HD
HETATM   14  C21 UNL     1      21.976  46.590  -6.854  1.00  0.00     0.212 C 
HETATM   15  C23 UNL     1      22.960  46.825  -8.003  1.00  0.00     0.290 C 
ENDROOT
BRANCH   6  16
HETATM   16  C4  UNL     1      24.490  45.168  -8.117  1.00  0.00     0.282 C 
BRANCH  16  17
HETATM   17  C5  UNL     1      24.552  43.708  -8.121  1.00  0.00     0.265 C 
BRANCH  17  18
HETATM   18  N2  UNL     1      24.989  43.212  -6.775  1.00  0.00    -0.073 N 
HETATM   19  C6  UNL     1      26.302  42.767  -6.773  1.00  0.00     0.272 C 
HETATM   20  C7  UNL     1      24.153  41.961  -6.588  1.00  0.00     0.272 C 
BRANCH  18  21
HETATM   21  C8  UNL     1      24.498  44.102  -5.810  1.00  0.00     0.238 C 
BRANCH  21  22
HETATM   22  C9  UNL     1      24.083  43.696  -4.450  1.00  0.00     0.055 C 
BRANCH  22  23
HETATM   23  C10 UNL     1      24.323  44.719  -3.358  1.00  0.00     0.234 C 
BRANCH  23  24
HETATM   24  N3  UNL     1      23.368  45.791  -3.474  1.00  0.00    -0.071 N 
ATOM     25  H32 UNL     1      23.826  46.698  -3.392  1.00  0.00     0.277 HD
ATOM     26  H31 UNL     1      23.019  45.867  -4.430  1.00  0.00     0.277 HD
BRANCH  24  27
HETATM   27  C11 UNL     1      22.287  45.678  -2.544  1.00  0.00     0.185 C 
HETATM   28  C12 UNL     1      21.055  45.008  -3.059  1.00  0.00     0.033 C 
HETATM   29  C13 UNL     1      20.169  44.718  -1.855  1.00  0.00     0.002 C 
HETATM   30  C14 UNL     1      20.884  43.674  -1.012  1.00  0.00     0.000 C 
HETATM   31  C15 UNL     1      22.250  44.113  -0.587  1.00  0.00     0.002 C 
HETATM   32  C16 UNL     1      22.657  45.441  -1.127  1.00  0.00     0.033 C 
ENDBRANCH  24  27
ENDBRANCH  23  24
ENDBRANCH  22  23
ENDBRANCH  21  22
ENDBRANCH  18  21
ENDBRANCH  17  18
ENDBRANCH  16  17
ENDBRANCH   6  16
BRANCH  14  33
HETATM   33  C22 UNL     1      22.169  47.838  -6.034  1.00  0.00     0.198 C 
HETATM   34  O3  UNL     1      22.992  48.708  -6.476  1.00  0.00    -0.646 OA
HETATM   35  O4  UNL     1      21.492  48.098  -4.856  1.00  0.00    -0.646 OA
ENDBRANCH  14  33
TORSDOF 9
ENDMDL
