MODEL 1
REMARK VINA RESULT: -7.622995030      0.000      0.000
REMARK  9 active torsions:
REMARK  status: ('A' for Active; 'I' for Inactive)
REMARK    1  A    between atoms: C2_2  and  C3_3 
REMARK    2  A    between atoms: C3_3  and  C4_4 
REMARK    3  A    between atoms: C6_6  and  C7_7 
REMARK    4  A    between atoms: C8_8  and  C9_9 
REMARK    5  A    between atoms: C9_9  and  C10_10 
REMARK    6  A    between atoms: C10_10  and  N1_11 
REMARK    7  A    between atoms: N1_11  and  C11_12 
REMARK    8  A    between atoms: N1_11  and  C13_14 
REMARK    9  A    between atoms: C22_31  and  C23_32 
ROOT
HETATM    1  C4  UNL     1      18.442  43.803   0.042  1.00  0.00    -0.027 A 
HETATM    2  C5  UNL     1      19.111  43.995  -1.135  1.00  0.00     0.039 A 
HETATM    3  C6  UNL     1      20.479  44.229  -1.156  1.00  0.00     0.034 A 
HETATM    4  N2  UNL     1      21.191  44.277   0.018  1.00  0.00    -0.349 N 
HETATM    5  C15 UNL     1      22.573  44.654   0.004  1.00  0.00     0.156 C 
HETATM    6  C16 UNL     1      20.557  44.085   1.194  1.00  0.00     0.068 A 
HETATM    7  C17 UNL     1      19.175  43.848   1.206  1.00  0.00     0.064 A 
HETATM    8  N3  UNL     1      18.717  43.653   2.393  1.00  0.00    -0.363 N 
ATOM      9  H3  UNL     1      17.749  43.440   2.636  1.00  0.00     0.162 HD
HETATM   10  C18 UNL     1      19.779  43.784   3.291  1.00  0.00     0.217 C 
HETATM   11  N4  UNL     1      19.709  44.942   4.131  1.00  0.00    -0.336 N 
ATOM     12  H4  UNL     1      19.086  45.669   3.779  1.00  0.00     0.164 HD
HETATM   13  C19 UNL     1      20.333  45.268   5.347  1.00  0.00     0.225 C 
HETATM   14  O1  UNL     1      19.760  46.134   6.013  1.00  0.00    -0.273 OA
HETATM   15  C20 UNL     1      21.589  44.755   6.000  1.00  0.00     0.160 C 
HETATM   16  C21 UNL     1      22.719  45.032   5.025  1.00  0.00     0.025 A 
HETATM   17  N5  UNL     1      23.684  45.842   5.513  1.00  0.00    -0.355 N 
ATOM     18  H5  UNL     1      23.701  46.260   6.443  1.00  0.00     0.166 HD
HETATM   19  C22 UNL     1      24.615  46.001   4.564  1.00  0.00     0.098 A 
HETATM   20  C24 UNL     1      24.249  45.290   3.460  1.00  0.00     0.044 A 
HETATM   21  C25 UNL     1      23.047  44.676   3.751  1.00  0.00    -0.029 A 
HETATM   22  C26 UNL     1      22.430  43.821   2.709  1.00  0.00     0.081 C 
HETATM   23  C27 UNL     1      21.030  43.928   2.417  1.00  0.00    -0.005 C 
ENDROOT
BRANCH   3  24
HETATM   24  C7  UNL     1      21.215  44.377  -2.387  1.00  0.00     0.025 C 
HETATM   25  C8  UNL     1      20.937  45.349  -3.232  1.00  0.00    -0.023 C 
BRANCH  25  26
HETATM   26  C9  UNL     1      21.711  45.502  -4.515  1.00  0.00     0.046 C 
BRANCH  26  27
HETATM   27  C10 UNL     1      22.254  46.932  -4.603  1.00  0.00     0.120 C 
BRANCH  27  28
HETATM   28  N1  UNL     1      21.923  47.594  -5.805  1.00  0.00    -0.413 N 
BRANCH  28  29
HETATM   29  C11 UNL     1      21.675  46.789  -6.950  1.00  0.00     0.112 C 
HETATM   30  C12 UNL     1      22.065  47.509  -8.233  1.00  0.00     0.026 C 
ENDBRANCH  28  29
BRANCH  28  31
HETATM   31  C13 UNL     1      22.616  48.826  -6.023  1.00  0.00     0.112 C 
HETATM   32  C14 UNL     1      22.373  49.787  -4.874  1.00  0.00     0.026 C 
ENDBRANCH  28  31
ENDBRANCH  27  28
ENDBRANCH  26  27
ENDBRANCH  25  26
ENDBRANCH   3  24
BRANCH   1  33
HETATM   33  C3  UNL     1      16.976  43.561   0.015  1.00  0.00     0.040 C 
BRANCH  33  34
HETATM   34  C2  UNL     1      16.579  42.183  -0.360  1.00  0.00     0.000 C 
HETATM   35  C1  UNL     1      15.144  42.025  -0.745  1.00  0.00     0.005 C 
ENDBRANCH  33  34
ENDBRANCH   1  33
BRANCH  19  36
HETATM   36  C23 UNL     1      25.823  46.830   4.751  1.00  0.00     0.281 C 
HETATM   37  N6  UNL     1      26.111  47.914   3.897  1.00  0.00    -0.056 NA
HETATM   38  O2  UNL     1      26.629  46.589   5.682  1.00  0.00    -0.269 OA
ENDBRANCH  19  36
TORSDOF 9
ENDMDL
MODEL 2
REMARK VINA RESULT: -7.605337790      0.135      1.152
REMARK  9 active torsions:
REMARK  status: ('A' for Active; 'I' for Inactive)
REMARK    1  A    between atoms: C2_2  and  C3_3 
REMARK    2  A    between atoms: C3_3  and  C4_4 
REMARK    3  A    between atoms: C6_6  and  C7_7 
REMARK    4  A    between atoms: C8_8  and  C9_9 
REMARK    5  A    between atoms: C9_9  and  C10_10 
REMARK    6  A    between atoms: C10_10  and  N1_11 
REMARK    7  A    between atoms: N1_11  and  C11_12 
REMARK    8  A    between atoms: N1_11  and  C13_14 
REMARK    9  A    between atoms: C22_31  and  C23_32 
ROOT
HETATM    1  C4  UNL     1      18.439  43.816   0.117  1.00  0.00    -0.027 A 
HETATM    2  C5  UNL     1      19.103  44.010  -1.064  1.00  0.00     0.039 A 
HETATM    3  C6  UNL     1      20.470  44.244  -1.091  1.00  0.00     0.034 A 
HETATM    4  N2  UNL     1      21.189  44.289   0.079  1.00  0.00    -0.349 N 
HETATM    5  C15 UNL     1      22.571  44.665   0.059  1.00  0.00     0.156 C 
HETATM    6  C16 UNL     1      20.561  44.095   1.258  1.00  0.00     0.068 A 
HETATM    7  C17 UNL     1      19.179  43.858   1.277  1.00  0.00     0.064 A 
HETATM    8  N3  UNL     1      18.727  43.661   2.466  1.00  0.00    -0.363 N 
ATOM      9  H3  UNL     1      17.760  43.448   2.714  1.00  0.00     0.162 HD
HETATM   10  C18 UNL     1      19.794  43.790   3.358  1.00  0.00     0.217 C 
HETATM   11  N4  UNL     1      19.729  44.946   4.202  1.00  0.00    -0.336 N 
ATOM     12  H4  UNL     1      19.104  45.675   3.854  1.00  0.00     0.164 HD
HETATM   13  C19 UNL     1      20.360  45.270   5.414  1.00  0.00     0.225 C 
HETATM   14  O1  UNL     1      19.791  46.134   6.085  1.00  0.00    -0.273 OA
HETATM   15  C20 UNL     1      21.619  44.755   6.060  1.00  0.00     0.160 C 
HETATM   16  C21 UNL     1      22.743  45.034   5.079  1.00  0.00     0.025 A 
HETATM   17  N5  UNL     1      23.712  45.842   5.563  1.00  0.00    -0.355 N 
ATOM     18  H5  UNL     1      23.733  46.258   6.495  1.00  0.00     0.166 HD
HETATM   19  C22 UNL     1      24.638  46.002   4.610  1.00  0.00     0.098 A 
HETATM   20  C24 UNL     1      24.265  45.294   3.507  1.00  0.00     0.044 A 
HETATM   21  C25 UNL     1      23.064  44.679   3.803  1.00  0.00    -0.029 A 
HETATM   22  C26 UNL     1      22.442  43.827   2.762  1.00  0.00     0.081 C 
HETATM   23  C27 UNL     1      21.040  43.935   2.478  1.00  0.00    -0.005 C 
ENDROOT
BRANCH   3  24
HETATM   24  C7  UNL     1      21.200  44.394  -2.326  1.00  0.00     0.025 C 
HETATM   25  C8  UNL     1      20.903  45.354  -3.177  1.00  0.00    -0.023 C 
BRANCH  25  26
HETATM   26  C9  UNL     1      21.670  45.509  -4.465  1.00  0.00     0.046 C 
BRANCH  26  27
HETATM   27  C10 UNL     1      22.145  46.960  -4.590  1.00  0.00     0.120 C 
BRANCH  27  28
HETATM   28  N1  UNL     1      22.331  47.386  -5.924  1.00  0.00    -0.413 N 
BRANCH  28  29
HETATM   29  C11 UNL     1      22.651  48.755  -6.136  1.00  0.00     0.112 C 
HETATM   30  C12 UNL     1      22.327  49.599  -4.911  1.00  0.00     0.026 C 
ENDBRANCH  28  29
BRANCH  28  31
HETATM   31  C13 UNL     1      21.460  46.774  -6.877  1.00  0.00     0.112 C 
HETATM   32  C14 UNL     1      21.860  47.156  -8.290  1.00  0.00     0.026 C 
ENDBRANCH  28  31
ENDBRANCH  27  28
ENDBRANCH  26  27
ENDBRANCH  25  26
ENDBRANCH   3  24
BRANCH   1  33
HETATM   33  C3  UNL     1      16.974  43.575   0.098  1.00  0.00     0.040 C 
BRANCH  33  34
HETATM   34  C2  UNL     1      16.572  42.213  -0.326  1.00  0.00     0.000 C 
HETATM   35  C1  UNL     1      15.143  42.078  -0.738  1.00  0.00     0.005 C 
ENDBRANCH  33  34
ENDBRANCH   1  33
BRANCH  19  36
HETATM   36  C23 UNL     1      25.847  46.830   4.793  1.00  0.00     0.281 C 
HETATM   37  N6  UNL     1      26.165  47.875   3.901  1.00  0.00    -0.056 NA
HETATM   38  O2  UNL     1      26.628  46.624   5.753  1.00  0.00    -0.269 OA
ENDBRANCH  19  36
TORSDOF 9
ENDMDL
MODEL 3
REMARK VINA RESULT: -7.575949351      1.000      1.534
REMARK  9 active torsions:
REMARK  status: ('A' for Active; 'I' for Inactive)
REMARK    1  A    between atoms: C2_2  and  C3_3 
REMARK    2  A    between atoms: C3_3  and  C4_4 
REMARK    3  A    between atoms: C6_6  and  C7_7 
REMARK    4  A    between atoms: C8_8  and  C9_9 
REMARK    5  A    between atoms: C9_9  and  C10_10 
REMARK    6  A    between atoms: C10_10  and  N1_11 
REMARK    7  A    between atoms: N1_11  and  C11_12 
REMARK    8  A    between atoms: N1_11  and  C13_14 
REMARK    9  A    between atoms: C22_31  and  C23_32 
ROOT
HETATM    1  C4  UNL     1      19.146  43.352  -0.115  1.00  0.00    -0.027 A 
HETATM    2  C5  UNL     1      19.715  43.707  -1.308  1.00  0.00     0.039 A 
HETATM    3  C6  UNL     1      21.008  44.205  -1.369  1.00  0.00     0.034 A 
HETATM    4  N2  UNL     1      21.747  44.356  -0.221  1.00  0.00    -0.349 N 
HETATM    5  C15 UNL     1      23.027  44.997  -0.270  1.00  0.00     0.156 C 
HETATM    6  C16 UNL     1      21.213  44.008   0.969  1.00  0.00     0.068 A 
HETATM    7  C17 UNL     1      19.905  43.504   1.022  1.00  0.00     0.064 A 
HETATM    8  N3  UNL     1      19.546  43.187   2.217  1.00  0.00    -0.363 N 
ATOM      9  H3  UNL     1      18.649  42.782   2.485  1.00  0.00     0.162 HD
HETATM   10  C18 UNL     1      20.599  43.496   3.080  1.00  0.00     0.217 C 
HETATM   11  N4  UNL     1      20.341  44.592   3.966  1.00  0.00    -0.336 N 
ATOM     12  H4  UNL     1      19.574  45.194   3.665  1.00  0.00     0.164 HD
HETATM   13  C19 UNL     1      20.941  44.997   5.169  1.00  0.00     0.225 C 
HETATM   14  O1  UNL     1      20.240  45.713   5.889  1.00  0.00    -0.273 OA
HETATM   15  C20 UNL     1      22.300  44.721   5.758  1.00  0.00     0.160 C 
HETATM   16  C21 UNL     1      23.311  45.243   4.753  1.00  0.00     0.025 A 
HETATM   17  N5  UNL     1      24.120  46.211   5.237  1.00  0.00    -0.355 N 
ATOM     18  H5  UNL     1      24.095  46.596   6.181  1.00  0.00     0.166 HD
HETATM   19  C22 UNL     1      24.961  46.579   4.262  1.00  0.00     0.098 A 
HETATM   20  C24 UNL     1      24.693  45.843   3.146  1.00  0.00     0.044 A 
HETATM   21  C25 UNL     1      23.647  44.997   3.456  1.00  0.00    -0.029 A 
HETATM   22  C26 UNL     1      23.165  44.070   2.404  1.00  0.00     0.081 C 
HETATM   23  C27 UNL     1      21.760  43.909   2.167  1.00  0.00    -0.005 C 
ENDROOT
BRANCH   3  24
HETATM   24  C7  UNL     1      21.649  44.532  -2.619  1.00  0.00     0.025 C 
HETATM   25  C8  UNL     1      21.190  45.504  -3.383  1.00  0.00    -0.023 C 
BRANCH  25  26
HETATM   26  C9  UNL     1      21.864  45.844  -4.687  1.00  0.00     0.046 C 
BRANCH  26  27
HETATM   27  C10 UNL     1      21.843  47.364  -4.876  1.00  0.00     0.120 C 
BRANCH  27  28
HETATM   28  N1  UNL     1      22.617  47.812  -5.969  1.00  0.00    -0.413 N 
BRANCH  28  29
HETATM   29  C11 UNL     1      22.870  49.208  -6.063  1.00  0.00     0.112 C 
HETATM   30  C12 UNL     1      22.246  49.967  -4.900  1.00  0.00     0.026 C 
ENDBRANCH  28  29
BRANCH  28  31
HETATM   31  C13 UNL     1      22.385  47.117  -7.196  1.00  0.00     0.112 C 
HETATM   32  C14 UNL     1      22.266  48.094  -8.351  1.00  0.00     0.026 C 
ENDBRANCH  28  31
ENDBRANCH  27  28
ENDBRANCH  26  27
ENDBRANCH  25  26
ENDBRANCH   3  24
BRANCH   1  33
HETATM   33  C3  UNL     1      17.756  42.829  -0.099  1.00  0.00     0.040 C 
BRANCH  33  34
HETATM   34  C2  UNL     1      16.718  43.830   0.243  1.00  0.00     0.000 C 
HETATM   35  C1  UNL     1      16.019  43.593   1.542  1.00  0.00     0.005 C 
ENDBRANCH  33  34
ENDBRANCH   1  33
BRANCH  19  36
HETATM   36  C23 UNL     1      25.992  47.622   4.437  1.00  0.00     0.281 C 
HETATM   37  N6  UNL     1      26.748  47.718   5.623  1.00  0.00    -0.056 NA
HETATM   38  O2  UNL     1      26.222  48.455   3.528  1.00  0.00    -0.269 OA
ENDBRANCH  19  36
TORSDOF 9
ENDMDL
MODEL 4
REMARK VINA RESULT: -7.536537991      0.966      1.018
REMARK  9 active torsions:
REMARK  status: ('A' for Active; 'I' for Inactive)
REMARK    1  A    between atoms: C2_2  and  C3_3 
REMARK    2  A    between atoms: C3_3  and  C4_4 
REMARK    3  A    between atoms: C6_6  and  C7_7 
REMARK    4  A    between atoms: C8_8  and  C9_9 
REMARK    5  A    between atoms: C9_9  and  C10_10 
REMARK    6  A    between atoms: C10_10  and  N1_11 
REMARK    7  A    between atoms: N1_11  and  C11_12 
REMARK    8  A    between atoms: N1_11  and  C13_14 
REMARK    9  A    between atoms: C22_31  and  C23_32 
ROOT
HETATM    1  C4  UNL     1      19.035  43.424  -0.083  1.00  0.00    -0.027 A 
HETATM    2  C5  UNL     1      19.615  43.754  -1.278  1.00  0.00     0.039 A 
HETATM    3  C6  UNL     1      20.923  44.210  -1.341  1.00  0.00     0.034 A 
HETATM    4  N2  UNL     1      21.667  44.343  -0.194  1.00  0.00    -0.349 N 
HETATM    5  C15 UNL     1      22.967  44.942  -0.247  1.00  0.00     0.156 C 
HETATM    6  C16 UNL     1      21.123  44.019   0.998  1.00  0.00     0.068 A 
HETATM    7  C17 UNL     1      19.799  43.558   1.054  1.00  0.00     0.064 A 
HETATM    8  N3  UNL     1      19.430  43.259   2.250  1.00  0.00    -0.363 N 
ATOM      9  H3  UNL     1      18.521  42.884   2.521  1.00  0.00     0.162 HD
HETATM   10  C18 UNL     1      20.493  43.539   3.111  1.00  0.00     0.217 C 
HETATM   11  N4  UNL     1      20.271  44.648   3.991  1.00  0.00    -0.336 N 
ATOM     12  H4  UNL     1      19.523  45.272   3.687  1.00  0.00     0.164 HD
HETATM   13  C19 UNL     1      20.884  45.040   5.193  1.00  0.00     0.225 C 
HETATM   14  O1  UNL     1      20.206  45.782   5.908  1.00  0.00    -0.273 OA
HETATM   15  C20 UNL     1      22.234  44.723   5.782  1.00  0.00     0.160 C 
HETATM   16  C21 UNL     1      23.261  45.207   4.775  1.00  0.00     0.025 A 
HETATM   17  N5  UNL     1      24.101  46.151   5.252  1.00  0.00    -0.355 N 
ATOM     18  H5  UNL     1      24.088  46.541   6.195  1.00  0.00     0.166 HD
HETATM   19  C22 UNL     1      24.953  46.486   4.276  1.00  0.00     0.098 A 
HETATM   20  C24 UNL     1      24.661  45.753   3.164  1.00  0.00     0.044 A 
HETATM   21  C25 UNL     1      23.588  44.943   3.479  1.00  0.00    -0.029 A 
HETATM   22  C26 UNL     1      23.076  44.026   2.432  1.00  0.00     0.081 C 
HETATM   23  C27 UNL     1      21.666  43.909   2.196  1.00  0.00    -0.005 C 
ENDROOT
BRANCH   3  24
HETATM   24  C7  UNL     1      21.574  44.509  -2.593  1.00  0.00     0.025 C 
HETATM   25  C8  UNL     1      21.129  45.470  -3.377  1.00  0.00    -0.023 C 
BRANCH  25  26
HETATM   26  C9  UNL     1      21.812  45.781  -4.682  1.00  0.00     0.046 C 
BRANCH  26  27
HETATM   27  C10 UNL     1      22.214  47.260  -4.695  1.00  0.00     0.120 C 
BRANCH  27  28
HETATM   28  N1  UNL     1      22.313  47.812  -5.990  1.00  0.00    -0.413 N 
BRANCH  28  29
HETATM   29  C11 UNL     1      22.745  46.953  -7.037  1.00  0.00     0.112 C 
HETATM   30  C12 UNL     1      22.972  47.723  -8.332  1.00  0.00     0.026 C 
ENDBRANCH  28  29
BRANCH  28  31
HETATM   31  C13 UNL     1      22.778  49.163  -6.034  1.00  0.00     0.112 C 
HETATM   32  C14 UNL     1      22.211  49.962  -4.875  1.00  0.00     0.026 C 
ENDBRANCH  28  31
ENDBRANCH  27  28
ENDBRANCH  26  27
ENDBRANCH  25  26
ENDBRANCH   3  24
BRANCH   1  33
HETATM   33  C3  UNL     1      17.629  42.946  -0.063  1.00  0.00     0.040 C 
BRANCH  33  34
HETATM   34  C2  UNL     1      16.634  43.955   0.370  1.00  0.00     0.000 C 
HETATM   35  C1  UNL     1      15.867  43.595   1.600  1.00  0.00     0.005 C 
ENDBRANCH  33  34
ENDBRANCH   1  33
BRANCH  19  36
HETATM   36  C23 UNL     1      26.017  47.496   4.445  1.00  0.00     0.281 C 
HETATM   37  N6  UNL     1      26.769  47.582   5.634  1.00  0.00    -0.056 NA
HETATM   38  O2  UNL     1      26.280  48.310   3.527  1.00  0.00    -0.269 OA
ENDBRANCH  19  36
TORSDOF 9
ENDMDL
MODEL 5
REMARK VINA RESULT: -7.141550825      1.706      1.858
REMARK  9 active torsions:
REMARK  status: ('A' for Active; 'I' for Inactive)
REMARK    1  A    between atoms: C2_2  and  C3_3 
REMARK    2  A    between atoms: C3_3  and  C4_4 
REMARK    3  A    between atoms: C6_6  and  C7_7 
REMARK    4  A    between atoms: C8_8  and  C9_9 
REMARK    5  A    between atoms: C9_9  and  C10_10 
REMARK    6  A    between atoms: C10_10  and  N1_11 
REMARK    7  A    between atoms: N1_11  and  C11_12 
REMARK    8  A    between atoms: N1_11  and  C13_14 
REMARK    9  A    between atoms: C22_31  and  C23_32 
ROOT
HETATM    1  C4  UNL     1      19.675  42.975  -1.104  1.00  0.00    -0.027 A 
HETATM    2  C5  UNL     1      19.986  43.771  -2.172  1.00  0.00     0.039 A 
HETATM    3  C6  UNL     1      21.116  44.576  -2.165  1.00  0.00     0.034 A 
HETATM    4  N2  UNL     1      21.949  44.592  -1.072  1.00  0.00    -0.349 N 
HETATM    5  C15 UNL     1      23.035  45.523  -1.011  1.00  0.00     0.156 C 
HETATM    6  C16 UNL     1      21.669  43.811  -0.007  1.00  0.00     0.068 A 
HETATM    7  C17 UNL     1      20.526  43.000  -0.022  1.00  0.00     0.064 A 
HETATM    8  N3  UNL     1      20.408  42.291   1.046  1.00  0.00    -0.363 N 
ATOM      9  H3  UNL     1      19.668  41.615   1.239  1.00  0.00     0.162 HD
HETATM   10  C18 UNL     1      21.471  42.610   1.893  1.00  0.00     0.217 C 
HETATM   11  N4  UNL     1      21.095  43.323   3.077  1.00  0.00    -0.336 N 
ATOM     12  H4  UNL     1      20.180  43.770   3.016  1.00  0.00     0.164 HD
HETATM   13  C19 UNL     1      21.744  43.525   4.307  1.00  0.00     0.225 C 
HETATM   14  O1  UNL     1      21.003  43.818   5.248  1.00  0.00    -0.273 OA
HETATM   15  C20 UNL     1      23.196  43.452   4.700  1.00  0.00     0.160 C 
HETATM   16  C21 UNL     1      23.922  44.464   3.833  1.00  0.00     0.025 A 
HETATM   17  N5  UNL     1      24.552  45.437   4.528  1.00  0.00    -0.355 N 
ATOM     18  H5  UNL     1      24.567  45.531   5.544  1.00  0.00     0.166 HD
HETATM   19  C22 UNL     1      25.153  46.254   3.654  1.00  0.00     0.098 A 
HETATM   20  C24 UNL     1      24.909  45.805   2.390  1.00  0.00     0.044 A 
HETATM   21  C25 UNL     1      24.129  44.671   2.502  1.00  0.00    -0.029 A 
HETATM   22  C26 UNL     1      23.731  43.973   1.257  1.00  0.00     0.081 C 
HETATM   23  C27 UNL     1      22.378  43.533   1.072  1.00  0.00    -0.005 C 
ENDROOT
BRANCH   3  24
HETATM   24  C7  UNL     1      21.495  45.380  -3.301  1.00  0.00     0.025 C 
HETATM   25  C8  UNL     1      21.567  44.856  -4.509  1.00  0.00    -0.023 C 
BRANCH  25  26
HETATM   26  C9  UNL     1      21.961  45.699  -5.693  1.00  0.00     0.046 C 
BRANCH  26  27
HETATM   27  C10 UNL     1      22.032  47.167  -5.259  1.00  0.00     0.120 C 
BRANCH  27  28
HETATM   28  N1  UNL     1      22.333  48.059  -6.311  1.00  0.00    -0.413 N 
BRANCH  28  29
HETATM   29  C11 UNL     1      22.844  47.501  -7.515  1.00  0.00     0.112 C 
HETATM   30  C12 UNL     1      22.218  48.153  -8.741  1.00  0.00     0.026 C 
ENDBRANCH  28  29
BRANCH  28  31
HETATM   31  C13 UNL     1      22.882  49.312  -5.899  1.00  0.00     0.112 C 
HETATM   32  C14 UNL     1      22.072  49.903  -4.760  1.00  0.00     0.026 C 
ENDBRANCH  28  31
ENDBRANCH  27  28
ENDBRANCH  26  27
ENDBRANCH  25  26
ENDBRANCH   3  24
BRANCH   1  33
HETATM   33  C3  UNL     1      18.452  42.134  -1.155  1.00  0.00     0.040 C 
BRANCH  33  34
HETATM   34  C2  UNL     1      18.574  40.905  -1.975  1.00  0.00     0.000 C 
HETATM   35  C1  UNL     1      17.280  40.236  -2.302  1.00  0.00     0.005 C 
ENDBRANCH  33  34
ENDBRANCH   1  33
BRANCH  19  36
HETATM   36  C23 UNL     1      25.938  47.435   4.064  1.00  0.00     0.281 C 
HETATM   37  N6  UNL     1      26.526  47.521   5.342  1.00  0.00    -0.056 NA
HETATM   38  O2  UNL     1      26.104  48.400   3.278  1.00  0.00    -0.269 OA
ENDBRANCH  19  36
TORSDOF 9
ENDMDL
