MODEL 1
REMARK VINA RESULT: -6.082357528      0.000      0.000
REMARK  14 active torsions:
REMARK  status: ('A' for Active; 'I' for Inactive)
REMARK    1  A    between atoms: N1_2  and  C3_4 
REMARK    2  A    between atoms: C3_4  and  C4_5 
REMARK    3  A    between atoms: C4_5  and  C5_6 
REMARK    4  A    between atoms: C5_6  and  N2_7 
REMARK    5  A    between atoms: N2_7  and  C6_9 
REMARK    6  A    between atoms: C7_12  and  N4_13 
REMARK    7  A    between atoms: N4_13  and  C8_15 
REMARK    8  A    between atoms: C8_15  and  C9_16 
REMARK    9  A    between atoms: C9_16  and  C10_17 
REMARK   10  A    between atoms: C10_17  and  C11_18 
REMARK   11  A    between atoms: C11_18  and  C12_19 
REMARK   12  A    between atoms: C12_19  and  C13_20 
REMARK   13  A    between atoms: C13_20  and  C14_21 
REMARK   14  A    between atoms: C17_24  and  N5_25 
ROOT
HETATM    1  C6  UNL     1      23.835  46.955  -8.585  1.00  0.00     0.147 A 
HETATM    2  N3  UNL     1      23.859  47.409  -7.321  1.00  0.00    -0.175 N 
ATOM      3  H3  UNL     1      24.579  47.064  -6.687  1.00  0.00     0.186 HD
HETATM    4  C7  UNL     1      22.959  48.307  -6.862  1.00  0.00     0.682 A 
HETATM    5  N6  UNL     1      22.020  48.744  -7.725  1.00  0.00    -0.174 N 
ATOM      6  H6  UNL     1      21.336  49.422  -7.387  1.00  0.00     0.186 HD
HETATM    7  C23 UNL     1      21.931  48.340  -8.998  1.00  0.00     0.152 A 
HETATM    8  N7  UNL     1      21.122  48.603 -10.041  1.00  0.00    -0.336 N 
ATOM      9  H7  UNL     1      20.333  49.248 -10.016  1.00  0.00     0.168 HD
HETATM   10  C24 UNL     1      21.499  47.895 -11.119  1.00  0.00     0.184 A 
HETATM   11  N8  UNL     1      22.580  47.160 -10.747  1.00  0.00    -0.341 N 
HETATM   12  C25 UNL     1      23.326  46.242 -11.586  1.00  0.00     0.157 C 
HETATM   13  C26 UNL     1      22.844  47.427  -9.464  1.00  0.00     0.125 A 
ENDROOT
BRANCH   4  14
HETATM   14  N4  UNL     1      23.008  48.721  -5.647  1.00  0.00    -0.215 N 
ATOM     15  H4  UNL     1      23.824  49.225  -5.300  1.00  0.00     0.178 HD
BRANCH  14  16
HETATM   16  C8  UNL     1      21.880  48.455  -4.782  1.00  0.00     0.232 C 
BRANCH  16  17
HETATM   17  C9  UNL     1      21.889  47.040  -4.336  1.00  0.00    -0.086 C 
BRANCH  17  18
HETATM   18  C10 UNL     1      21.919  45.890  -3.979  1.00  0.00    -0.105 C 
BRANCH  18  19
HETATM   19  C11 UNL     1      21.955  44.480  -3.513  1.00  0.00     0.094 C 
BRANCH  19  20
HETATM   20  C12 UNL     1      20.597  44.203  -2.909  1.00  0.00     0.017 C 
BRANCH  20  21
HETATM   21  C13 UNL     1      20.527  44.420  -1.436  1.00  0.00     0.039 C 
BRANCH  21  22
HETATM   22  C14 UNL     1      19.261  43.880  -0.911  1.00  0.00    -0.058 A 
HETATM   23  C15 UNL     1      18.901  42.558  -1.126  1.00  0.00     0.009 A 
HETATM   24  C16 UNL     1      17.702  42.113  -0.598  1.00  0.00     0.038 A 
HETATM   25  C17 UNL     1      16.867  42.910   0.122  1.00  0.00     0.135 A 
HETATM   26  C21 UNL     1      17.243  44.234   0.329  1.00  0.00     0.038 A 
HETATM   27  C22 UNL     1      18.428  44.696  -0.188  1.00  0.00     0.009 A 
BRANCH  25  28
HETATM   28  N5  UNL     1      15.632  42.463   0.675  1.00  0.00    -0.049 N 
HETATM   29  C18 UNL     1      15.685  41.024   0.870  1.00  0.00     0.278 C 
HETATM   30  C19 UNL     1      15.265  43.126   1.892  1.00  0.00     0.278 C 
HETATM   31  C20 UNL     1      14.609  42.706  -0.354  1.00  0.00     0.278 C 
ENDBRANCH  25  28
ENDBRANCH  21  22
ENDBRANCH  20  21
ENDBRANCH  19  20
ENDBRANCH  18  19
ENDBRANCH  17  18
ENDBRANCH  16  17
ENDBRANCH  14  16
ENDBRANCH   4  14
BRANCH   1  32
HETATM   32  N2  UNL     1      24.663  46.110  -9.049  1.00  0.00    -0.374 N 
ATOM     33  H2  UNL     1      25.149  46.353  -9.912  1.00  0.00     0.161 HD
BRANCH  32  34
HETATM   34  C5  UNL     1      24.962  44.854  -8.459  1.00  0.00     0.123 C 
BRANCH  34  35
HETATM   35  C4  UNL     1      23.719  43.968  -8.497  1.00  0.00     0.050 C 
BRANCH  35  36
HETATM   36  C3  UNL     1      23.253  43.651  -7.090  1.00  0.00     0.273 C 
BRANCH  36  37
HETATM   37  N1  UNL     1      21.821  43.832  -6.982  1.00  0.00     0.080 N 
HETATM   38  C1  UNL     1      21.159  42.567  -6.639  1.00  0.00     0.309 C 
HETATM   39  C2  UNL     1      21.333  44.224  -8.295  1.00  0.00     0.309 C 
ENDBRANCH  36  37
ENDBRANCH  35  36
ENDBRANCH  34  35
ENDBRANCH  32  34
ENDBRANCH   1  32
TORSDOF 14
ENDMDL
MODEL 2
REMARK VINA RESULT: -6.016515051      1.031      1.554
REMARK  14 active torsions:
REMARK  status: ('A' for Active; 'I' for Inactive)
REMARK    1  A    between atoms: N1_2  and  C3_4 
REMARK    2  A    between atoms: C3_4  and  C4_5 
REMARK    3  A    between atoms: C4_5  and  C5_6 
REMARK    4  A    between atoms: C5_6  and  N2_7 
REMARK    5  A    between atoms: N2_7  and  C6_9 
REMARK    6  A    between atoms: C7_12  and  N4_13 
REMARK    7  A    between atoms: N4_13  and  C8_15 
REMARK    8  A    between atoms: C8_15  and  C9_16 
REMARK    9  A    between atoms: C9_16  and  C10_17 
REMARK   10  A    between atoms: C10_17  and  C11_18 
REMARK   11  A    between atoms: C11_18  and  C12_19 
REMARK   12  A    between atoms: C12_19  and  C13_20 
REMARK   13  A    between atoms: C13_20  and  C14_21 
REMARK   14  A    between atoms: C17_24  and  N5_25 
ROOT
HETATM    1  C6  UNL     1      23.811  46.994  -8.629  1.00  0.00     0.147 A 
HETATM    2  N3  UNL     1      23.837  47.396  -7.348  1.00  0.00    -0.175 N 
ATOM      3  H3  UNL     1      24.569  47.039  -6.734  1.00  0.00     0.186 HD
HETATM    4  C7  UNL     1      22.925  48.258  -6.846  1.00  0.00     0.682 A 
HETATM    5  N6  UNL     1      21.971  48.713  -7.682  1.00  0.00    -0.174 N 
ATOM      6  H6  UNL     1      21.278  49.364  -7.312  1.00  0.00     0.186 HD
HETATM    7  C23 UNL     1      21.879  48.359  -8.970  1.00  0.00     0.152 A 
HETATM    8  N7  UNL     1      21.056  48.649  -9.995  1.00  0.00    -0.336 N 
ATOM      9  H7  UNL     1      20.256  49.279  -9.938  1.00  0.00     0.168 HD
HETATM   10  C24 UNL     1      21.437  47.994 -11.104  1.00  0.00     0.184 A 
HETATM   11  N8  UNL     1      22.534  47.264 -10.771  1.00  0.00    -0.341 N 
HETATM   12  C25 UNL     1      23.289  46.395 -11.653  1.00  0.00     0.157 C 
HETATM   13  C26 UNL     1      22.803  47.483  -9.480  1.00  0.00     0.125 A 
ENDROOT
BRANCH   4  14
HETATM   14  N4  UNL     1      22.977  48.623  -5.614  1.00  0.00    -0.215 N 
ATOM     15  H4  UNL     1      23.765  49.169  -5.265  1.00  0.00     0.178 HD
BRANCH  14  16
HETATM   16  C8  UNL     1      21.894  48.242  -4.736  1.00  0.00     0.232 C 
BRANCH  16  17
HETATM   17  C9  UNL     1      22.281  47.071  -3.911  1.00  0.00    -0.086 C 
BRANCH  17  18
HETATM   18  C10 UNL     1      22.614  46.118  -3.253  1.00  0.00    -0.105 C 
BRANCH  18  19
HETATM   19  C11 UNL     1      23.005  44.929  -2.455  1.00  0.00     0.094 C 
BRANCH  19  20
HETATM   20  C12 UNL     1      22.161  43.784  -2.966  1.00  0.00     0.017 C 
BRANCH  20  21
HETATM   21  C13 UNL     1      20.726  44.128  -3.176  1.00  0.00     0.039 C 
BRANCH  21  22
HETATM   22  C14 UNL     1      19.965  43.866  -1.942  1.00  0.00    -0.058 A 
HETATM   23  C15 UNL     1      19.647  44.892  -1.064  1.00  0.00     0.009 A 
HETATM   24  C16 UNL     1      18.921  44.578   0.072  1.00  0.00     0.038 A 
HETATM   25  C17 UNL     1      18.507  43.316   0.363  1.00  0.00     0.135 A 
HETATM   26  C21 UNL     1      18.835  42.297  -0.529  1.00  0.00     0.038 A 
HETATM   27  C22 UNL     1      19.554  42.587  -1.661  1.00  0.00     0.009 A 
BRANCH  25  28
HETATM   28  N5  UNL     1      17.756  42.980   1.526  1.00  0.00    -0.049 N 
HETATM   29  C18 UNL     1      17.541  41.543   1.563  1.00  0.00     0.278 C 
HETATM   30  C19 UNL     1      18.345  43.435   2.752  1.00  0.00     0.278 C 
HETATM   31  C20 UNL     1      16.431  43.594   1.351  1.00  0.00     0.278 C 
ENDBRANCH  25  28
ENDBRANCH  21  22
ENDBRANCH  20  21
ENDBRANCH  19  20
ENDBRANCH  18  19
ENDBRANCH  17  18
ENDBRANCH  16  17
ENDBRANCH  14  16
ENDBRANCH   4  14
BRANCH   1  32
HETATM   32  N2  UNL     1      24.650  46.184  -9.134  1.00  0.00    -0.374 N 
ATOM     33  H2  UNL     1      25.104  46.459 -10.005  1.00  0.00     0.161 HD
BRANCH  32  34
HETATM   34  C5  UNL     1      25.003  44.926  -8.579  1.00  0.00     0.123 C 
BRANCH  34  35
HETATM   35  C4  UNL     1      23.946  43.891  -8.958  1.00  0.00     0.050 C 
BRANCH  35  36
HETATM   36  C3  UNL     1      23.310  43.305  -7.713  1.00  0.00     0.273 C 
BRANCH  36  37
HETATM   37  N1  UNL     1      21.889  43.580  -7.699  1.00  0.00     0.080 N 
HETATM   38  C1  UNL     1      21.433  44.041  -9.016  1.00  0.00     0.309 C 
HETATM   39  C2  UNL     1      21.669  44.674  -6.766  1.00  0.00     0.309 C 
ENDBRANCH  36  37
ENDBRANCH  35  36
ENDBRANCH  34  35
ENDBRANCH  32  34
ENDBRANCH   1  32
TORSDOF 14
ENDMDL
MODEL 3
REMARK VINA RESULT: -5.992285011      1.279      2.696
REMARK  14 active torsions:
REMARK  status: ('A' for Active; 'I' for Inactive)
REMARK    1  A    between atoms: N1_2  and  C3_4 
REMARK    2  A    between atoms: C3_4  and  C4_5 
REMARK    3  A    between atoms: C4_5  and  C5_6 
REMARK    4  A    between atoms: C5_6  and  N2_7 
REMARK    5  A    between atoms: N2_7  and  C6_9 
REMARK    6  A    between atoms: C7_12  and  N4_13 
REMARK    7  A    between atoms: N4_13  and  C8_15 
REMARK    8  A    between atoms: C8_15  and  C9_16 
REMARK    9  A    between atoms: C9_16  and  C10_17 
REMARK   10  A    between atoms: C10_17  and  C11_18 
REMARK   11  A    between atoms: C11_18  and  C12_19 
REMARK   12  A    between atoms: C12_19  and  C13_20 
REMARK   13  A    between atoms: C13_20  and  C14_21 
REMARK   14  A    between atoms: C17_24  and  N5_25 
ROOT
HETATM    1  C6  UNL     1      22.548  48.037  -9.025  1.00  0.00     0.147 A 
HETATM    2  N3  UNL     1      22.453  48.724  -7.875  1.00  0.00    -0.175 N 
ATOM      3  H3  UNL     1      21.904  49.584  -7.858  1.00  0.00     0.186 HD
HETATM    4  C7  UNL     1      23.061  48.315  -6.740  1.00  0.00     0.682 A 
HETATM    5  N6  UNL     1      23.779  47.175  -6.794  1.00  0.00    -0.174 N 
ATOM      6  H6  UNL     1      24.242  46.858  -5.942  1.00  0.00     0.186 HD
HETATM    7  C23 UNL     1      23.921  46.436  -7.901  1.00  0.00     0.152 A 
HETATM    8  N7  UNL     1      24.558  45.296  -8.227  1.00  0.00    -0.336 N 
ATOM      9  H7  UNL     1      25.115  44.737  -7.581  1.00  0.00     0.168 HD
HETATM   10  C24 UNL     1      24.358  44.998  -9.521  1.00  0.00     0.184 A 
HETATM   11  N8  UNL     1      23.570  45.981 -10.033  1.00  0.00    -0.341 N 
HETATM   12  C25 UNL     1      23.094  46.079 -11.399  1.00  0.00     0.157 C 
HETATM   13  C26 UNL     1      23.304  46.852  -9.054  1.00  0.00     0.125 A 
ENDROOT
BRANCH   4  14
HETATM   14  N4  UNL     1      22.952  48.996  -5.655  1.00  0.00    -0.215 N 
ATOM     15  H4  UNL     1      23.650  49.697  -5.407  1.00  0.00     0.178 HD
BRANCH  14  16
HETATM   16  C8  UNL     1      21.818  48.745  -4.794  1.00  0.00     0.232 C 
BRANCH  16  17
HETATM   17  C9  UNL     1      21.873  47.367  -4.249  1.00  0.00    -0.086 C 
BRANCH  17  18
HETATM   18  C10 UNL     1      21.913  46.239  -3.826  1.00  0.00    -0.105 C 
BRANCH  18  19
HETATM   19  C11 UNL     1      21.977  44.842  -3.327  1.00  0.00     0.094 C 
BRANCH  19  20
HETATM   20  C12 UNL     1      20.607  44.534  -2.766  1.00  0.00     0.017 C 
BRANCH  20  21
HETATM   21  C13 UNL     1      20.547  44.510  -1.277  1.00  0.00     0.039 C 
BRANCH  21  22
HETATM   22  C14 UNL     1      19.272  43.916  -0.838  1.00  0.00    -0.058 A 
HETATM   23  C15 UNL     1      18.942  42.608  -1.160  1.00  0.00     0.009 A 
HETATM   24  C16 UNL     1      17.734  42.108  -0.709  1.00  0.00     0.038 A 
HETATM   25  C17 UNL     1      16.860  42.840   0.035  1.00  0.00     0.135 A 
HETATM   26  C21 UNL     1      17.206  44.151   0.349  1.00  0.00     0.038 A 
HETATM   27  C22 UNL     1      18.400  44.665  -0.090  1.00  0.00     0.009 A 
BRANCH  25  28
HETATM   28  N5  UNL     1      15.614  42.337   0.510  1.00  0.00    -0.049 N 
HETATM   29  C18 UNL     1      15.314  42.935   1.800  1.00  0.00     0.278 C 
HETATM   30  C19 UNL     1      14.524  42.525  -0.401  1.00  0.00     0.278 C 
HETATM   31  C20 UNL     1      15.818  40.900   0.755  1.00  0.00     0.278 C 
ENDBRANCH  25  28
ENDBRANCH  21  22
ENDBRANCH  20  21
ENDBRANCH  19  20
ENDBRANCH  18  19
ENDBRANCH  17  18
ENDBRANCH  16  17
ENDBRANCH  14  16
ENDBRANCH   4  14
BRANCH   1  32
HETATM   32  N2  UNL     1      21.991  48.394 -10.110  1.00  0.00    -0.374 N 
ATOM     33  H2  UNL     1      22.599  48.620 -10.898  1.00  0.00     0.161 HD
BRANCH  32  34
HETATM   34  C5  UNL     1      20.590  48.501 -10.310  1.00  0.00     0.123 C 
BRANCH  34  35
HETATM   35  C4  UNL     1      19.898  47.276  -9.717  1.00  0.00     0.050 C 
BRANCH  35  36
HETATM   36  C3  UNL     1      19.485  46.318 -10.815  1.00  0.00     0.273 C 
BRANCH  36  37
HETATM   37  N1  UNL     1      19.185  45.016 -10.260  1.00  0.00     0.080 N 
HETATM   38  C1  UNL     1      17.893  45.031  -9.562  1.00  0.00     0.309 C 
HETATM   39  C2  UNL     1      20.202  44.725  -9.263  1.00  0.00     0.309 C 
ENDBRANCH  36  37
ENDBRANCH  35  36
ENDBRANCH  34  35
ENDBRANCH  32  34
ENDBRANCH   1  32
TORSDOF 14
ENDMDL
MODEL 4
REMARK VINA RESULT: -5.972924865      1.145      1.379
REMARK  14 active torsions:
REMARK  status: ('A' for Active; 'I' for Inactive)
REMARK    1  A    between atoms: N1_2  and  C3_4 
REMARK    2  A    between atoms: C3_4  and  C4_5 
REMARK    3  A    between atoms: C4_5  and  C5_6 
REMARK    4  A    between atoms: C5_6  and  N2_7 
REMARK    5  A    between atoms: N2_7  and  C6_9 
REMARK    6  A    between atoms: C7_12  and  N4_13 
REMARK    7  A    between atoms: N4_13  and  C8_15 
REMARK    8  A    between atoms: C8_15  and  C9_16 
REMARK    9  A    between atoms: C9_16  and  C10_17 
REMARK   10  A    between atoms: C10_17  and  C11_18 
REMARK   11  A    between atoms: C11_18  and  C12_19 
REMARK   12  A    between atoms: C12_19  and  C13_20 
REMARK   13  A    between atoms: C13_20  and  C14_21 
REMARK   14  A    between atoms: C17_24  and  N5_25 
ROOT
HETATM    1  C6  UNL     1      23.735  46.798  -8.606  1.00  0.00     0.147 A 
HETATM    2  N3  UNL     1      23.828  47.268  -7.351  1.00  0.00    -0.175 N 
ATOM      3  H3  UNL     1      24.542  46.883  -6.733  1.00  0.00     0.186 HD
HETATM    4  C7  UNL     1      23.008  48.234  -6.882  1.00  0.00     0.682 A 
HETATM    5  N6  UNL     1      22.075  48.722  -7.723  1.00  0.00    -0.174 N 
ATOM      6  H6  UNL     1      21.452  49.452  -7.378  1.00  0.00     0.186 HD
HETATM    7  C23 UNL     1      21.920  48.306  -8.986  1.00  0.00     0.152 A 
HETATM    8  N7  UNL     1      21.099  48.609 -10.009  1.00  0.00    -0.336 N 
ATOM      9  H7  UNL     1      20.359  49.309  -9.972  1.00  0.00     0.168 HD
HETATM   10  C24 UNL     1      21.393  47.861 -11.085  1.00  0.00     0.184 A 
HETATM   11  N8  UNL     1      22.431  47.057 -10.733  1.00  0.00    -0.341 N 
HETATM   12  C25 UNL     1      23.085  46.076 -11.577  1.00  0.00     0.157 C 
HETATM   13  C26 UNL     1      22.752  47.325  -9.463  1.00  0.00     0.125 A 
ENDROOT
BRANCH   4  14
HETATM   14  N4  UNL     1      23.123  48.662  -5.675  1.00  0.00    -0.215 N 
ATOM     15  H4  UNL     1      24.001  49.063  -5.346  1.00  0.00     0.178 HD
BRANCH  14  16
HETATM   16  C8  UNL     1      21.980  48.561  -4.796  1.00  0.00     0.232 C 
BRANCH  16  17
HETATM   17  C9  UNL     1      21.796  47.162  -4.340  1.00  0.00    -0.086 C 
BRANCH  17  18
HETATM   18  C10 UNL     1      21.659  46.029  -3.951  1.00  0.00    -0.105 C 
BRANCH  18  19
HETATM   19  C11 UNL     1      21.513  44.627  -3.484  1.00  0.00     0.094 C 
BRANCH  19  20
HETATM   20  C12 UNL     1      20.425  44.645  -2.435  1.00  0.00     0.017 C 
BRANCH  20  21
HETATM   21  C13 UNL     1      20.912  44.919  -1.053  1.00  0.00     0.039 C 
BRANCH  21  22
HETATM   22  C14 UNL     1      19.909  44.472  -0.072  1.00  0.00    -0.058 A 
HETATM   23  C15 UNL     1      18.562  44.418  -0.398  1.00  0.00     0.009 A 
HETATM   24  C16 UNL     1      17.673  43.980   0.568  1.00  0.00     0.038 A 
HETATM   25  C17 UNL     1      18.060  43.600   1.816  1.00  0.00     0.135 A 
HETATM   26  C21 UNL     1      19.416  43.660   2.127  1.00  0.00     0.038 A 
HETATM   27  C22 UNL     1      20.314  44.093   1.183  1.00  0.00     0.009 A 
BRANCH  25  28
HETATM   28  N5  UNL     1      17.157  43.143   2.818  1.00  0.00    -0.049 N 
HETATM   29  C18 UNL     1      17.146  41.690   2.830  1.00  0.00     0.278 C 
HETATM   30  C19 UNL     1      17.429  43.659   4.127  1.00  0.00     0.278 C 
HETATM   31  C20 UNL     1      15.815  43.564   2.384  1.00  0.00     0.278 C 
ENDBRANCH  25  28
ENDBRANCH  21  22
ENDBRANCH  20  21
ENDBRANCH  19  20
ENDBRANCH  18  19
ENDBRANCH  17  18
ENDBRANCH  16  17
ENDBRANCH  14  16
ENDBRANCH   4  14
BRANCH   1  32
HETATM   32  N2  UNL     1      24.487  45.890  -9.080  1.00  0.00    -0.374 N 
ATOM     33  H2  UNL     1      24.818  46.006 -10.037  1.00  0.00     0.161 HD
BRANCH  32  34
HETATM   34  C5  UNL     1      24.900  44.727  -8.378  1.00  0.00     0.123 C 
BRANCH  34  35
HETATM   35  C4  UNL     1      23.752  43.721  -8.343  1.00  0.00     0.050 C 
BRANCH  35  36
HETATM   36  C3  UNL     1      23.158  43.646  -6.951  1.00  0.00     0.273 C 
BRANCH  36  37
HETATM   37  N1  UNL     1      21.715  43.729  -7.016  1.00  0.00     0.080 N 
HETATM   38  C1  UNL     1      21.100  42.453  -6.628  1.00  0.00     0.309 C 
HETATM   39  C2  UNL     1      21.356  43.968  -8.404  1.00  0.00     0.309 C 
ENDBRANCH  36  37
ENDBRANCH  35  36
ENDBRANCH  34  35
ENDBRANCH  32  34
ENDBRANCH   1  32
TORSDOF 14
ENDMDL
MODEL 5
REMARK VINA RESULT: -5.966626727      3.058      4.434
REMARK  14 active torsions:
REMARK  status: ('A' for Active; 'I' for Inactive)
REMARK    1  A    between atoms: N1_2  and  C3_4 
REMARK    2  A    between atoms: C3_4  and  C4_5 
REMARK    3  A    between atoms: C4_5  and  C5_6 
REMARK    4  A    between atoms: C5_6  and  N2_7 
REMARK    5  A    between atoms: N2_7  and  C6_9 
REMARK    6  A    between atoms: C7_12  and  N4_13 
REMARK    7  A    between atoms: N4_13  and  C8_15 
REMARK    8  A    between atoms: C8_15  and  C9_16 
REMARK    9  A    between atoms: C9_16  and  C10_17 
REMARK   10  A    between atoms: C10_17  and  C11_18 
REMARK   11  A    between atoms: C11_18  and  C12_19 
REMARK   12  A    between atoms: C12_19  and  C13_20 
REMARK   13  A    between atoms: C13_20  and  C14_21 
REMARK   14  A    between atoms: C17_24  and  N5_25 
ROOT
HETATM    1  C6  UNL     1      23.745  46.630  -8.110  1.00  0.00     0.147 A 
HETATM    2  N3  UNL     1      23.786  47.297  -6.945  1.00  0.00    -0.175 N 
ATOM      3  H3  UNL     1      24.386  46.947  -6.198  1.00  0.00     0.186 HD
HETATM    4  C7  UNL     1      23.059  48.414  -6.729  1.00  0.00     0.682 A 
HETATM    5  N6  UNL     1      22.275  48.852  -7.736  1.00  0.00    -0.174 N 
ATOM      6  H6  UNL     1      21.723  49.696  -7.582  1.00  0.00     0.186 HD
HETATM    7  C23 UNL     1      22.181  48.244  -8.924  1.00  0.00     0.152 A 
HETATM    8  N7  UNL     1      21.501  48.455 -10.066  1.00  0.00    -0.336 N 
ATOM      9  H7  UNL     1      20.857  49.229 -10.224  1.00  0.00     0.168 HD
HETATM   10  C24 UNL     1      21.791  47.504 -10.970  1.00  0.00     0.184 A 
HETATM   11  N8  UNL     1      22.682  46.662 -10.381  1.00  0.00    -0.341 N 
HETATM   12  C25 UNL     1      23.277  45.483 -10.980  1.00  0.00     0.157 C 
HETATM   13  C26 UNL     1      22.919  47.108  -9.143  1.00  0.00     0.125 A 
ENDROOT
BRANCH   4  14
HETATM   14  N4  UNL     1      23.119  49.029  -5.602  1.00  0.00    -0.215 N 
ATOM     15  H4  UNL     1      23.933  49.594  -5.359  1.00  0.00     0.178 HD
BRANCH  14  16
HETATM   16  C8  UNL     1      22.008  48.902  -4.686  1.00  0.00     0.232 C 
BRANCH  16  17
HETATM   17  C9  UNL     1      21.772  47.477  -4.350  1.00  0.00    -0.086 C 
BRANCH  17  18
HETATM   18  C10 UNL     1      21.568  46.317  -4.096  1.00  0.00    -0.105 C 
BRANCH  18  19
HETATM   19  C11 UNL     1      21.306  44.884  -3.807  1.00  0.00     0.094 C 
BRANCH  19  20
HETATM   20  C12 UNL     1      20.668  44.841  -2.437  1.00  0.00     0.017 C 
BRANCH  20  21
HETATM   21  C13 UNL     1      21.060  43.661  -1.616  1.00  0.00     0.039 C 
BRANCH  21  22
HETATM   22  C14 UNL     1      22.105  44.049  -0.653  1.00  0.00    -0.058 A 
HETATM   23  C15 UNL     1      23.121  44.924  -1.009  1.00  0.00     0.009 A 
HETATM   24  C16 UNL     1      24.065  45.253  -0.054  1.00  0.00     0.038 A 
HETATM   25  C17 UNL     1      24.041  44.761   1.215  1.00  0.00     0.135 A 
HETATM   26  C21 UNL     1      23.015  43.884   1.557  1.00  0.00     0.038 A 
HETATM   27  C22 UNL     1      22.069  43.544   0.622  1.00  0.00     0.009 A 
BRANCH  25  28
HETATM   28  N5  UNL     1      25.004  45.096   2.210  1.00  0.00    -0.049 N 
HETATM   29  C18 UNL     1      24.338  45.250   3.492  1.00  0.00     0.278 C 
HETATM   30  C19 UNL     1      26.087  44.162   2.311  1.00  0.00     0.278 C 
HETATM   31  C20 UNL     1      25.523  46.424   1.849  1.00  0.00     0.278 C 
ENDBRANCH  25  28
ENDBRANCH  21  22
ENDBRANCH  20  21
ENDBRANCH  19  20
ENDBRANCH  18  19
ENDBRANCH  17  18
ENDBRANCH  16  17
ENDBRANCH  14  16
ENDBRANCH   4  14
BRANCH   1  32
HETATM   32  N2  UNL     1      24.413  45.575  -8.346  1.00  0.00    -0.374 N 
ATOM     33  H2  UNL     1      24.910  45.523  -9.235  1.00  0.00     0.161 HD
BRANCH  32  34
HETATM   34  C5  UNL     1      24.520  44.465  -7.468  1.00  0.00     0.123 C 
BRANCH  34  35
HETATM   35  C4  UNL     1      23.129  43.898  -7.196  1.00  0.00     0.050 C 
BRANCH  35  36
HETATM   36  C3  UNL     1      22.706  42.975  -8.321  1.00  0.00     0.273 C 
BRANCH  36  37
HETATM   37  N1  UNL     1      21.263  42.893  -8.388  1.00  0.00     0.080 N 
HETATM   38  C1  UNL     1      20.664  44.233  -8.420  1.00  0.00     0.309 C 
HETATM   39  C2  UNL     1      20.807  42.254  -7.163  1.00  0.00     0.309 C 
ENDBRANCH  36  37
ENDBRANCH  35  36
ENDBRANCH  34  35
ENDBRANCH  32  34
ENDBRANCH   1  32
TORSDOF 14
ENDMDL
