MODEL 1
REMARK VINA RESULT: -7.235742382      0.000      0.000
REMARK  11 active torsions:
REMARK  status: ('A' for Active; 'I' for Inactive)
REMARK    1  A    between atoms: C4_4  and  C5_5 
REMARK    2  A    between atoms: C5_5  and  C6_6 
REMARK    3  A    between atoms: C10_10  and  C11_11 
REMARK    4  A    between atoms: C11_11  and  C12_12 
REMARK    5  A    between atoms: C12_12  and  C13_13 
REMARK    6  A    between atoms: C13_13  and  C14_14 
REMARK    7  A    between atoms: C21_21  and  S1_22 
REMARK    8  A    between atoms: S1_22  and  N1_25 
REMARK    9  A    between atoms: N1_25  and  C22_27 
REMARK   10  A    between atoms: C22_27  and  C23_28 
REMARK   11  A    between atoms: C23_28  and  O3_29 
ROOT
HETATM    1  C1  UNL     1      18.731  43.366   1.984  1.00  0.00     0.044 C 
HETATM    2  C2  UNL     1      19.563  43.762   2.905  1.00  0.00     0.038 A 
HETATM    3  C3  UNL     1      20.981  44.008   2.724  1.00  0.00     0.029 A 
HETATM    4  C4  UNL     1      21.616  43.737   1.544  1.00  0.00    -0.021 A 
HETATM    5  C19 UNL     1      22.996  43.979   1.468  1.00  0.00     0.014 A 
HETATM    6  C20 UNL     1      23.721  44.463   2.504  1.00  0.00     0.028 A 
HETATM    7  C21 UNL     1      23.080  44.745   3.721  1.00  0.00     0.107 A 
HETATM    8  C24 UNL     1      21.742  44.512   3.809  1.00  0.00     0.070 A 
HETATM    9  N2  UNL     1      21.073  44.753   5.050  1.00  0.00    -0.350 N 
ATOM     10  H2  UNL     1      21.598  45.113   5.847  1.00  0.00     0.166 HD
HETATM   11  C25 UNL     1      19.684  44.496   5.182  1.00  0.00     0.183 A 
HETATM   12  N3  UNL     1      18.986  44.046   4.219  1.00  0.00    -0.347 N 
HETATM   13  C26 UNL     1      17.581  43.817   4.453  1.00  0.00     0.157 C 
ENDROOT
BRANCH   4  14
HETATM   14  C5  UNL     1      21.006  43.178   0.356  1.00  0.00     0.024 C 
BRANCH  14  15
HETATM   15  C6  UNL     1      21.166  43.746  -0.844  1.00  0.00    -0.025 A 
HETATM   16  C7  UNL     1      22.235  43.378  -1.663  1.00  0.00     0.019 A 
HETATM   17  C8  UNL     1      22.453  43.932  -2.909  1.00  0.00    -0.055 A 
HETATM   18  C9  UNL     1      23.618  43.510  -3.755  1.00  0.00     0.049 C 
HETATM   19  C10 UNL     1      21.596  44.884  -3.380  1.00  0.00    -0.051 A 
HETATM   20  C16 UNL     1      20.536  45.264  -2.597  1.00  0.00     0.019 A 
HETATM   21  C17 UNL     1      20.327  44.705  -1.352  1.00  0.00    -0.035 A 
HETATM   22  C18 UNL     1      19.278  45.144  -0.692  1.00  0.00     0.024 C 
BRANCH  19  23
HETATM   23  C11 UNL     1      21.770  45.525  -4.728  1.00  0.00     0.039 C 
BRANCH  23  24
HETATM   24  C12 UNL     1      21.866  47.036  -4.602  1.00  0.00     0.005 C 
BRANCH  24  25
HETATM   25  C13 UNL     1      22.141  47.669  -5.952  1.00  0.00    -0.000 C 
BRANCH  25  26
HETATM   26  C14 UNL     1      22.630  49.077  -5.747  1.00  0.00    -0.005 C 
HETATM   27  C15 UNL     1      22.005  49.759  -4.566  1.00  0.00     0.005 C 
ENDBRANCH  25  26
ENDBRANCH  24  25
ENDBRANCH  23  24
ENDBRANCH  19  23
ENDBRANCH  14  15
ENDBRANCH   4  14
BRANCH   7  28
HETATM   28  S1  UNL     1      24.057  45.456   4.941  1.00  0.00     0.261 S 
HETATM   29  O1  UNL     1      24.177  44.517   6.145  1.00  0.00    -0.200 OA
HETATM   30  O2  UNL     1      23.473  46.721   5.535  1.00  0.00    -0.200 OA
BRANCH  28  31
HETATM   31  N1  UNL     1      25.621  45.802   4.373  1.00  0.00    -0.313 N 
ATOM     32  H1  UNL     1      26.279  45.061   4.133  1.00  0.00     0.172 HD
BRANCH  31  33
HETATM   33  C22 UNL     1      25.964  47.157   4.250  1.00  0.00     0.158 C 
BRANCH  33  34
HETATM   34  C23 UNL     1      25.910  47.511   2.745  1.00  0.00     0.184 C 
BRANCH  34  35
HETATM   35  O3  UNL     1      25.713  48.872   2.583  1.00  0.00    -0.399 OA
ATOM     36  H3  UNL     1      24.808  49.046   2.353  1.00  0.00     0.209 HD
ENDBRANCH  34  35
ENDBRANCH  33  34
ENDBRANCH  31  33
ENDBRANCH  28  31
ENDBRANCH   7  28
TORSDOF 11
ENDMDL
MODEL 2
REMARK VINA RESULT: -7.150595542      5.233      8.482
REMARK  11 active torsions:
REMARK  status: ('A' for Active; 'I' for Inactive)
REMARK    1  A    between atoms: C4_4  and  C5_5 
REMARK    2  A    between atoms: C5_5  and  C6_6 
REMARK    3  A    between atoms: C10_10  and  C11_11 
REMARK    4  A    between atoms: C11_11  and  C12_12 
REMARK    5  A    between atoms: C12_12  and  C13_13 
REMARK    6  A    between atoms: C13_13  and  C14_14 
REMARK    7  A    between atoms: C21_21  and  S1_22 
REMARK    8  A    between atoms: S1_22  and  N1_25 
REMARK    9  A    between atoms: N1_25  and  C22_27 
REMARK   10  A    between atoms: C22_27  and  C23_28 
REMARK   11  A    between atoms: C23_28  and  O3_29 
ROOT
HETATM    1  C1  UNL     1      20.674  41.434  -4.082  1.00  0.00     0.044 C 
HETATM    2  C2  UNL     1      21.126  42.277  -4.967  1.00  0.00     0.038 A 
HETATM    3  C3  UNL     1      21.395  43.684  -4.743  1.00  0.00     0.029 A 
HETATM    4  C4  UNL     1      21.088  44.300  -3.561  1.00  0.00    -0.021 A 
HETATM    5  C19 UNL     1      21.355  45.671  -3.443  1.00  0.00     0.014 A 
HETATM    6  C20 UNL     1      21.899  46.408  -4.442  1.00  0.00     0.028 A 
HETATM    7  C21 UNL     1      22.217  45.788  -5.660  1.00  0.00     0.107 A 
HETATM    8  C24 UNL     1      21.960  44.458  -5.789  1.00  0.00     0.070 A 
HETATM    9  N2  UNL     1      22.238  43.811  -7.034  1.00  0.00    -0.350 N 
ATOM     10  H2  UNL     1      22.643  44.346  -7.803  1.00  0.00     0.166 HD
HETATM   11  C25 UNL     1      21.957  42.432  -7.208  1.00  0.00     0.183 A 
HETATM   12  N3  UNL     1      21.452  41.723  -6.281  1.00  0.00    -0.347 N 
HETATM   13  C26 UNL     1      21.203  40.329  -6.557  1.00  0.00     0.157 C 
ENDROOT
BRANCH   4  14
HETATM   14  C5  UNL     1      20.466  43.676  -2.412  1.00  0.00     0.024 C 
BRANCH  14  15
HETATM   15  C6  UNL     1      21.089  43.612  -1.230  1.00  0.00    -0.025 A 
HETATM   16  C7  UNL     1      22.341  43.002  -1.124  1.00  0.00     0.019 A 
HETATM   17  C8  UNL     1      23.030  42.903   0.069  1.00  0.00    -0.055 A 
HETATM   18  C9  UNL     1      24.372  42.235   0.140  1.00  0.00     0.049 C 
HETATM   19  C10 UNL     1      22.480  43.418   1.207  1.00  0.00    -0.051 A 
HETATM   20  C16 UNL     1      21.251  44.023   1.132  1.00  0.00     0.019 A 
HETATM   21  C17 UNL     1      20.570  44.117  -0.066  1.00  0.00    -0.035 A 
HETATM   22  C18 UNL     1      19.403  44.720  -0.019  1.00  0.00     0.024 C 
BRANCH  19  23
HETATM   23  C11 UNL     1      23.176  43.349   2.537  1.00  0.00     0.039 C 
BRANCH  23  24
HETATM   24  C12 UNL     1      23.659  44.723   2.969  1.00  0.00     0.005 C 
BRANCH  24  25
HETATM   25  C13 UNL     1      25.111  44.926   2.582  1.00  0.00    -0.000 C 
BRANCH  25  26
HETATM   26  C14 UNL     1      25.216  46.110   1.660  1.00  0.00    -0.005 C 
HETATM   27  C15 UNL     1      25.979  47.259   2.250  1.00  0.00     0.005 C 
ENDBRANCH  25  26
ENDBRANCH  24  25
ENDBRANCH  23  24
ENDBRANCH  19  23
ENDBRANCH  14  15
ENDBRANCH   4  14
BRANCH   7  28
HETATM   28  S1  UNL     1      23.000  46.776  -6.827  1.00  0.00     0.261 S 
HETATM   29  O1  UNL     1      22.058  47.067  -7.999  1.00  0.00    -0.200 OA
HETATM   30  O2  UNL     1      24.193  46.117  -7.487  1.00  0.00    -0.200 OA
BRANCH  28  31
HETATM   31  N1  UNL     1      23.504  48.257  -6.162  1.00  0.00    -0.313 N 
ATOM     32  H1  UNL     1      24.376  48.339  -5.641  1.00  0.00     0.172 HD
BRANCH  31  33
HETATM   33  C22 UNL     1      22.662  49.360  -6.365  1.00  0.00     0.158 C 
BRANCH  33  34
HETATM   34  C23 UNL     1      22.327  49.947  -4.972  1.00  0.00     0.184 C 
BRANCH  34  35
HETATM   35  O3  UNL     1      23.299  49.583  -4.056  1.00  0.00    -0.399 OA
ATOM     36  H3  UNL     1      22.974  49.700  -3.171  1.00  0.00     0.209 HD
ENDBRANCH  34  35
ENDBRANCH  33  34
ENDBRANCH  31  33
ENDBRANCH  28  31
ENDBRANCH   7  28
TORSDOF 11
ENDMDL
MODEL 3
REMARK VINA RESULT: -7.052558518      2.221      3.767
REMARK  11 active torsions:
REMARK  status: ('A' for Active; 'I' for Inactive)
REMARK    1  A    between atoms: C4_4  and  C5_5 
REMARK    2  A    between atoms: C5_5  and  C6_6 
REMARK    3  A    between atoms: C10_10  and  C11_11 
REMARK    4  A    between atoms: C11_11  and  C12_12 
REMARK    5  A    between atoms: C12_12  and  C13_13 
REMARK    6  A    between atoms: C13_13  and  C14_14 
REMARK    7  A    between atoms: C21_21  and  S1_22 
REMARK    8  A    between atoms: S1_22  and  N1_25 
REMARK    9  A    between atoms: N1_25  and  C22_27 
REMARK   10  A    between atoms: C22_27  and  C23_28 
REMARK   11  A    between atoms: C23_28  and  O3_29 
ROOT
HETATM    1  C1  UNL     1      19.027  44.329  -1.061  1.00  0.00     0.044 C 
HETATM    2  C2  UNL     1      19.966  44.232  -0.163  1.00  0.00     0.038 A 
HETATM    3  C3  UNL     1      21.376  44.504  -0.372  1.00  0.00     0.029 A 
HETATM    4  C4  UNL     1      21.879  44.801  -1.609  1.00  0.00    -0.021 A 
HETATM    5  C19 UNL     1      23.259  45.021  -1.724  1.00  0.00     0.014 A 
HETATM    6  C20 UNL     1      24.109  44.951  -0.671  1.00  0.00     0.028 A 
HETATM    7  C21 UNL     1      23.606  44.647   0.603  1.00  0.00     0.107 A 
HETATM    8  C24 UNL     1      22.268  44.428   0.727  1.00  0.00     0.070 A 
HETATM    9  N2  UNL     1      21.735  44.077   2.008  1.00  0.00    -0.350 N 
ATOM     10  H2  UNL     1      22.357  44.012   2.814  1.00  0.00     0.166 HD
HETATM   11  C25 UNL     1      20.350  43.817   2.165  1.00  0.00     0.183 A 
HETATM   12  N3  UNL     1      19.535  43.883   1.190  1.00  0.00    -0.347 N 
HETATM   13  C26 UNL     1      18.144  43.601   1.453  1.00  0.00     0.157 C 
ENDROOT
BRANCH   4  14
HETATM   14  C5  UNL     1      21.122  44.873  -2.841  1.00  0.00     0.024 C 
BRANCH  14  15
HETATM   15  C6  UNL     1      21.525  45.635  -3.864  1.00  0.00    -0.025 A 
HETATM   16  C7  UNL     1      21.554  47.026  -3.740  1.00  0.00     0.019 A 
HETATM   17  C8  UNL     1      21.956  47.863  -4.761  1.00  0.00    -0.055 A 
HETATM   18  C9  UNL     1      21.968  49.354  -4.586  1.00  0.00     0.049 C 
HETATM   19  C10 UNL     1      22.348  47.329  -5.954  1.00  0.00    -0.051 A 
HETATM   20  C16 UNL     1      22.330  45.965  -6.104  1.00  0.00     0.019 A 
HETATM   21  C17 UNL     1      21.926  45.136  -5.077  1.00  0.00    -0.035 A 
HETATM   22  C18 UNL     1      21.952  43.846  -5.333  1.00  0.00     0.024 C 
BRANCH  19  23
HETATM   23  C11 UNL     1      22.801  48.180  -7.106  1.00  0.00     0.039 C 
BRANCH  23  24
HETATM   24  C12 UNL     1      22.421  47.546  -8.433  1.00  0.00     0.005 C 
BRANCH  24  25
HETATM   25  C13 UNL     1      23.590  47.585  -9.399  1.00  0.00    -0.000 C 
BRANCH  25  26
HETATM   26  C14 UNL     1      23.977  46.178  -9.762  1.00  0.00    -0.005 C 
HETATM   27  C15 UNL     1      24.958  45.564  -8.807  1.00  0.00     0.005 C 
ENDBRANCH  25  26
ENDBRANCH  24  25
ENDBRANCH  23  24
ENDBRANCH  19  23
ENDBRANCH  14  15
ENDBRANCH   4  14
BRANCH   7  28
HETATM   28  S1  UNL     1      24.739  44.686   1.892  1.00  0.00     0.261 S 
HETATM   29  O1  UNL     1      25.987  43.876   1.531  1.00  0.00    -0.200 OA
HETATM   30  O2  UNL     1      24.245  44.029   3.164  1.00  0.00    -0.200 OA
BRANCH  28  31
HETATM   31  N1  UNL     1      25.219  46.275   2.260  1.00  0.00    -0.313 N 
ATOM     32  H1  UNL     1      25.004  47.055   1.639  1.00  0.00     0.172 HD
BRANCH  31  33
HETATM   33  C22 UNL     1      25.924  46.461   3.457  1.00  0.00     0.158 C 
BRANCH  33  34
HETATM   34  C23 UNL     1      25.986  47.984   3.725  1.00  0.00     0.184 C 
BRANCH  34  35
HETATM   35  O3  UNL     1      25.754  48.683   2.553  1.00  0.00    -0.399 OA
ATOM     36  H3  UNL     1      26.060  49.579   2.639  1.00  0.00     0.209 HD
ENDBRANCH  34  35
ENDBRANCH  33  34
ENDBRANCH  31  33
ENDBRANCH  28  31
ENDBRANCH   7  28
TORSDOF 11
ENDMDL
MODEL 4
REMARK VINA RESULT: -7.025564587      2.096      3.521
REMARK  11 active torsions:
REMARK  status: ('A' for Active; 'I' for Inactive)
REMARK    1  A    between atoms: C4_4  and  C5_5 
REMARK    2  A    between atoms: C5_5  and  C6_6 
REMARK    3  A    between atoms: C10_10  and  C11_11 
REMARK    4  A    between atoms: C11_11  and  C12_12 
REMARK    5  A    between atoms: C12_12  and  C13_13 
REMARK    6  A    between atoms: C13_13  and  C14_14 
REMARK    7  A    between atoms: C21_21  and  S1_22 
REMARK    8  A    between atoms: S1_22  and  N1_25 
REMARK    9  A    between atoms: N1_25  and  C22_27 
REMARK   10  A    between atoms: C22_27  and  C23_28 
REMARK   11  A    between atoms: C23_28  and  O3_29 
ROOT
HETATM    1  C1  UNL     1      18.735  44.332  -0.731  1.00  0.00     0.044 C 
HETATM    2  C2  UNL     1      19.693  44.120   0.127  1.00  0.00     0.038 A 
HETATM    3  C3  UNL     1      21.113  44.273  -0.125  1.00  0.00     0.029 A 
HETATM    4  C4  UNL     1      21.598  44.567  -1.369  1.00  0.00    -0.021 A 
HETATM    5  C19 UNL     1      22.988  44.668  -1.528  1.00  0.00     0.014 A 
HETATM    6  C20 UNL     1      23.864  44.485  -0.511  1.00  0.00     0.028 A 
HETATM    7  C21 UNL     1      23.379  44.182   0.771  1.00  0.00     0.107 A 
HETATM    8  C24 UNL     1      22.031  44.079   0.938  1.00  0.00     0.070 A 
HETATM    9  N2  UNL     1      21.513  43.732   2.225  1.00  0.00    -0.350 N 
ATOM     10  H2  UNL     1      22.153  43.584   3.006  1.00  0.00     0.166 HD
HETATM   11  C25 UNL     1      20.116  43.591   2.425  1.00  0.00     0.183 A 
HETATM   12  N3  UNL     1      19.278  43.763   1.484  1.00  0.00    -0.347 N 
HETATM   13  C26 UNL     1      17.877  43.597   1.789  1.00  0.00     0.157 C 
ENDROOT
BRANCH   4  14
HETATM   14  C5  UNL     1      20.810  44.750  -2.570  1.00  0.00     0.024 C 
BRANCH  14  15
HETATM   15  C6  UNL     1      21.303  45.384  -3.639  1.00  0.00    -0.025 A 
HETATM   16  C7  UNL     1      21.472  46.771  -3.622  1.00  0.00     0.019 A 
HETATM   17  C8  UNL     1      21.972  47.480  -4.696  1.00  0.00    -0.055 A 
HETATM   18  C9  UNL     1      22.133  48.971  -4.637  1.00  0.00     0.049 C 
HETATM   19  C10 UNL     1      22.324  46.815  -5.835  1.00  0.00    -0.051 A 
HETATM   20  C16 UNL     1      22.170  45.453  -5.879  1.00  0.00     0.019 A 
HETATM   21  C17 UNL     1      21.668  44.752  -4.800  1.00  0.00    -0.035 A 
HETATM   22  C18 UNL     1      21.567  43.451  -4.955  1.00  0.00     0.024 C 
BRANCH  19  23
HETATM   23  C11 UNL     1      22.879  47.523  -7.038  1.00  0.00     0.039 C 
BRANCH  23  24
HETATM   24  C12 UNL     1      22.385  46.880  -8.323  1.00  0.00     0.005 C 
BRANCH  24  25
HETATM   25  C13 UNL     1      21.702  47.905  -9.206  1.00  0.00    -0.000 C 
BRANCH  25  26
HETATM   26  C14 UNL     1      20.369  47.366  -9.649  1.00  0.00    -0.005 C 
HETATM   27  C15 UNL     1      19.714  46.483  -8.628  1.00  0.00     0.005 C 
ENDBRANCH  25  26
ENDBRANCH  24  25
ENDBRANCH  23  24
ENDBRANCH  19  23
ENDBRANCH  14  15
ENDBRANCH   4  14
BRANCH   7  28
HETATM   28  S1  UNL     1      24.554  44.075   2.017  1.00  0.00     0.261 S 
HETATM   29  O1  UNL     1      25.899  43.616   1.447  1.00  0.00    -0.200 OA
HETATM   30  O2  UNL     1      24.241  43.030   3.069  1.00  0.00    -0.200 OA
BRANCH  28  31
HETATM   31  N1  UNL     1      24.784  45.569   2.796  1.00  0.00    -0.313 N 
ATOM     32  H1  UNL     1      24.339  45.780   3.689  1.00  0.00     0.172 HD
BRANCH  31  33
HETATM   33  C22 UNL     1      25.614  46.497   2.151  1.00  0.00     0.158 C 
BRANCH  33  34
HETATM   34  C23 UNL     1      25.990  47.580   3.190  1.00  0.00     0.184 C 
BRANCH  34  35
HETATM   35  O3  UNL     1      25.741  48.840   2.676  1.00  0.00    -0.399 OA
ATOM     36  H3  UNL     1      25.680  49.475   3.380  1.00  0.00     0.209 HD
ENDBRANCH  34  35
ENDBRANCH  33  34
ENDBRANCH  31  33
ENDBRANCH  28  31
ENDBRANCH   7  28
TORSDOF 11
ENDMDL
MODEL 5
REMARK VINA RESULT: -7.006039525      1.990      3.325
REMARK  11 active torsions:
REMARK  status: ('A' for Active; 'I' for Inactive)
REMARK    1  A    between atoms: C4_4  and  C5_5 
REMARK    2  A    between atoms: C5_5  and  C6_6 
REMARK    3  A    between atoms: C10_10  and  C11_11 
REMARK    4  A    between atoms: C11_11  and  C12_12 
REMARK    5  A    between atoms: C12_12  and  C13_13 
REMARK    6  A    between atoms: C13_13  and  C14_14 
REMARK    7  A    between atoms: C21_21  and  S1_22 
REMARK    8  A    between atoms: S1_22  and  N1_25 
REMARK    9  A    between atoms: N1_25  and  C22_27 
REMARK   10  A    between atoms: C22_27  and  C23_28 
REMARK   11  A    between atoms: C23_28  and  O3_29 
ROOT
HETATM    1  C1  UNL     1      18.591  44.329  -0.089  1.00  0.00     0.044 C 
HETATM    2  C2  UNL     1      19.594  44.078   0.704  1.00  0.00     0.038 A 
HETATM    3  C3  UNL     1      20.994  44.322   0.410  1.00  0.00     0.029 A 
HETATM    4  C4  UNL     1      21.409  44.760  -0.817  1.00  0.00    -0.021 A 
HETATM    5  C19 UNL     1      22.785  44.940  -1.022  1.00  0.00     0.014 A 
HETATM    6  C20 UNL     1      23.713  44.699  -0.065  1.00  0.00     0.028 A 
HETATM    7  C21 UNL     1      23.300  44.248   1.198  1.00  0.00     0.107 A 
HETATM    8  C24 UNL     1      21.967  44.066   1.409  1.00  0.00     0.070 A 
HETATM    9  N2  UNL     1      21.523  43.569   2.675  1.00  0.00    -0.350 N 
ATOM     10  H2  UNL     1      22.204  43.374   3.409  1.00  0.00     0.166 HD
HETATM   11  C25 UNL     1      20.144  43.344   2.916  1.00  0.00     0.183 A 
HETATM   12  N3  UNL     1      19.257  43.570   2.033  1.00  0.00    -0.347 N 
HETATM   13  C26 UNL     1      17.880  43.309   2.377  1.00  0.00     0.157 C 
ENDROOT
BRANCH   4  14
HETATM   14  C5  UNL     1      20.560  45.024  -1.960  1.00  0.00     0.024 C 
BRANCH  14  15
HETATM   15  C6  UNL     1      20.971  44.772  -3.208  1.00  0.00    -0.025 A 
HETATM   16  C7  UNL     1      21.456  45.805  -4.013  1.00  0.00     0.019 A 
HETATM   17  C8  UNL     1      21.890  45.607  -5.308  1.00  0.00    -0.055 A 
HETATM   18  C9  UNL     1      22.401  46.747  -6.141  1.00  0.00     0.049 C 
HETATM   19  C10 UNL     1      21.852  44.353  -5.846  1.00  0.00    -0.051 A 
HETATM   20  C16 UNL     1      21.380  43.319  -5.077  1.00  0.00     0.019 A 
HETATM   21  C17 UNL     1      20.948  43.527  -3.783  1.00  0.00    -0.035 A 
HETATM   22  C18 UNL     1      20.519  42.463  -3.140  1.00  0.00     0.024 C 
BRANCH  19  23
HETATM   23  C11 UNL     1      22.312  44.065  -7.247  1.00  0.00     0.039 C 
BRANCH  23  24
HETATM   24  C12 UNL     1      23.494  43.111  -7.245  1.00  0.00     0.005 C 
BRANCH  24  25
HETATM   25  C13 UNL     1      24.731  43.791  -6.693  1.00  0.00    -0.000 C 
BRANCH  25  26
HETATM   26  C14 UNL     1      25.170  43.080  -5.443  1.00  0.00    -0.005 C 
HETATM   27  C15 UNL     1      25.057  43.922  -4.207  1.00  0.00     0.005 C 
ENDBRANCH  25  26
ENDBRANCH  24  25
ENDBRANCH  23  24
ENDBRANCH  19  23
ENDBRANCH  14  15
ENDBRANCH   4  14
BRANCH   7  28
HETATM   28  S1  UNL     1      24.535  44.072   2.378  1.00  0.00     0.261 S 
HETATM   29  O1  UNL     1      25.818  43.541   1.734  1.00  0.00    -0.200 OA
HETATM   30  O2  UNL     1      24.222  43.044   3.445  1.00  0.00    -0.200 OA
BRANCH  28  31
HETATM   31  N1  UNL     1      24.889  45.549   3.142  1.00  0.00    -0.313 N 
ATOM     32  H1  UNL     1      24.514  45.778   4.062  1.00  0.00     0.172 HD
BRANCH  31  33
HETATM   33  C22 UNL     1      25.721  46.437   2.446  1.00  0.00     0.158 C 
BRANCH  33  34
HETATM   34  C23 UNL     1      25.980  47.649   3.373  1.00  0.00     0.184 C 
BRANCH  34  35
HETATM   35  O3  UNL     1      25.732  48.830   2.693  1.00  0.00    -0.399 OA
ATOM     36  H3  UNL     1      25.460  48.643   1.802  1.00  0.00     0.209 HD
ENDBRANCH  34  35
ENDBRANCH  33  34
ENDBRANCH  31  33
ENDBRANCH  28  31
ENDBRANCH   7  28
TORSDOF 11
ENDMDL
