MODEL 1
REMARK VINA RESULT: -6.480084054      0.000      0.000
REMARK  8 active torsions:
REMARK  status: ('A' for Active; 'I' for Inactive)
REMARK    1  A    between atoms: C4_4  and  C5_5 
REMARK    2  A    between atoms: C14_19  and  C15_20 
REMARK    3  A    between atoms: C20_27  and  N4_28 
REMARK    4  A    between atoms: N4_28  and  C21_30 
REMARK    5  A    between atoms: C21_30  and  C22_31 
REMARK    6  A    between atoms: C22_31  and  C23_32 
REMARK    7  A    between atoms: C23_32  and  C24_33 
REMARK    8  A    between atoms: C24_33  and  N5_34 
ROOT
HETATM    1  C1  UNL     1      22.308  49.593  -4.984  1.00  0.00     0.050 C 
HETATM    2  C2  UNL     1      22.122  48.106  -4.942  1.00  0.00    -0.034 A 
HETATM    3  C3  UNL     1      22.203  47.422  -3.751  1.00  0.00     0.022 A 
HETATM    4  C4  UNL     1      22.032  46.060  -3.717  1.00  0.00    -0.011 A 
HETATM    5  C9  UNL     1      21.772  45.334  -4.871  1.00  0.00     0.028 A 
HETATM    6  C10 UNL     1      21.686  45.996  -6.068  1.00  0.00     0.006 A 
HETATM    7  C11 UNL     1      21.449  45.641  -7.402  1.00  0.00     0.026 A 
HETATM    8  C12 UNL     1      21.480  46.784  -8.199  1.00  0.00     0.058 A 
HETATM    9  N2  UNL     1      21.736  47.803  -7.346  1.00  0.00    -0.354 N 
ATOM     10  H2  UNL     1      21.822  48.778  -7.630  1.00  0.00     0.166 HD
HETATM   11  C13 UNL     1      21.864  47.376  -6.082  1.00  0.00     0.050 A 
HETATM   12  C14 UNL     1      21.231  46.762  -9.507  1.00  0.00     0.043 C 
HETATM   13  C16 UNL     1      20.858  45.483 -10.183  1.00  0.00    -0.008 C 
HETATM   14  C17 UNL     1      21.755  45.349 -11.402  1.00  0.00     0.021 C 
HETATM   15  C18 UNL     1      19.432  45.613 -10.715  1.00  0.00     0.021 C 
HETATM   16  C19 UNL     1      20.993  44.287  -9.358  1.00  0.00     0.071 C 
HETATM   17  C20 UNL     1      21.209  44.437  -7.908  1.00  0.00     0.019 C 
ENDROOT
BRANCH  17  18
HETATM   18  N4  UNL     1      21.125  43.290  -7.068  1.00  0.00    -0.392 N 
ATOM     19  H4  UNL     1      20.353  43.289  -6.400  1.00  0.00     0.159 HD
BRANCH  18  20
HETATM   20  C21 UNL     1      21.968  42.142  -7.031  1.00  0.00     0.119 C 
BRANCH  20  21
HETATM   21  C22 UNL     1      23.140  42.178  -6.107  1.00  0.00     0.021 C 
BRANCH  21  22
HETATM   22  C23 UNL     1      24.444  42.500  -6.721  1.00  0.00     0.029 C 
BRANCH  22  23
HETATM   23  C24 UNL     1      24.772  43.886  -7.084  1.00  0.00     0.236 C 
BRANCH  23  24
HETATM   24  N5  UNL     1      25.128  44.175  -8.439  1.00  0.00    -0.079 N 
HETATM   25  C25 UNL     1      26.596  43.946  -8.557  1.00  0.00     0.271 C 
HETATM   26  C26 UNL     1      24.948  45.556  -8.767  1.00  0.00     0.271 C 
HETATM   27  C27 UNL     1      24.567  43.259  -9.415  1.00  0.00     0.271 C 
ENDBRANCH  23  24
ENDBRANCH  22  23
ENDBRANCH  21  22
ENDBRANCH  20  21
ENDBRANCH  18  20
ENDBRANCH  17  18
BRANCH  12  28
HETATM   28  C15 UNL     1      21.265  47.944 -10.338  1.00  0.00     0.264 C 
HETATM   29  N3  UNL     1      20.190  48.805 -10.564  1.00  0.00    -0.057 NA
HETATM   30  O2  UNL     1      22.342  48.246 -10.921  1.00  0.00    -0.271 OA
ENDBRANCH  12  28
BRANCH   4  31
HETATM   31  C5  UNL     1      22.126  45.371  -2.422  1.00  0.00     0.035 A 
HETATM   32  N1  UNL     1      22.908  45.472  -1.414  1.00  0.00    -0.329 N 
HETATM   33  C6  UNL     1      22.318  44.468  -0.626  1.00  0.00     0.231 A 
ATOM     34  H1  UNL     1      23.705  46.086  -1.238  1.00  0.00     0.168 HD
HETATM   35  O1  UNL     1      22.522  43.984   0.497  1.00  0.00    -0.272 OA
HETATM   36  C7  UNL     1      21.390  44.289  -1.732  1.00  0.00     0.125 A 
HETATM   37  C8  UNL     1      19.958  44.708  -1.512  1.00  0.00     0.026 C 
ENDBRANCH   4  31
TORSDOF 8
ENDMDL
MODEL 2
REMARK VINA RESULT: -6.320539425      2.152      6.967
REMARK  8 active torsions:
REMARK  status: ('A' for Active; 'I' for Inactive)
REMARK    1  A    between atoms: C4_4  and  C5_5 
REMARK    2  A    between atoms: C14_19  and  C15_20 
REMARK    3  A    between atoms: C20_27  and  N4_28 
REMARK    4  A    between atoms: N4_28  and  C21_30 
REMARK    5  A    between atoms: C21_30  and  C22_31 
REMARK    6  A    between atoms: C22_31  and  C23_32 
REMARK    7  A    between atoms: C23_32  and  C24_33 
REMARK    8  A    between atoms: C24_33  and  N5_34 
ROOT
HETATM    1  C1  UNL     1      22.310  49.539  -4.658  1.00  0.00     0.050 C 
HETATM    2  C2  UNL     1      22.261  48.380  -5.606  1.00  0.00    -0.034 A 
HETATM    3  C3  UNL     1      22.475  48.565  -6.953  1.00  0.00     0.022 A 
HETATM    4  C4  UNL     1      22.430  47.500  -7.818  1.00  0.00    -0.011 A 
HETATM    5  C9  UNL     1      22.169  46.213  -7.369  1.00  0.00     0.028 A 
HETATM    6  C10 UNL     1      21.952  46.006  -6.032  1.00  0.00     0.006 A 
HETATM    7  C11 UNL     1      21.670  44.905  -5.214  1.00  0.00     0.026 A 
HETATM    8  C12 UNL     1      21.556  45.326  -3.890  1.00  0.00     0.058 A 
HETATM    9  N2  UNL     1      21.766  46.662  -3.926  1.00  0.00    -0.354 N 
ATOM     10  H2  UNL     1      21.746  47.265  -3.105  1.00  0.00     0.166 HD
HETATM   11  C13 UNL     1      22.003  47.098  -5.171  1.00  0.00     0.050 A 
HETATM   12  C14 UNL     1      21.345  44.486  -2.879  1.00  0.00     0.043 C 
HETATM   13  C16 UNL     1      21.262  43.014  -3.123  1.00  0.00    -0.008 C 
HETATM   14  C17 UNL     1      19.999  42.523  -2.437  1.00  0.00     0.021 C 
HETATM   15  C18 UNL     1      22.428  42.336  -2.408  1.00  0.00     0.021 C 
HETATM   16  C19 UNL     1      21.223  42.624  -4.530  1.00  0.00     0.071 C 
HETATM   17  C20 UNL     1      21.531  43.630  -5.561  1.00  0.00     0.019 C 
ENDROOT
BRANCH  17  18
HETATM   18  N4  UNL     1      21.709  43.212  -6.912  1.00  0.00    -0.392 N 
ATOM     19  H4  UNL     1      22.336  43.789  -7.472  1.00  0.00     0.159 HD
BRANCH  18  20
HETATM   20  C21 UNL     1      21.132  42.099  -7.588  1.00  0.00     0.119 C 
BRANCH  20  21
HETATM   21  C22 UNL     1      19.898  42.344  -8.391  1.00  0.00     0.021 C 
BRANCH  21  22
HETATM   22  C23 UNL     1      19.766  43.688  -8.988  1.00  0.00     0.029 C 
BRANCH  22  23
HETATM   23  C24 UNL     1      18.662  43.985  -9.913  1.00  0.00     0.236 C 
BRANCH  23  24
HETATM   24  N5  UNL     1      18.155  45.321  -9.970  1.00  0.00    -0.079 N 
HETATM   25  C25 UNL     1      18.507  45.858 -11.316  1.00  0.00     0.271 C 
HETATM   26  C26 UNL     1      18.816  46.194  -9.048  1.00  0.00     0.271 C 
HETATM   27  C27 UNL     1      16.707  45.417  -9.939  1.00  0.00     0.271 C 
ENDBRANCH  23  24
ENDBRANCH  22  23
ENDBRANCH  21  22
ENDBRANCH  20  21
ENDBRANCH  18  20
ENDBRANCH  17  18
BRANCH  12  28
HETATM   28  C15 UNL     1      21.223  44.918  -1.506  1.00  0.00     0.264 C 
HETATM   29  N3  UNL     1      20.038  44.950  -0.769  1.00  0.00    -0.057 NA
HETATM   30  O2  UNL     1      22.259  45.305  -0.897  1.00  0.00    -0.271 OA
ENDBRANCH  12  28
BRANCH   4  31
HETATM   31  C5  UNL     1      22.666  47.744  -9.248  1.00  0.00     0.035 A 
HETATM   32  N1  UNL     1      23.468  48.498  -9.903  1.00  0.00    -0.329 N 
HETATM   33  C6  UNL     1      23.047  48.131 -11.193  1.00  0.00     0.231 A 
ATOM     34  H1  UNL     1      24.182  49.155  -9.588  1.00  0.00     0.168 HD
HETATM   35  O1  UNL     1      23.361  48.439 -12.352  1.00  0.00    -0.272 OA
HETATM   36  C7  UNL     1      22.104  47.249 -10.524  1.00  0.00     0.125 A 
HETATM   37  C8  UNL     1      22.339  45.763 -10.640  1.00  0.00     0.026 C 
ENDBRANCH   4  31
TORSDOF 8
ENDMDL
MODEL 3
REMARK VINA RESULT: -6.296722155      1.936      6.507
REMARK  8 active torsions:
REMARK  status: ('A' for Active; 'I' for Inactive)
REMARK    1  A    between atoms: C4_4  and  C5_5 
REMARK    2  A    between atoms: C14_19  and  C15_20 
REMARK    3  A    between atoms: C20_27  and  N4_28 
REMARK    4  A    between atoms: N4_28  and  C21_30 
REMARK    5  A    between atoms: C21_30  and  C22_31 
REMARK    6  A    between atoms: C22_31  and  C23_32 
REMARK    7  A    between atoms: C23_32  and  C24_33 
REMARK    8  A    between atoms: C24_33  and  N5_34 
ROOT
HETATM    1  C1  UNL     1      22.297  49.459  -4.710  1.00  0.00     0.050 C 
HETATM    2  C2  UNL     1      22.255  48.278  -5.632  1.00  0.00    -0.034 A 
HETATM    3  C3  UNL     1      22.490  48.432  -6.980  1.00  0.00     0.022 A 
HETATM    4  C4  UNL     1      22.451  47.349  -7.822  1.00  0.00    -0.011 A 
HETATM    5  C9  UNL     1      22.175  46.074  -7.348  1.00  0.00     0.028 A 
HETATM    6  C10 UNL     1      21.938  45.898  -6.010  1.00  0.00     0.006 A 
HETATM    7  C11 UNL     1      21.637  44.816  -5.172  1.00  0.00     0.026 A 
HETATM    8  C12 UNL     1      21.506  45.268  -3.860  1.00  0.00     0.058 A 
HETATM    9  N2  UNL     1      21.724  46.601  -3.922  1.00  0.00    -0.354 N 
ATOM     10  H2  UNL     1      21.696  47.223  -3.114  1.00  0.00     0.166 HD
HETATM   11  C13 UNL     1      21.982  47.008  -5.173  1.00  0.00     0.050 A 
HETATM   12  C14 UNL     1      21.275  44.452  -2.833  1.00  0.00     0.043 C 
HETATM   13  C16 UNL     1      21.187  42.976  -3.046  1.00  0.00    -0.008 C 
HETATM   14  C17 UNL     1      19.911  42.507  -2.367  1.00  0.00     0.021 C 
HETATM   15  C18 UNL     1      22.338  42.307  -2.299  1.00  0.00     0.021 C 
HETATM   16  C19 UNL     1      21.166  42.554  -4.443  1.00  0.00     0.071 C 
HETATM   17  C20 UNL     1      21.496  43.535  -5.493  1.00  0.00     0.019 C 
ENDROOT
BRANCH  17  18
HETATM   18  N4  UNL     1      21.691  43.086  -6.831  1.00  0.00    -0.392 N 
ATOM     19  H4  UNL     1      21.015  43.430  -7.513  1.00  0.00     0.159 HD
BRANCH  18  20
HETATM   20  C21 UNL     1      22.700  42.223  -7.348  1.00  0.00     0.119 C 
BRANCH  20  21
HETATM   21  C22 UNL     1      23.886  42.859  -7.993  1.00  0.00     0.021 C 
BRANCH  21  22
HETATM   22  C23 UNL     1      24.865  43.485  -7.083  1.00  0.00     0.029 C 
BRANCH  22  23
HETATM   23  C24 UNL     1      25.867  42.662  -6.389  1.00  0.00     0.236 C 
BRANCH  23  24
HETATM   24  N5  UNL     1      25.802  42.559  -4.964  1.00  0.00    -0.079 N 
HETATM   25  C25 UNL     1      24.978  41.355  -4.656  1.00  0.00     0.271 C 
HETATM   26  C26 UNL     1      25.087  43.647  -4.371  1.00  0.00     0.271 C 
HETATM   27  C27 UNL     1      27.072  42.269  -4.324  1.00  0.00     0.271 C 
ENDBRANCH  23  24
ENDBRANCH  22  23
ENDBRANCH  21  22
ENDBRANCH  20  21
ENDBRANCH  18  20
ENDBRANCH  17  18
BRANCH  12  28
HETATM   28  C15 UNL     1      21.136  44.915  -1.472  1.00  0.00     0.264 C 
HETATM   29  N3  UNL     1      19.942  44.958  -0.749  1.00  0.00    -0.057 NA
HETATM   30  O2  UNL     1      22.162  45.321  -0.861  1.00  0.00    -0.271 OA
ENDBRANCH  12  28
BRANCH   4  31
HETATM   31  C5  UNL     1      22.710  47.559  -9.253  1.00  0.00     0.035 A 
HETATM   32  N1  UNL     1      22.966  48.589  -9.970  1.00  0.00    -0.329 N 
HETATM   33  C6  UNL     1      23.073  47.925 -11.205  1.00  0.00     0.231 A 
ATOM     34  H1  UNL     1      23.062  49.574  -9.723  1.00  0.00     0.168 HD
HETATM   35  O1  UNL     1      23.310  48.259 -12.376  1.00  0.00    -0.272 OA
HETATM   36  C7  UNL     1      22.784  46.710 -10.461  1.00  0.00     0.125 A 
HETATM   37  C8  UNL     1      23.900  45.706 -10.309  1.00  0.00     0.026 C 
ENDBRANCH   4  31
TORSDOF 8
ENDMDL
MODEL 4
REMARK VINA RESULT: -6.253338302      1.280      1.976
REMARK  8 active torsions:
REMARK  status: ('A' for Active; 'I' for Inactive)
REMARK    1  A    between atoms: C4_4  and  C5_5 
REMARK    2  A    between atoms: C14_19  and  C15_20 
REMARK    3  A    between atoms: C20_27  and  N4_28 
REMARK    4  A    between atoms: N4_28  and  C21_30 
REMARK    5  A    between atoms: C21_30  and  C22_31 
REMARK    6  A    between atoms: C22_31  and  C23_32 
REMARK    7  A    between atoms: C23_32  and  C24_33 
REMARK    8  A    between atoms: C24_33  and  N5_34 
ROOT
HETATM    1  C1  UNL     1      22.277  49.615  -4.958  1.00  0.00     0.050 C 
HETATM    2  C2  UNL     1      22.100  48.127  -4.924  1.00  0.00    -0.034 A 
HETATM    3  C3  UNL     1      22.189  47.437  -3.736  1.00  0.00     0.022 A 
HETATM    4  C4  UNL     1      22.026  46.074  -3.708  1.00  0.00    -0.011 A 
HETATM    5  C9  UNL     1      21.768  45.353  -4.865  1.00  0.00     0.028 A 
HETATM    6  C10 UNL     1      21.675  46.019  -6.059  1.00  0.00     0.006 A 
HETATM    7  C11 UNL     1      21.435  45.670  -7.394  1.00  0.00     0.026 A 
HETATM    8  C12 UNL     1      21.457  46.817  -8.185  1.00  0.00     0.058 A 
HETATM    9  N2  UNL     1      21.709  47.833  -7.328  1.00  0.00    -0.354 N 
ATOM     10  H2  UNL     1      21.789  48.810  -7.608  1.00  0.00     0.166 HD
HETATM   11  C13 UNL     1      21.843  47.400  -6.066  1.00  0.00     0.050 A 
HETATM   12  C14 UNL     1      21.205  46.799  -9.492  1.00  0.00     0.043 C 
HETATM   13  C16 UNL     1      20.838  45.522 -10.174  1.00  0.00    -0.008 C 
HETATM   14  C17 UNL     1      21.732  45.399 -11.396  1.00  0.00     0.021 C 
HETATM   15  C18 UNL     1      19.410  45.645 -10.702  1.00  0.00     0.021 C 
HETATM   16  C19 UNL     1      20.982  44.322  -9.355  1.00  0.00     0.071 C 
HETATM   17  C20 UNL     1      21.202  44.467  -7.905  1.00  0.00     0.019 C 
ENDROOT
BRANCH  17  18
HETATM   18  N4  UNL     1      21.127  43.315  -7.070  1.00  0.00    -0.392 N 
ATOM     19  H4  UNL     1      20.349  43.300  -6.411  1.00  0.00     0.159 HD
BRANCH  18  20
HETATM   20  C21 UNL     1      21.987  42.180  -7.029  1.00  0.00     0.119 C 
BRANCH  20  21
HETATM   21  C22 UNL     1      23.399  42.370  -7.477  1.00  0.00     0.021 C 
BRANCH  21  22
HETATM   22  C23 UNL     1      24.318  42.980  -6.495  1.00  0.00     0.029 C 
BRANCH  22  23
HETATM   23  C24 UNL     1      25.062  42.134  -5.550  1.00  0.00     0.236 C 
BRANCH  23  24
HETATM   24  N5  UNL     1      25.024  42.462  -4.158  1.00  0.00    -0.079 N 
HETATM   25  C25 UNL     1      23.660  42.113  -3.670  1.00  0.00     0.271 C 
HETATM   26  C26 UNL     1      25.143  43.869  -3.928  1.00  0.00     0.271 C 
HETATM   27  C27 UNL     1      25.896  41.653  -3.326  1.00  0.00     0.271 C 
ENDBRANCH  23  24
ENDBRANCH  22  23
ENDBRANCH  21  22
ENDBRANCH  20  21
ENDBRANCH  18  20
ENDBRANCH  17  18
BRANCH  12  28
HETATM   28  C15 UNL     1      21.229  47.985 -10.318  1.00  0.00     0.264 C 
HETATM   29  N3  UNL     1      20.124  48.784 -10.620  1.00  0.00    -0.057 NA
HETATM   30  O2  UNL     1      22.326  48.353 -10.822  1.00  0.00    -0.271 OA
ENDBRANCH  12  28
BRANCH   4  31
HETATM   31  C5  UNL     1      22.128  45.379  -2.418  1.00  0.00     0.035 A 
HETATM   32  N1  UNL     1      22.930  45.460  -1.423  1.00  0.00    -0.329 N 
HETATM   33  C6  UNL     1      22.332  44.467  -0.627  1.00  0.00     0.231 A 
ATOM     34  H1  UNL     1      23.743  46.055  -1.260  1.00  0.00     0.168 HD
HETATM   35  O1  UNL     1      22.546  43.975   0.491  1.00  0.00    -0.272 OA
HETATM   36  C7  UNL     1      21.381  44.312  -1.717  1.00  0.00     0.125 A 
HETATM   37  C8  UNL     1      19.962  44.763  -1.470  1.00  0.00     0.026 C 
ENDBRANCH   4  31
TORSDOF 8
ENDMDL
MODEL 5
REMARK VINA RESULT: -6.129253661      4.711     10.109
REMARK  8 active torsions:
REMARK  status: ('A' for Active; 'I' for Inactive)
REMARK    1  A    between atoms: C4_4  and  C5_5 
REMARK    2  A    between atoms: C14_19  and  C15_20 
REMARK    3  A    between atoms: C20_27  and  N4_28 
REMARK    4  A    between atoms: N4_28  and  C21_30 
REMARK    5  A    between atoms: C21_30  and  C22_31 
REMARK    6  A    between atoms: C22_31  and  C23_32 
REMARK    7  A    between atoms: C23_32  and  C24_33 
REMARK    8  A    between atoms: C24_33  and  N5_34 
ROOT
HETATM    1  C1  UNL     1      19.940  45.331   6.364  1.00  0.00     0.050 C 
HETATM    2  C2  UNL     1      20.050  44.795   4.968  1.00  0.00    -0.034 A 
HETATM    3  C3  UNL     1      18.946  44.284   4.324  1.00  0.00     0.022 A 
HETATM    4  C4  UNL     1      19.051  43.795   3.046  1.00  0.00    -0.011 A 
HETATM    5  C9  UNL     1      20.261  43.799   2.365  1.00  0.00     0.028 A 
HETATM    6  C10 UNL     1      21.372  44.304   2.988  1.00  0.00     0.006 A 
HETATM    7  C11 UNL     1      22.722  44.481   2.657  1.00  0.00     0.026 A 
HETATM    8  C12 UNL     1      23.390  45.068   3.730  1.00  0.00     0.058 A 
HETATM    9  N2  UNL     1      22.447  45.233   4.685  1.00  0.00    -0.354 N 
ATOM     10  H2  UNL     1      22.628  45.642   5.601  1.00  0.00     0.166 HD
HETATM   11  C13 UNL     1      21.246  44.795   4.284  1.00  0.00     0.050 A 
HETATM   12  C14 UNL     1      24.677  45.407   3.682  1.00  0.00     0.043 C 
HETATM   13  C16 UNL     1      25.466  45.205   2.430  1.00  0.00    -0.008 C 
HETATM   14  C17 UNL     1      26.741  44.477   2.823  1.00  0.00     0.021 C 
HETATM   15  C18 UNL     1      25.901  46.571   1.904  1.00  0.00     0.021 C 
HETATM   16  C19 UNL     1      24.785  44.444   1.387  1.00  0.00     0.071 C 
HETATM   17  C20 UNL     1      23.341  44.179   1.522  1.00  0.00     0.019 C 
ENDROOT
BRANCH  17  18
HETATM   18  N4  UNL     1      22.627  43.632   0.416  1.00  0.00    -0.392 N 
ATOM     19  H4  UNL     1      22.275  42.684   0.546  1.00  0.00     0.159 HD
BRANCH  18  20
HETATM   20  C21 UNL     1      22.336  44.228  -0.845  1.00  0.00     0.119 C 
BRANCH  20  21
HETATM   21  C22 UNL     1      20.912  44.566  -1.135  1.00  0.00     0.021 C 
BRANCH  21  22
HETATM   22  C23 UNL     1      20.599  44.921  -2.534  1.00  0.00     0.029 C 
BRANCH  22  23
HETATM   23  C24 UNL     1      21.342  44.303  -3.642  1.00  0.00     0.236 C 
BRANCH  23  24
HETATM   24  N5  UNL     1      22.046  45.152  -4.553  1.00  0.00    -0.079 N 
HETATM   25  C25 UNL     1      23.500  44.929  -4.313  1.00  0.00     0.271 C 
HETATM   26  C26 UNL     1      21.840  46.540  -4.274  1.00  0.00     0.271 C 
HETATM   27  C27 UNL     1      21.878  44.801  -5.951  1.00  0.00     0.271 C 
ENDBRANCH  23  24
ENDBRANCH  22  23
ENDBRANCH  21  22
ENDBRANCH  20  21
ENDBRANCH  18  20
ENDBRANCH  17  18
BRANCH  12  28
HETATM   28  C15 UNL     1      25.375  46.013   4.792  1.00  0.00     0.264 C 
HETATM   29  N3  UNL     1      26.327  45.380   5.594  1.00  0.00    -0.057 NA
HETATM   30  O2  UNL     1      25.123  47.215   5.085  1.00  0.00    -0.271 OA
ENDBRANCH  12  28
BRANCH   4  31
HETATM   31  C5  UNL     1      17.846  43.260   2.395  1.00  0.00     0.035 A 
HETATM   32  N1  UNL     1      16.723  42.820   2.825  1.00  0.00    -0.329 N 
HETATM   33  C6  UNL     1      16.159  42.515   1.574  1.00  0.00     0.231 A 
ATOM     34  H1  UNL     1      16.355  42.724   3.772  1.00  0.00     0.168 HD
HETATM   35  O1  UNL     1      15.081  42.049   1.174  1.00  0.00    -0.272 OA
HETATM   36  C7  UNL     1      17.409  42.995   1.008  1.00  0.00     0.125 A 
HETATM   37  C8  UNL     1      17.369  44.289   0.232  1.00  0.00     0.026 C 
ENDBRANCH   4  31
TORSDOF 8
ENDMDL
