MODEL 1
REMARK VINA RESULT: -5.890671783      0.000      0.000
REMARK  12 active torsions:
REMARK  status: ('A' for Active; 'I' for Inactive)
REMARK    1  A    between atoms: C2_2  and  C3_3 
REMARK    2  A    between atoms: C5_5  and  O1_6 
REMARK    3  A    between atoms: C6_8  and  C7_9 
REMARK    4  A    between atoms: C8_10  and  C9_11 
REMARK    5  A    between atoms: C9_11  and  C10_12 
REMARK    6  A    between atoms: C10_12  and  C11_13 
REMARK    7  A    between atoms: C12_14  and  C13_15 
REMARK    8  A    between atoms: C19_24  and  C20_25 
REMARK    9  A    between atoms: C20_25  and  O4_26 
REMARK   10  A    between atoms: N2_32  and  C25_33 
REMARK   11  A    between atoms: C25_33  and  C26_34 
REMARK   12  A    between atoms: C26_34  and  N3_35 
ROOT
HETATM    1  C3  UNL     1      73.924  63.652  15.102  1.00  0.00     0.145 A 
HETATM    2  C4  UNL     1      75.213  64.084  14.988  1.00  0.00     0.070 A 
HETATM    3  C5  UNL     1      76.386  63.688  15.824  1.00  0.00     0.085 C 
HETATM    4  C6  UNL     1      77.521  63.903  14.935  1.00  0.00     0.113 C 
HETATM    5  C14 UNL     1      76.933  64.265  13.571  1.00  0.00     0.138 C 
HETATM    6  O3  UNL     1      77.335  65.121  12.895  1.00  0.00    -0.297 OA
HETATM    7  C15 UNL     1      75.734  63.424  13.097  1.00  0.00     0.091 C 
HETATM    8  C16 UNL     1      74.980  62.883  14.358  1.00  0.00     0.006 A 
HETATM    9  C17 UNL     1      74.688  61.535  14.233  1.00  0.00     0.019 C 
HETATM   10  C18 UNL     1      76.084  64.437  17.048  1.00  0.00     0.068 C 
HETATM   11  C19 UNL     1      76.150  63.518  18.240  1.00  0.00    -0.009 C 
HETATM   12  C21 UNL     1      75.720  64.598  19.284  1.00  0.00     0.015 C 
HETATM   13  C22 UNL     1      74.355  64.832  18.630  1.00  0.00     0.040 C 
HETATM   14  C23 UNL     1      74.607  64.787  17.134  1.00  0.00     0.134 C 
HETATM   15  C24 UNL     1      74.373  66.177  16.685  1.00  0.00     0.047 C 
HETATM   16  N2  UNL     1      73.712  63.755  16.528  1.00  0.00    -0.046 N 
HETATM   17  C30 UNL     1      73.922  62.610  17.339  1.00  0.00     0.240 C 
HETATM   18  C31 UNL     1      75.087  62.503  18.265  1.00  0.00     0.040 C 
ENDROOT
BRANCH   4  19
HETATM   19  C7  UNL     1      78.437  62.779  14.699  1.00  0.00    -0.011 C 
HETATM   20  C8  UNL     1      79.704  63.036  14.435  1.00  0.00     0.005 C 
BRANCH  20  21
HETATM   21  C9  UNL     1      80.647  61.908  14.190  1.00  0.00     0.055 C 
BRANCH  21  22
HETATM   22  C10 UNL     1      81.539  61.735  13.402  1.00  0.00    -0.128 C 
BRANCH  22  23
HETATM   23  C11 UNL     1      82.590  61.529  12.475  1.00  0.00     0.060 C 
HETATM   24  C12 UNL     1      83.869  61.577  12.685  1.00  0.00     0.079 C 
BRANCH  24  25
HETATM   25  C13 UNL     1      84.591  61.847  13.888  1.00  0.00     0.255 C 
HETATM   26  N1  UNL     1      85.332  60.758  14.479  1.00  0.00    -0.058 NA
HETATM   27  O2  UNL     1      84.609  62.943  14.434  1.00  0.00    -0.272 OA
ENDBRANCH  24  25
ENDBRANCH  22  23
ENDBRANCH  21  22
ENDBRANCH  20  21
ENDBRANCH   4  19
BRANCH   3  28
HETATM   28  O1  UNL     1      76.482  62.365  16.157  1.00  0.00    -0.388 OA
ATOM     29  H1  UNL     1      75.866  62.044  16.804  1.00  0.00     0.210 HD
ENDBRANCH   3  28
BRANCH   1  30
HETATM   30  C2  UNL     1      72.823  63.621  14.085  1.00  0.00     0.036 C 
HETATM   31  C1  UNL     1      72.366  64.886  13.457  1.00  0.00     0.007 C 
ENDBRANCH   1  30
BRANCH  11  32
HETATM   32  C20 UNL     1      77.467  63.058  18.682  1.00  0.00     0.174 C 
BRANCH  32  33
HETATM   33  O4  UNL     1      77.850  63.854  19.786  1.00  0.00    -0.400 OA
ATOM     34  H4  UNL     1      78.754  64.112  19.654  1.00  0.00     0.209 HD
ENDBRANCH  32  33
ENDBRANCH  11  32
BRANCH  16  35
HETATM   35  C25 UNL     1      72.403  64.341  16.789  1.00  0.00     0.267 C 
BRANCH  35  36
HETATM   36  C26 UNL     1      71.282  63.589  17.346  1.00  0.00     0.264 C 
BRANCH  36  37
HETATM   37  N3  UNL     1      70.582  64.300  18.432  1.00  0.00    -0.077 N 
HETATM   38  C27 UNL     1      69.154  64.053  18.309  1.00  0.00     0.271 C 
HETATM   39  C28 UNL     1      70.772  65.718  18.284  1.00  0.00     0.271 C 
HETATM   40  C29 UNL     1      70.939  63.862  19.742  1.00  0.00     0.271 C 
ENDBRANCH  36  37
ENDBRANCH  35  36
ENDBRANCH  16  35
TORSDOF 12
ENDMDL
MODEL 2
REMARK VINA RESULT: -5.794023292      4.072      8.469
REMARK  12 active torsions:
REMARK  status: ('A' for Active; 'I' for Inactive)
REMARK    1  A    between atoms: C2_2  and  C3_3 
REMARK    2  A    between atoms: C5_5  and  O1_6 
REMARK    3  A    between atoms: C6_8  and  C7_9 
REMARK    4  A    between atoms: C8_10  and  C9_11 
REMARK    5  A    between atoms: C9_11  and  C10_12 
REMARK    6  A    between atoms: C10_12  and  C11_13 
REMARK    7  A    between atoms: C12_14  and  C13_15 
REMARK    8  A    between atoms: C19_24  and  C20_25 
REMARK    9  A    between atoms: C20_25  and  O4_26 
REMARK   10  A    between atoms: N2_32  and  C25_33 
REMARK   11  A    between atoms: C25_33  and  C26_34 
REMARK   12  A    between atoms: C26_34  and  N3_35 
ROOT
HETATM    1  C3  UNL     1      79.171  63.655  11.079  1.00  0.00     0.145 A 
HETATM    2  C4  UNL     1      79.275  63.686  12.439  1.00  0.00     0.070 A 
HETATM    3  C5  UNL     1      78.329  64.307  13.414  1.00  0.00     0.085 C 
HETATM    4  C6  UNL     1      78.549  63.539  14.633  1.00  0.00     0.113 C 
HETATM    5  C14 UNL     1      79.503  62.405  14.257  1.00  0.00     0.138 C 
HETATM    6  O3  UNL     1      80.412  62.077  14.904  1.00  0.00    -0.297 OA
HETATM    7  C15 UNL     1      79.214  61.677  12.932  1.00  0.00     0.091 C 
HETATM    8  C16 UNL     1      78.473  62.669  11.974  1.00  0.00     0.006 A 
HETATM    9  C17 UNL     1      77.376  62.072  11.378  1.00  0.00     0.019 C 
HETATM   10  C18 UNL     1      78.649  65.723  13.206  1.00  0.00     0.068 C 
HETATM   11  C19 UNL     1      77.385  66.503  12.956  1.00  0.00    -0.009 C 
HETATM   12  C21 UNL     1      78.099  67.871  12.717  1.00  0.00     0.015 C 
HETATM   13  C22 UNL     1      78.884  67.365  11.504  1.00  0.00     0.040 C 
HETATM   14  C23 UNL     1      79.307  65.949  11.854  1.00  0.00     0.134 C 
HETATM   15  C24 UNL     1      80.777  66.035  11.995  1.00  0.00     0.047 C 
HETATM   16  N2  UNL     1      78.815  65.025  10.787  1.00  0.00    -0.046 N 
HETATM   17  C30 UNL     1      77.444  65.367  10.652  1.00  0.00     0.240 C 
HETATM   18  C31 UNL     1      76.729  66.176  11.682  1.00  0.00     0.040 C 
ENDROOT
BRANCH   4  19
HETATM   19  C7  UNL     1      77.388  62.901  15.268  1.00  0.00    -0.011 C 
HETATM   20  C8  UNL     1      77.027  63.294  16.474  1.00  0.00     0.005 C 
BRANCH  20  21
HETATM   21  C9  UNL     1      75.853  62.656  17.135  1.00  0.00     0.055 C 
BRANCH  21  22
HETATM   22  C10 UNL     1      75.307  62.830  18.192  1.00  0.00    -0.128 C 
BRANCH  22  23
HETATM   23  C11 UNL     1      74.662  63.033  19.437  1.00  0.00     0.060 C 
HETATM   24  C12 UNL     1      75.029  63.797  20.418  1.00  0.00     0.079 C 
BRANCH  24  25
HETATM   25  C13 UNL     1      76.172  64.645  20.542  1.00  0.00     0.255 C 
HETATM   26  N1  UNL     1      77.453  64.099  20.162  1.00  0.00    -0.058 NA
HETATM   27  O2  UNL     1      76.116  65.798  20.953  1.00  0.00    -0.272 OA
ENDBRANCH  24  25
ENDBRANCH  22  23
ENDBRANCH  21  22
ENDBRANCH  20  21
ENDBRANCH   4  19
BRANCH   3  28
HETATM   28  O1  UNL     1      76.995  64.140  13.163  1.00  0.00    -0.388 OA
ATOM     29  H1  UNL     1      76.546  64.866  12.747  1.00  0.00     0.210 HD
ENDBRANCH   3  28
BRANCH   1  30
HETATM   30  C2  UNL     1      79.777  62.711  10.085  1.00  0.00     0.036 C 
HETATM   31  C1  UNL     1      81.248  62.504  10.070  1.00  0.00     0.007 C 
ENDBRANCH   1  30
BRANCH  11  32
HETATM   32  C20 UNL     1      76.483  66.731  14.085  1.00  0.00     0.174 C 
BRANCH  32  33
HETATM   33  O4  UNL     1      77.121  67.631  14.968  1.00  0.00    -0.400 OA
ATOM     34  H4  UNL     1      76.911  67.362  15.855  1.00  0.00     0.209 HD
ENDBRANCH  32  33
ENDBRANCH  11  32
BRANCH  16  35
HETATM   35  C25 UNL     1      79.581  65.498   9.641  1.00  0.00     0.267 C 
BRANCH  35  36
HETATM   36  C26 UNL     1      79.029  65.606   8.293  1.00  0.00     0.264 C 
BRANCH  36  37
HETATM   37  N3  UNL     1      79.167  66.953   7.710  1.00  0.00    -0.077 N 
HETATM   38  C27 UNL     1      79.314  66.826   6.268  1.00  0.00     0.271 C 
HETATM   39  C28 UNL     1      80.370  67.572   8.198  1.00  0.00     0.271 C 
HETATM   40  C29 UNL     1      78.032  67.794   7.910  1.00  0.00     0.271 C 
ENDBRANCH  36  37
ENDBRANCH  35  36
ENDBRANCH  16  35
TORSDOF 12
ENDMDL
MODEL 3
REMARK VINA RESULT: -5.729387544      6.338     12.745
REMARK  12 active torsions:
REMARK  status: ('A' for Active; 'I' for Inactive)
REMARK    1  A    between atoms: C2_2  and  C3_3 
REMARK    2  A    between atoms: C5_5  and  O1_6 
REMARK    3  A    between atoms: C6_8  and  C7_9 
REMARK    4  A    between atoms: C8_10  and  C9_11 
REMARK    5  A    between atoms: C9_11  and  C10_12 
REMARK    6  A    between atoms: C10_12  and  C11_13 
REMARK    7  A    between atoms: C12_14  and  C13_15 
REMARK    8  A    between atoms: C19_24  and  C20_25 
REMARK    9  A    between atoms: C20_25  and  O4_26 
REMARK   10  A    between atoms: N2_32  and  C25_33 
REMARK   11  A    between atoms: C25_33  and  C26_34 
REMARK   12  A    between atoms: C26_34  and  N3_35 
ROOT
HETATM    1  C3  UNL     1      85.136  59.031   9.933  1.00  0.00     0.145 A 
HETATM    2  C4  UNL     1      84.342  58.693  10.989  1.00  0.00     0.070 A 
HETATM    3  C5  UNL     1      84.112  59.469  12.245  1.00  0.00     0.085 C 
HETATM    4  C6  UNL     1      82.795  59.023  12.680  1.00  0.00     0.113 C 
HETATM    5  C14 UNL     1      82.258  58.123  11.567  1.00  0.00     0.138 C 
HETATM    6  O3  UNL     1      81.721  57.109  11.751  1.00  0.00    -0.297 OA
HETATM    7  C15 UNL     1      82.464  58.622  10.125  1.00  0.00     0.091 C 
HETATM    8  C16 UNL     1      83.731  59.540  10.094  1.00  0.00     0.006 A 
HETATM    9  C17 UNL     1      83.491  60.711   9.395  1.00  0.00     0.019 C 
HETATM   10  C18 UNL     1      85.386  59.221  12.929  1.00  0.00     0.068 C 
HETATM   11  C19 UNL     1      85.989  60.527  13.377  1.00  0.00    -0.009 C 
HETATM   12  C21 UNL     1      87.294  59.896  13.959  1.00  0.00     0.015 C 
HETATM   13  C22 UNL     1      87.739  59.322  12.611  1.00  0.00     0.040 C 
HETATM   14  C23 UNL     1      86.472  58.814  11.946  1.00  0.00     0.134 C 
HETATM   15  C24 UNL     1      86.637  57.344  11.930  1.00  0.00     0.047 C 
HETATM   16  N2  UNL     1      86.340  59.462  10.606  1.00  0.00    -0.046 N 
HETATM   17  C30 UNL     1      86.518  60.843  10.882  1.00  0.00     0.240 C 
HETATM   18  C31 UNL     1      86.430  61.387  12.269  1.00  0.00     0.040 C 
ENDROOT
BRANCH   4  19
HETATM   19  C7  UNL     1      81.762  60.041  12.914  1.00  0.00    -0.011 C 
HETATM   20  C8  UNL     1      80.608  59.669  13.434  1.00  0.00     0.005 C 
BRANCH  20  21
HETATM   21  C9  UNL     1      79.547  60.688  13.676  1.00  0.00     0.055 C 
BRANCH  21  22
HETATM   22  C10 UNL     1      79.566  61.884  13.801  1.00  0.00    -0.128 C 
BRANCH  22  23
HETATM   23  C11 UNL     1      79.588  63.293  13.947  1.00  0.00     0.060 C 
HETATM   24  C12 UNL     1      80.351  64.151  13.344  1.00  0.00     0.079 C 
BRANCH  24  25
HETATM   25  C13 UNL     1      81.378  63.943  12.374  1.00  0.00     0.255 C 
HETATM   26  N1  UNL     1      82.644  63.430  12.841  1.00  0.00    -0.058 NA
HETATM   27  O2  UNL     1      81.239  64.180  11.179  1.00  0.00    -0.272 OA
ENDBRANCH  24  25
ENDBRANCH  22  23
ENDBRANCH  21  22
ENDBRANCH  20  21
ENDBRANCH   4  19
BRANCH   3  28
HETATM   28  O1  UNL     1      83.967  60.822  12.110  1.00  0.00    -0.388 OA
ATOM     29  H1  UNL     1      84.343  61.360  12.796  1.00  0.00     0.210 HD
ENDBRANCH   3  28
BRANCH   1  30
HETATM   30  C2  UNL     1      85.083  58.585   8.503  1.00  0.00     0.036 C 
HETATM   31  C1  UNL     1      85.204  57.141   8.178  1.00  0.00     0.007 C 
ENDBRANCH   1  30
BRANCH  11  32
HETATM   32  C20 UNL     1      85.363  61.224  14.501  1.00  0.00     0.174 C 
BRANCH  32  33
HETATM   33  O4  UNL     1      85.316  62.599  14.179  1.00  0.00    -0.400 OA
ATOM     34  H4  UNL     1      84.536  62.962  14.582  1.00  0.00     0.209 HD
ENDBRANCH  32  33
ENDBRANCH  11  32
BRANCH  16  35
HETATM   35  C25 UNL     1      87.507  58.918   9.923  1.00  0.00     0.267 C 
BRANCH  35  36
HETATM   36  C26 UNL     1      88.432  59.731   9.137  1.00  0.00     0.264 C 
BRANCH  36  37
HETATM   37  N3  UNL     1      89.849  59.467   9.444  1.00  0.00    -0.077 N 
HETATM   38  C27 UNL     1      90.619  59.557   8.213  1.00  0.00     0.271 C 
HETATM   39  C28 UNL     1      89.998  58.122   9.931  1.00  0.00     0.271 C 
HETATM   40  C29 UNL     1      90.438  60.412  10.337  1.00  0.00     0.271 C 
ENDBRANCH  36  37
ENDBRANCH  35  36
ENDBRANCH  16  35
TORSDOF 12
ENDMDL
MODEL 4
REMARK VINA RESULT: -5.720644863      4.524      8.639
REMARK  12 active torsions:
REMARK  status: ('A' for Active; 'I' for Inactive)
REMARK    1  A    between atoms: C2_2  and  C3_3 
REMARK    2  A    between atoms: C5_5  and  O1_6 
REMARK    3  A    between atoms: C6_8  and  C7_9 
REMARK    4  A    between atoms: C8_10  and  C9_11 
REMARK    5  A    between atoms: C9_11  and  C10_12 
REMARK    6  A    between atoms: C10_12  and  C11_13 
REMARK    7  A    between atoms: C12_14  and  C13_15 
REMARK    8  A    between atoms: C19_24  and  C20_25 
REMARK    9  A    between atoms: C20_25  and  O4_26 
REMARK   10  A    between atoms: N2_32  and  C25_33 
REMARK   11  A    between atoms: C25_33  and  C26_34 
REMARK   12  A    between atoms: C26_34  and  N3_35 
ROOT
HETATM    1  C3  UNL     1      77.610  67.467  11.707  1.00  0.00     0.145 A 
HETATM    2  C4  UNL     1      76.946  66.299  11.944  1.00  0.00     0.070 A 
HETATM    3  C5  UNL     1      77.445  65.096  12.676  1.00  0.00     0.085 C 
HETATM    4  C6  UNL     1      76.224  64.473  13.171  1.00  0.00     0.113 C 
HETATM    5  C14 UNL     1      75.085  65.434  12.832  1.00  0.00     0.138 C 
HETATM    6  O3  UNL     1      74.061  65.101  12.394  1.00  0.00    -0.297 OA
HETATM    7  C15 UNL     1      75.347  66.927  13.098  1.00  0.00     0.091 C 
HETATM    8  C16 UNL     1      76.888  67.186  12.995  1.00  0.00     0.006 A 
HETATM    9  C17 UNL     1      77.345  67.949  14.055  1.00  0.00     0.019 C 
HETATM   10  C18 UNL     1      78.356  64.549  11.666  1.00  0.00     0.068 C 
HETATM   11  C19 UNL     1      79.706  64.289  12.281  1.00  0.00    -0.009 C 
HETATM   12  C21 UNL     1      80.383  63.813  10.956  1.00  0.00     0.015 C 
HETATM   13  C22 UNL     1      80.162  65.150  10.243  1.00  0.00     0.040 C 
HETATM   14  C23 UNL     1      78.781  65.614  10.668  1.00  0.00     0.134 C 
HETATM   15  C24 UNL     1      77.973  65.524   9.431  1.00  0.00     0.047 C 
HETATM   16  N2  UNL     1      78.896  66.980  11.263  1.00  0.00    -0.046 N 
HETATM   17  C30 UNL     1      79.946  66.846  12.209  1.00  0.00     0.240 C 
HETATM   18  C31 UNL     1      80.424  65.510  12.671  1.00  0.00     0.040 C 
ENDROOT
BRANCH   4  19
HETATM   19  C7  UNL     1      76.118  64.207  14.612  1.00  0.00    -0.011 C 
HETATM   20  C8  UNL     1      75.716  63.016  15.010  1.00  0.00     0.005 C 
BRANCH  20  21
HETATM   21  C9  UNL     1      75.599  62.729  16.469  1.00  0.00     0.055 C 
BRANCH  21  22
HETATM   22  C10 UNL     1      76.323  62.925  17.408  1.00  0.00    -0.128 C 
BRANCH  22  23
HETATM   23  C11 UNL     1      77.177  63.153  18.516  1.00  0.00     0.060 C 
HETATM   24  C12 UNL     1      76.959  63.890  19.560  1.00  0.00     0.079 C 
BRANCH  24  25
HETATM   25  C13 UNL     1      75.820  64.681  19.904  1.00  0.00     0.255 C 
HETATM   26  N1  UNL     1      74.947  64.178  20.938  1.00  0.00    -0.058 NA
HETATM   27  O2  UNL     1      75.550  65.748  19.366  1.00  0.00    -0.272 OA
ENDBRANCH  24  25
ENDBRANCH  22  23
ENDBRANCH  21  22
ENDBRANCH  20  21
ENDBRANCH   4  19
BRANCH   3  28
HETATM   28  O1  UNL     1      78.171  65.329  13.811  1.00  0.00    -0.388 OA
ATOM     29  H1  UNL     1      77.933  66.095  14.319  1.00  0.00     0.210 HD
ENDBRANCH   3  28
BRANCH   1  30
HETATM   30  C2  UNL     1      77.078  68.837  11.411  1.00  0.00     0.036 C 
HETATM   31  C1  UNL     1      76.303  69.073  10.167  1.00  0.00     0.007 C 
ENDBRANCH   1  30
BRANCH  11  32
HETATM   32  C20 UNL     1      79.835  63.163  13.206  1.00  0.00     0.174 C 
BRANCH  32  33
HETATM   33  O4  UNL     1      80.212  63.684  14.464  1.00  0.00    -0.400 OA
ATOM     34  H4  UNL     1      80.739  64.459  14.309  1.00  0.00     0.209 HD
ENDBRANCH  32  33
ENDBRANCH  11  32
BRANCH  16  35
HETATM   35  C25 UNL     1      79.339  67.747  10.105  1.00  0.00     0.267 C 
BRANCH  35  36
HETATM   36  C26 UNL     1      80.353  68.796  10.175  1.00  0.00     0.264 C 
BRANCH  36  37
HETATM   37  N3  UNL     1      80.383  69.661   8.981  1.00  0.00    -0.077 N 
HETATM   38  C27 UNL     1      79.460  69.126   7.992  1.00  0.00     0.271 C 
HETATM   39  C28 UNL     1      81.693  69.626   8.390  1.00  0.00     0.271 C 
HETATM   40  C29 UNL     1      79.957  71.001   9.222  1.00  0.00     0.271 C 
ENDBRANCH  36  37
ENDBRANCH  35  36
ENDBRANCH  16  35
TORSDOF 12
ENDMDL
MODEL 5
REMARK VINA RESULT: -5.663568812      4.304      8.726
REMARK  12 active torsions:
REMARK  status: ('A' for Active; 'I' for Inactive)
REMARK    1  A    between atoms: C2_2  and  C3_3 
REMARK    2  A    between atoms: C5_5  and  O1_6 
REMARK    3  A    between atoms: C6_8  and  C7_9 
REMARK    4  A    between atoms: C8_10  and  C9_11 
REMARK    5  A    between atoms: C9_11  and  C10_12 
REMARK    6  A    between atoms: C10_12  and  C11_13 
REMARK    7  A    between atoms: C12_14  and  C13_15 
REMARK    8  A    between atoms: C19_24  and  C20_25 
REMARK    9  A    between atoms: C20_25  and  O4_26 
REMARK   10  A    between atoms: N2_32  and  C25_33 
REMARK   11  A    between atoms: C25_33  and  C26_34 
REMARK   12  A    between atoms: C26_34  and  N3_35 
ROOT
HETATM    1  C3  UNL     1      72.387  63.729  17.452  1.00  0.00     0.145 A 
HETATM    2  C4  UNL     1      72.579  62.985  18.579  1.00  0.00     0.070 A 
HETATM    3  C5  UNL     1      73.481  63.288  19.731  1.00  0.00     0.085 C 
HETATM    4  C6  UNL     1      72.854  62.585  20.844  1.00  0.00     0.113 C 
HETATM    5  C14 UNL     1      71.530  62.037  20.312  1.00  0.00     0.138 C 
HETATM    6  O3  UNL     1      71.135  60.966  20.528  1.00  0.00    -0.297 OA
HETATM    7  C15 UNL     1      70.696  62.991  19.438  1.00  0.00     0.091 C 
HETATM    8  C16 UNL     1      71.667  64.003  18.743  1.00  0.00     0.006 A 
HETATM    9  C17 UNL     1      71.200  65.302  18.842  1.00  0.00     0.019 C 
HETATM   10  C18 UNL     1      74.778  62.975  19.122  1.00  0.00     0.068 C 
HETATM   11  C19 UNL     1      75.729  64.126  19.322  1.00  0.00    -0.009 C 
HETATM   12  C21 UNL     1      76.906  63.488  18.517  1.00  0.00     0.015 C 
HETATM   13  C22 UNL     1      76.112  63.429  17.209  1.00  0.00     0.040 C 
HETATM   14  C23 UNL     1      74.703  63.025  17.604  1.00  0.00     0.134 C 
HETATM   15  C24 UNL     1      74.546  61.665  17.044  1.00  0.00     0.047 C 
HETATM   16  N2  UNL     1      73.747  64.050  17.086  1.00  0.00    -0.046 N 
HETATM   17  C30 UNL     1      74.306  65.280  17.521  1.00  0.00     0.240 C 
HETATM   18  C31 UNL     1      75.357  65.338  18.578  1.00  0.00     0.040 C 
ENDROOT
BRANCH   4  19
HETATM   19  C7  UNL     1      72.521  63.356  22.050  1.00  0.00    -0.011 C 
HETATM   20  C8  UNL     1      72.457  62.728  23.208  1.00  0.00     0.005 C 
BRANCH  20  21
HETATM   21  C9  UNL     1      72.118  63.494  24.441  1.00  0.00     0.055 C 
BRANCH  21  22
HETATM   22  C10 UNL     1      71.610  64.566  24.633  1.00  0.00    -0.128 C 
BRANCH  22  23
HETATM   23  C11 UNL     1      71.011  65.831  24.856  1.00  0.00     0.060 C 
HETATM   24  C12 UNL     1      71.549  67.005  24.749  1.00  0.00     0.079 C 
BRANCH  24  25
HETATM   25  C13 UNL     1      72.879  67.376  24.384  1.00  0.00     0.255 C 
HETATM   26  N1  UNL     1      73.339  68.685  24.778  1.00  0.00    -0.058 NA
HETATM   27  O2  UNL     1      73.636  66.644  23.756  1.00  0.00    -0.272 OA
ENDBRANCH  24  25
ENDBRANCH  22  23
ENDBRANCH  21  22
ENDBRANCH  20  21
ENDBRANCH   4  19
BRANCH   3  28
HETATM   28  O1  UNL     1      73.520  64.589  20.152  1.00  0.00    -0.388 OA
ATOM     29  H1  UNL     1      74.298  64.859  20.625  1.00  0.00     0.210 HD
ENDBRANCH   3  28
BRANCH   1  30
HETATM   30  C2  UNL     1      71.227  63.761  16.503  1.00  0.00     0.036 C 
HETATM   31  C1  UNL     1      70.902  62.557  15.697  1.00  0.00     0.007 C 
ENDBRANCH   1  30
BRANCH  11  32
HETATM   32  C20 UNL     1      76.260  64.353  20.666  1.00  0.00     0.174 C 
BRANCH  32  33
HETATM   33  O4  UNL     1      76.229  65.745  20.909  1.00  0.00    -0.400 OA
ATOM     34  H4  UNL     1      76.279  65.874  21.849  1.00  0.00     0.209 HD
ENDBRANCH  32  33
ENDBRANCH  11  32
BRANCH  16  35
HETATM   35  C25 UNL     1      73.922  63.884  15.648  1.00  0.00     0.267 C 
BRANCH  35  36
HETATM   36  C26 UNL     1      74.037  65.003  14.717  1.00  0.00     0.264 C 
BRANCH  36  37
HETATM   37  N3  UNL     1      75.138  64.849  13.749  1.00  0.00    -0.077 N 
HETATM   38  C27 UNL     1      76.296  65.583  14.236  1.00  0.00     0.271 C 
HETATM   39  C28 UNL     1      74.767  65.443  12.493  1.00  0.00     0.271 C 
HETATM   40  C29 UNL     1      75.579  63.502  13.577  1.00  0.00     0.271 C 
ENDBRANCH  36  37
ENDBRANCH  35  36
ENDBRANCH  16  35
TORSDOF 12
ENDMDL
