MODEL 1
REMARK VINA RESULT: -7.433928438      0.000      0.000
REMARK  13 active torsions:
REMARK  status: ('A' for Active; 'I' for Inactive)
REMARK    1  A    between atoms: C5_5  and  C6_6 
REMARK    2  A    between atoms: C6_6  and  C7_7 
REMARK    3  A    between atoms: C8_10  and  O1_11 
REMARK    4  A    between atoms: C10_14  and  C11_15 
REMARK    5  A    between atoms: C11_15  and  C12_16 
REMARK    6  A    between atoms: C13_17  and  C14_18 
REMARK    7  A    between atoms: C16_20  and  C17_21 
REMARK    8  A    between atoms: C18_22  and  C19_23 
REMARK    9  A    between atoms: C25_32  and  C26_33 
REMARK   10  A    between atoms: C26_33  and  C27_34 
REMARK   11  A    between atoms: C27_34  and  N3_35 
REMARK   12  A    between atoms: N3_35  and  N4_37 
REMARK   13  A    between atoms: N4_37  and  N5_38 
ROOT
HETATM    1  C14 UNL     1      79.868  64.002  11.173  1.00  0.00    -0.012 A 
HETATM    2  C15 UNL     1      80.741  62.924  11.136  1.00  0.00     0.042 A 
HETATM    3  C16 UNL     1      81.722  63.091  12.166  1.00  0.00     0.033 A 
HETATM    4  N2  UNL     1      81.402  64.294  12.805  1.00  0.00    -0.359 N 
ATOM      5  H2  UNL     1      81.915  64.700  13.588  1.00  0.00     0.166 HD
HETATM    6  C25 UNL     1      80.320  64.830  12.229  1.00  0.00     0.021 A 
ENDROOT
BRANCH   1   7
HETATM    7  C13 UNL     1      78.767  64.083  10.210  1.00  0.00     0.010 C 
HETATM    8  C12 UNL     1      77.682  63.155  10.135  1.00  0.00    -0.021 C 
BRANCH   8   9
HETATM    9  C11 UNL     1      76.514  63.069  11.017  1.00  0.00     0.068 C 
BRANCH   9  10
HETATM   10  C10 UNL     1      76.849  62.585  12.398  1.00  0.00    -0.022 A 
HETATM   11  C9  UNL     1      76.819  63.407  13.530  1.00  0.00     0.052 A 
HETATM   12  C8  UNL     1      76.574  64.670  14.017  1.00  0.00     0.153 A 
HETATM   13  C29 UNL     1      77.175  62.670  14.635  1.00  0.00     0.074 A 
HETATM   14  N1  UNL     1      76.769  64.702  15.336  1.00  0.00    -0.334 N 
HETATM   15  C7  UNL     1      77.138  63.491  15.736  1.00  0.00     0.062 A 
ATOM     16  H1  UNL     1      76.655  65.519  15.936  1.00  0.00     0.168 HD
HETATM   17  N6  UNL     1      77.424  61.400  14.199  1.00  0.00    -0.363 N 
HETATM   18  C28 UNL     1      77.223  61.363  12.848  1.00  0.00     0.097 A 
ATOM     19  H6  UNL     1      77.711  60.614  14.782  1.00  0.00     0.165 HD
BRANCH  12  20
HETATM   20  O1  UNL     1      76.175  65.745  13.200  1.00  0.00    -0.345 OA
ATOM     21  H1  UNL     1      76.575  66.014  12.382  1.00  0.00     0.219 HD
ENDBRANCH  12  20
BRANCH  15  22
HETATM   22  C6  UNL     1      77.464  63.031  17.094  1.00  0.00     0.043 C 
BRANCH  22  23
HETATM   23  C5  UNL     1      76.646  63.204  18.094  1.00  0.00    -0.034 A 
HETATM   24  C4  UNL     1      77.036  63.821  19.262  1.00  0.00     0.012 A 
HETATM   25  C3  UNL     1      76.136  63.987  20.308  1.00  0.00     0.011 A 
HETATM   26  C2  UNL     1      74.827  63.550  20.228  1.00  0.00    -0.046 A 
HETATM   27  C1  UNL     1      73.972  63.712  21.226  1.00  0.00     0.023 C 
HETATM   28  C31 UNL     1      74.445  62.932  19.050  1.00  0.00     0.011 A 
HETATM   29  C30 UNL     1      75.346  62.767  18.007  1.00  0.00     0.012 A 
ENDBRANCH  22  23
ENDBRANCH  15  22
ENDBRANCH   9  10
ENDBRANCH   8   9
ENDBRANCH   1   7
BRANCH   6  30
HETATM   30  C26 UNL     1      79.777  66.093  12.817  1.00  0.00     0.080 C 
BRANCH  30  31
HETATM   31  C27 UNL     1      79.559  67.119  11.700  1.00  0.00     0.161 C 
BRANCH  31  32
HETATM   32  N3  UNL     1      78.258  67.770  11.901  1.00  0.00    -0.252 N 
ATOM     33  H3  UNL     1      77.689  68.051  11.103  1.00  0.00     0.196 HD
BRANCH  32  34
HETATM   34  N4  UNL     1      77.871  67.969  13.048  1.00  0.00    -0.249 NA
BRANCH  34  35
HETATM   35  N5  UNL     1      77.355  68.366  14.113  1.00  0.00    -0.261 N 
ATOM     36  H52 UNL     1      76.937  69.154  13.620  1.00  0.00     0.193 HD
ATOM     37  H51 UNL     1      77.026  68.527  15.065  1.00  0.00     0.193 HD
ENDBRANCH  34  35
ENDBRANCH  32  34
ENDBRANCH  31  32
ENDBRANCH  30  31
ENDBRANCH   6  30
BRANCH   3  38
HETATM   38  C17 UNL     1      82.745  62.250  12.453  1.00  0.00     0.032 C 
HETATM   39  C18 UNL     1      83.518  62.527  13.620  1.00  0.00     0.040 C 
BRANCH  39  40
HETATM   40  C19 UNL     1      84.558  61.837  14.084  1.00  0.00     0.082 A 
HETATM   41  O2  UNL     1      85.141  60.854  13.394  1.00  0.00    -0.311 OA
HETATM   42  C20 UNL     1      86.130  60.310  14.013  1.00  0.00     0.067 A 
HETATM   43  C21 UNL     1      86.893  59.307  13.561  1.00  0.00     0.051 C 
HETATM   44  C22 UNL     1      86.255  60.950  15.217  1.00  0.00     0.046 A 
HETATM   45  C23 UNL     1      85.248  61.924  15.256  1.00  0.00    -0.025 A 
HETATM   46  C24 UNL     1      85.006  62.856  16.376  1.00  0.00     0.051 C 
ENDBRANCH  39  40
ENDBRANCH   3  38
TORSDOF 13
ENDMDL
MODEL 2
REMARK VINA RESULT: -7.126865915      0.921      1.498
REMARK  13 active torsions:
REMARK  status: ('A' for Active; 'I' for Inactive)
REMARK    1  A    between atoms: C5_5  and  C6_6 
REMARK    2  A    between atoms: C6_6  and  C7_7 
REMARK    3  A    between atoms: C8_10  and  O1_11 
REMARK    4  A    between atoms: C10_14  and  C11_15 
REMARK    5  A    between atoms: C11_15  and  C12_16 
REMARK    6  A    between atoms: C13_17  and  C14_18 
REMARK    7  A    between atoms: C16_20  and  C17_21 
REMARK    8  A    between atoms: C18_22  and  C19_23 
REMARK    9  A    between atoms: C25_32  and  C26_33 
REMARK   10  A    between atoms: C26_33  and  C27_34 
REMARK   11  A    between atoms: C27_34  and  N3_35 
REMARK   12  A    between atoms: N3_35  and  N4_37 
REMARK   13  A    between atoms: N4_37  and  N5_38 
ROOT
HETATM    1  C14 UNL     1      79.104  64.233  10.678  1.00  0.00    -0.012 A 
HETATM    2  C15 UNL     1      79.674  63.289  11.520  1.00  0.00     0.042 A 
HETATM    3  C16 UNL     1      80.716  63.916  12.275  1.00  0.00     0.033 A 
HETATM    4  N2  UNL     1      80.744  65.250  11.853  1.00  0.00    -0.359 N 
ATOM      5  H2  UNL     1      81.381  65.965  12.202  1.00  0.00     0.166 HD
HETATM    6  C25 UNL     1      79.804  65.440  10.919  1.00  0.00     0.021 A 
ENDROOT
BRANCH   1   7
HETATM    7  C13 UNL     1      78.012  63.846   9.781  1.00  0.00     0.010 C 
HETATM    8  C12 UNL     1      77.117  62.756  10.012  1.00  0.00    -0.021 C 
BRANCH   8   9
HETATM    9  C11 UNL     1      75.981  62.709  10.938  1.00  0.00     0.068 C 
BRANCH   9  10
HETATM   10  C10 UNL     1      76.363  62.280  12.324  1.00  0.00    -0.022 A 
HETATM   11  C9  UNL     1      76.600  63.178  13.371  1.00  0.00     0.052 A 
HETATM   12  C8  UNL     1      76.640  64.498  13.755  1.00  0.00     0.153 A 
HETATM   13  C29 UNL     1      76.929  62.475  14.506  1.00  0.00     0.074 A 
HETATM   14  N1  UNL     1      76.973  64.595  15.042  1.00  0.00    -0.334 N 
HETATM   15  C7  UNL     1      77.155  63.371  15.522  1.00  0.00     0.062 A 
ATOM     16  H1  UNL     1      77.071  65.463  15.569  1.00  0.00     0.168 HD
HETATM   17  N6  UNL     1      76.896  61.150  14.173  1.00  0.00    -0.363 N 
HETATM   18  C28 UNL     1      76.553  61.047  12.855  1.00  0.00     0.097 A 
ATOM     19  H6  UNL     1      77.095  60.371  14.801  1.00  0.00     0.165 HD
BRANCH  12  20
HETATM   20  O1  UNL     1      76.360  65.562  12.877  1.00  0.00    -0.345 OA
ATOM     21  H1  UNL     1      76.232  65.504  11.937  1.00  0.00     0.219 HD
ENDBRANCH  12  20
BRANCH  15  22
HETATM   22  C6  UNL     1      77.530  62.964  16.885  1.00  0.00     0.043 C 
BRANCH  22  23
HETATM   23  C5  UNL     1      76.737  63.152  17.903  1.00  0.00    -0.034 A 
HETATM   24  C4  UNL     1      77.174  63.724  19.077  1.00  0.00     0.012 A 
HETATM   25  C3  UNL     1      76.300  63.909  20.141  1.00  0.00     0.011 A 
HETATM   26  C2  UNL     1      74.971  63.535  20.075  1.00  0.00    -0.046 A 
HETATM   27  C1  UNL     1      74.141  63.713  21.090  1.00  0.00     0.023 C 
HETATM   28  C31 UNL     1      74.542  62.961  18.890  1.00  0.00     0.011 A 
HETATM   29  C30 UNL     1      75.417  62.778  17.828  1.00  0.00     0.012 A 
ENDBRANCH  22  23
ENDBRANCH  15  22
ENDBRANCH   9  10
ENDBRANCH   8   9
ENDBRANCH   1   7
BRANCH   6  30
HETATM   30  C26 UNL     1      79.629  66.826  10.387  1.00  0.00     0.080 C 
BRANCH  30  31
HETATM   31  C27 UNL     1      79.493  67.804  11.560  1.00  0.00     0.161 C 
BRANCH  31  32
HETATM   32  N3  UNL     1      78.116  67.751  12.065  1.00  0.00    -0.252 N 
ATOM     33  H3  UNL     1      77.334  67.604  11.427  1.00  0.00     0.196 HD
BRANCH  32  34
HETATM   34  N4  UNL     1      77.925  67.888  13.270  1.00  0.00    -0.249 NA
BRANCH  34  35
HETATM   35  N5  UNL     1      77.501  67.941  14.442  1.00  0.00    -0.261 N 
ATOM     36  H52 UNL     1      77.885  67.014  14.626  1.00  0.00     0.193 HD
ATOM     37  H51 UNL     1      77.084  68.169  15.345  1.00  0.00     0.193 HD
ENDBRANCH  34  35
ENDBRANCH  32  34
ENDBRANCH  31  32
ENDBRANCH  30  31
ENDBRANCH   6  30
BRANCH   3  38
HETATM   38  C17 UNL     1      81.507  63.328  13.206  1.00  0.00     0.032 C 
HETATM   39  C18 UNL     1      82.786  62.859  12.783  1.00  0.00     0.040 C 
BRANCH  39  40
HETATM   40  C19 UNL     1      83.714  62.257  13.525  1.00  0.00     0.082 A 
HETATM   41  O2  UNL     1      84.224  62.805  14.631  1.00  0.00    -0.311 OA
HETATM   42  C20 UNL     1      85.107  62.068  15.207  1.00  0.00     0.067 A 
HETATM   43  C21 UNL     1      85.779  62.364  16.326  1.00  0.00     0.051 C 
HETATM   44  C22 UNL     1      85.229  60.925  14.463  1.00  0.00     0.046 A 
HETATM   45  C23 UNL     1      84.336  61.053  13.390  1.00  0.00    -0.025 A 
HETATM   46  C24 UNL     1      84.132  60.049  12.326  1.00  0.00     0.051 C 
ENDBRANCH  39  40
ENDBRANCH   3  38
TORSDOF 13
ENDMDL
MODEL 3
REMARK VINA RESULT: -6.916411250      2.857      6.888
REMARK  13 active torsions:
REMARK  status: ('A' for Active; 'I' for Inactive)
REMARK    1  A    between atoms: C5_5  and  C6_6 
REMARK    2  A    between atoms: C6_6  and  C7_7 
REMARK    3  A    between atoms: C8_10  and  O1_11 
REMARK    4  A    between atoms: C10_14  and  C11_15 
REMARK    5  A    between atoms: C11_15  and  C12_16 
REMARK    6  A    between atoms: C13_17  and  C14_18 
REMARK    7  A    between atoms: C16_20  and  C17_21 
REMARK    8  A    between atoms: C18_22  and  C19_23 
REMARK    9  A    between atoms: C25_32  and  C26_33 
REMARK   10  A    between atoms: C26_33  and  C27_34 
REMARK   11  A    between atoms: C27_34  and  N3_35 
REMARK   12  A    between atoms: N3_35  and  N4_37 
REMARK   13  A    between atoms: N4_37  and  N5_38 
ROOT
HETATM    1  C14 UNL     1      74.865  64.371  15.411  1.00  0.00    -0.012 A 
HETATM    2  C15 UNL     1      75.676  63.956  14.364  1.00  0.00     0.042 A 
HETATM    3  C16 UNL     1      77.015  63.815  14.848  1.00  0.00     0.033 A 
HETATM    4  N2  UNL     1      76.970  64.161  16.204  1.00  0.00    -0.359 N 
ATOM      5  H2  UNL     1      77.768  64.164  16.838  1.00  0.00     0.166 HD
HETATM    6  C25 UNL     1      75.715  64.486  16.538  1.00  0.00     0.021 A 
ENDROOT
BRANCH   1   7
HETATM    7  C13 UNL     1      73.436  64.603  15.181  1.00  0.00     0.010 C 
HETATM    8  C12 UNL     1      72.754  65.825  15.472  1.00  0.00    -0.021 C 
BRANCH   8   9
HETATM    9  C11 UNL     1      72.781  67.073  14.702  1.00  0.00     0.068 C 
BRANCH   9  10
HETATM   10  C10 UNL     1      73.917  67.141  13.723  1.00  0.00    -0.022 A 
HETATM   11  C9  UNL     1      75.219  67.507  14.080  1.00  0.00     0.052 A 
HETATM   12  C8  UNL     1      76.058  67.892  15.100  1.00  0.00     0.153 A 
HETATM   13  C29 UNL     1      76.022  67.473  12.963  1.00  0.00     0.074 A 
HETATM   14  N1  UNL     1      77.293  68.081  14.636  1.00  0.00    -0.334 N 
HETATM   15  C7  UNL     1      77.295  67.832  13.332  1.00  0.00     0.062 A 
ATOM     16  H1  UNL     1      78.101  68.369  15.190  1.00  0.00     0.168 HD
HETATM   17  N6  UNL     1      75.229  67.089  11.919  1.00  0.00    -0.363 N 
HETATM   18  C28 UNL     1      73.963  66.891  12.392  1.00  0.00     0.097 A 
ATOM     19  H6  UNL     1      75.531  66.970  10.952  1.00  0.00     0.165 HD
BRANCH  12  20
HETATM   20  O1  UNL     1      75.627  68.048  16.431  1.00  0.00    -0.345 OA
ATOM     21  H1  UNL     1      74.727  68.089  16.735  1.00  0.00     0.219 HD
ENDBRANCH  12  20
BRANCH  15  22
HETATM   22  C6  UNL     1      78.417  67.903  12.385  1.00  0.00     0.043 C 
BRANCH  22  23
HETATM   23  C5  UNL     1      79.079  66.841  12.019  1.00  0.00    -0.034 A 
HETATM   24  C4  UNL     1      80.215  66.422  12.676  1.00  0.00     0.012 A 
HETATM   25  C3  UNL     1      80.894  65.284  12.257  1.00  0.00     0.011 A 
HETATM   26  C2  UNL     1      80.469  64.529  11.180  1.00  0.00    -0.046 A 
HETATM   27  C1  UNL     1      81.118  63.445  10.785  1.00  0.00     0.023 C 
HETATM   28  C31 UNL     1      79.326  64.958  10.527  1.00  0.00     0.011 A 
HETATM   29  C30 UNL     1      78.650  66.095  10.948  1.00  0.00     0.012 A 
ENDBRANCH  22  23
ENDBRANCH  15  22
ENDBRANCH   9  10
ENDBRANCH   8   9
ENDBRANCH   1   7
BRANCH   6  30
HETATM   30  C26 UNL     1      75.446  64.822  17.969  1.00  0.00     0.080 C 
BRANCH  30  31
HETATM   31  C27 UNL     1      76.452  64.084  18.860  1.00  0.00     0.161 C 
BRANCH  31  32
HETATM   32  N3  UNL     1      76.333  64.593  20.232  1.00  0.00    -0.252 N 
ATOM     33  H3  UNL     1      77.086  65.139  20.650  1.00  0.00     0.196 HD
BRANCH  32  34
HETATM   34  N4  UNL     1      75.311  64.347  20.865  1.00  0.00    -0.249 NA
BRANCH  34  35
HETATM   35  N5  UNL     1      74.280  63.877  21.389  1.00  0.00    -0.261 N 
ATOM     36  H52 UNL     1      74.539  62.944  21.069  1.00  0.00     0.193 HD
ATOM     37  H51 UNL     1      73.403  63.688  21.872  1.00  0.00     0.193 HD
ENDBRANCH  34  35
ENDBRANCH  32  34
ENDBRANCH  31  32
ENDBRANCH  30  31
ENDBRANCH   6  30
BRANCH   3  38
HETATM   38  C17 UNL     1      78.098  63.427  14.132  1.00  0.00     0.032 C 
HETATM   39  C18 UNL     1      79.076  62.628  14.796  1.00  0.00     0.040 C 
BRANCH  39  40
HETATM   40  C19 UNL     1      80.206  62.141  14.286  1.00  0.00     0.082 A 
HETATM   41  O2  UNL     1      81.400  62.696  14.511  1.00  0.00    -0.311 OA
HETATM   42  C20 UNL     1      82.369  62.079  13.931  1.00  0.00     0.067 A 
HETATM   43  C21 UNL     1      83.664  62.412  13.982  1.00  0.00     0.051 C 
HETATM   44  C22 UNL     1      81.827  61.020  13.253  1.00  0.00     0.046 A 
HETATM   45  C23 UNL     1      80.445  61.066  13.484  1.00  0.00    -0.025 A 
HETATM   46  C24 UNL     1      79.457  60.109  12.944  1.00  0.00     0.051 C 
ENDBRANCH  39  40
ENDBRANCH   3  38
TORSDOF 13
ENDMDL
MODEL 4
REMARK VINA RESULT: -6.817971366      1.708      3.248
REMARK  13 active torsions:
REMARK  status: ('A' for Active; 'I' for Inactive)
REMARK    1  A    between atoms: C5_5  and  C6_6 
REMARK    2  A    between atoms: C6_6  and  C7_7 
REMARK    3  A    between atoms: C8_10  and  O1_11 
REMARK    4  A    between atoms: C10_14  and  C11_15 
REMARK    5  A    between atoms: C11_15  and  C12_16 
REMARK    6  A    between atoms: C13_17  and  C14_18 
REMARK    7  A    between atoms: C16_20  and  C17_21 
REMARK    8  A    between atoms: C18_22  and  C19_23 
REMARK    9  A    between atoms: C25_32  and  C26_33 
REMARK   10  A    between atoms: C26_33  and  C27_34 
REMARK   11  A    between atoms: C27_34  and  N3_35 
REMARK   12  A    between atoms: N3_35  and  N4_37 
REMARK   13  A    between atoms: N4_37  and  N5_38 
ROOT
HETATM    1  C14 UNL     1      78.979  65.504  11.511  1.00  0.00    -0.012 A 
HETATM    2  C15 UNL     1      79.962  65.481  12.491  1.00  0.00     0.042 A 
HETATM    3  C16 UNL     1      80.894  64.439  12.184  1.00  0.00     0.033 A 
HETATM    4  N2  UNL     1      80.431  63.850  11.001  1.00  0.00    -0.359 N 
ATOM      5  H2  UNL     1      80.877  63.071  10.518  1.00  0.00     0.166 HD
HETATM    6  C25 UNL     1      79.313  64.468  10.604  1.00  0.00     0.021 A 
ENDROOT
BRANCH   1   7
HETATM    7  C13 UNL     1      77.888  66.478  11.594  1.00  0.00     0.010 C 
HETATM    8  C12 UNL     1      76.526  66.204  11.257  1.00  0.00    -0.021 C 
BRANCH   8   9
HETATM    9  C11 UNL     1      75.537  65.468  12.051  1.00  0.00     0.068 C 
BRANCH   9  10
HETATM   10  C10 UNL     1      75.918  65.334  13.496  1.00  0.00    -0.022 A 
HETATM   11  C9  UNL     1      76.341  64.131  14.072  1.00  0.00     0.052 A 
HETATM   12  C8  UNL     1      76.611  62.798  13.864  1.00  0.00     0.153 A 
HETATM   13  C29 UNL     1      76.613  64.337  15.405  1.00  0.00     0.074 A 
HETATM   14  N1  UNL     1      77.021  62.227  14.997  1.00  0.00    -0.334 N 
HETATM   15  C7  UNL     1      77.029  63.149  15.952  1.00  0.00     0.062 A 
ATOM     16  H1  UNL     1      77.283  61.248  15.110  1.00  0.00     0.168 HD
HETATM   17  N6  UNL     1      76.363  65.656  15.659  1.00  0.00    -0.363 N 
HETATM   18  C28 UNL     1      75.945  66.245  14.499  1.00  0.00     0.097 A 
ATOM     19  H6  UNL     1      76.471  66.122  16.560  1.00  0.00     0.165 HD
BRANCH  12  20
HETATM   20  O1  UNL     1      76.461  62.171  12.613  1.00  0.00    -0.345 OA
ATOM     21  H1  UNL     1      77.064  62.215  11.880  1.00  0.00     0.219 HD
ENDBRANCH  12  20
BRANCH  15  22
HETATM   22  C6  UNL     1      77.405  63.003  17.366  1.00  0.00     0.043 C 
BRANCH  22  23
HETATM   23  C5  UNL     1      76.553  63.209  18.331  1.00  0.00    -0.034 A 
HETATM   24  C4  UNL     1      76.872  63.953  19.446  1.00  0.00     0.012 A 
HETATM   25  C3  UNL     1      75.936  64.152  20.454  1.00  0.00     0.011 A 
HETATM   26  C2  UNL     1      74.660  63.623  20.388  1.00  0.00    -0.046 A 
HETATM   27  C1  UNL     1      73.772  63.816  21.350  1.00  0.00     0.023 C 
HETATM   28  C31 UNL     1      74.350  62.878  19.263  1.00  0.00     0.011 A 
HETATM   29  C30 UNL     1      75.286  62.681  18.257  1.00  0.00     0.012 A 
ENDBRANCH  22  23
ENDBRANCH  15  22
ENDBRANCH   9  10
ENDBRANCH   8   9
ENDBRANCH   1   7
BRANCH   6  30
HETATM   30  C26 UNL     1      78.699  64.026   9.315  1.00  0.00     0.080 C 
BRANCH  30  31
HETATM   31  C27 UNL     1      77.513  63.101   9.611  1.00  0.00     0.161 C 
BRANCH  31  32
HETATM   32  N3  UNL     1      77.983  61.710   9.605  1.00  0.00    -0.252 N 
ATOM     33  H3  UNL     1      77.866  61.126   8.778  1.00  0.00     0.196 HD
BRANCH  32  34
HETATM   34  N4  UNL     1      78.519  61.266  10.616  1.00  0.00    -0.249 NA
BRANCH  34  35
HETATM   35  N5  UNL     1      78.829  60.772  11.719  1.00  0.00    -0.261 N 
ATOM     36  H52 UNL     1      79.183  61.677  12.028  1.00  0.00     0.193 HD
ATOM     37  H51 UNL     1      79.006  60.195  12.542  1.00  0.00     0.193 HD
ENDBRANCH  34  35
ENDBRANCH  32  34
ENDBRANCH  31  32
ENDBRANCH  30  31
ENDBRANCH   6  30
BRANCH   3  38
HETATM   38  C17 UNL     1      81.995  64.101  12.898  1.00  0.00     0.032 C 
HETATM   39  C18 UNL     1      82.492  62.772  12.754  1.00  0.00     0.040 C 
BRANCH  39  40
HETATM   40  C19 UNL     1      83.550  62.233  13.357  1.00  0.00     0.082 A 
HETATM   41  O2  UNL     1      83.949  62.595  14.579  1.00  0.00    -0.311 OA
HETATM   42  C20 UNL     1      84.991  61.960  14.987  1.00  0.00     0.067 A 
HETATM   43  C21 UNL     1      85.605  62.118  16.166  1.00  0.00     0.051 C 
HETATM   44  C22 UNL     1      85.352  61.092  13.990  1.00  0.00     0.046 A 
HETATM   45  C23 UNL     1      84.428  61.273  12.952  1.00  0.00    -0.025 A 
HETATM   46  C24 UNL     1      84.432  60.541  11.669  1.00  0.00     0.051 C 
ENDBRANCH  39  40
ENDBRANCH   3  38
TORSDOF 13
ENDMDL
MODEL 5
REMARK VINA RESULT: -6.804571244      2.518      3.970
REMARK  13 active torsions:
REMARK  status: ('A' for Active; 'I' for Inactive)
REMARK    1  A    between atoms: C5_5  and  C6_6 
REMARK    2  A    between atoms: C6_6  and  C7_7 
REMARK    3  A    between atoms: C8_10  and  O1_11 
REMARK    4  A    between atoms: C10_14  and  C11_15 
REMARK    5  A    between atoms: C11_15  and  C12_16 
REMARK    6  A    between atoms: C13_17  and  C14_18 
REMARK    7  A    between atoms: C16_20  and  C17_21 
REMARK    8  A    between atoms: C18_22  and  C19_23 
REMARK    9  A    between atoms: C25_32  and  C26_33 
REMARK   10  A    between atoms: C26_33  and  C27_34 
REMARK   11  A    between atoms: C27_34  and  N3_35 
REMARK   12  A    between atoms: N3_35  and  N4_37 
REMARK   13  A    between atoms: N4_37  and  N5_38 
ROOT
HETATM    1  C14 UNL     1      79.275  63.725  13.315  1.00  0.00    -0.012 A 
HETATM    2  C15 UNL     1      80.268  62.760  13.397  1.00  0.00     0.042 A 
HETATM    3  C16 UNL     1      81.495  63.321  12.916  1.00  0.00     0.033 A 
HETATM    4  N2  UNL     1      81.194  64.637  12.549  1.00  0.00    -0.359 N 
ATOM      5  H2  UNL     1      81.859  65.308  12.164  1.00  0.00     0.166 HD
HETATM    6  C25 UNL     1      79.898  64.878  12.780  1.00  0.00     0.021 A 
ENDROOT
BRANCH   1   7
HETATM    7  C13 UNL     1      77.909  63.404  13.738  1.00  0.00     0.010 C 
HETATM    8  C12 UNL     1      77.574  62.656  14.909  1.00  0.00    -0.021 C 
BRANCH   8   9
HETATM    9  C11 UNL     1      77.583  63.118  16.301  1.00  0.00     0.068 C 
BRANCH   9  10
HETATM   10  C10 UNL     1      76.219  63.148  16.924  1.00  0.00    -0.022 A 
HETATM   11  C9  UNL     1      75.998  63.415  18.280  1.00  0.00     0.052 A 
HETATM   12  C8  UNL     1      76.572  63.716  19.493  1.00  0.00     0.153 A 
HETATM   13  C29 UNL     1      74.647  63.369  18.537  1.00  0.00     0.074 A 
HETATM   14  N1  UNL     1      75.633  63.844  20.431  1.00  0.00    -0.334 N 
HETATM   15  C7  UNL     1      74.448  63.636  19.869  1.00  0.00     0.062 A 
ATOM     16  H1  UNL     1      75.798  64.065  21.413  1.00  0.00     0.168 HD
HETATM   17  N6  UNL     1      74.030  63.077  17.353  1.00  0.00    -0.363 N 
HETATM   18  C28 UNL     1      74.990  62.947  16.390  1.00  0.00     0.097 A 
ATOM     19  H6  UNL     1      73.025  62.974  17.214  1.00  0.00     0.165 HD
BRANCH  12  20
HETATM   20  O1  UNL     1      77.962  63.859  19.670  1.00  0.00    -0.345 OA
ATOM     21  H1  UNL     1      78.532  64.465  19.212  1.00  0.00     0.219 HD
ENDBRANCH  12  20
BRANCH  15  22
HETATM   22  C6  UNL     1      73.118  63.669  20.494  1.00  0.00     0.043 C 
BRANCH  22  23
HETATM   23  C5  UNL     1      72.484  62.578  20.824  1.00  0.00    -0.034 A 
HETATM   24  C4  UNL     1      71.680  61.899  19.935  1.00  0.00     0.012 A 
HETATM   25  C3  UNL     1      71.020  60.739  20.323  1.00  0.00     0.011 A 
HETATM   26  C2  UNL     1      71.138  60.217  21.598  1.00  0.00    -0.046 A 
HETATM   27  C1  UNL     1      70.510  59.112  21.964  1.00  0.00     0.023 C 
HETATM   28  C31 UNL     1      71.949  60.907  22.483  1.00  0.00     0.011 A 
HETATM   29  C30 UNL     1      72.607  62.066  22.093  1.00  0.00     0.012 A 
ENDBRANCH  22  23
ENDBRANCH  15  22
ENDBRANCH   9  10
ENDBRANCH   8   9
ENDBRANCH   1   7
BRANCH   6  30
HETATM   30  C26 UNL     1      79.394  66.260  12.513  1.00  0.00     0.080 C 
BRANCH  30  31
HETATM   31  C27 UNL     1      80.529  67.109  11.931  1.00  0.00     0.161 C 
BRANCH  31  32
HETATM   32  N3  UNL     1      79.956  68.103  11.015  1.00  0.00    -0.252 N 
ATOM     33  H3  UNL     1      78.958  68.314  11.034  1.00  0.00     0.196 HD
BRANCH  32  34
HETATM   34  N4  UNL     1      80.701  68.675  10.224  1.00  0.00    -0.249 NA
BRANCH  34  35
HETATM   35  N5  UNL     1      81.264  69.408   9.386  1.00  0.00    -0.261 N 
ATOM     36  H52 UNL     1      80.431  69.378   8.798  1.00  0.00     0.193 HD
ATOM     37  H51 UNL     1      81.881  70.001   8.832  1.00  0.00     0.193 HD
ENDBRANCH  34  35
ENDBRANCH  32  34
ENDBRANCH  31  32
ENDBRANCH  30  31
ENDBRANCH   6  30
BRANCH   3  38
HETATM   38  C17 UNL     1      82.694  62.696  12.838  1.00  0.00     0.032 C 
HETATM   39  C18 UNL     1      83.319  62.312  14.062  1.00  0.00     0.040 C 
BRANCH  39  40
HETATM   40  C19 UNL     1      84.488  61.692  14.215  1.00  0.00     0.082 A 
HETATM   41  O2  UNL     1      84.955  60.800  13.338  1.00  0.00    -0.311 OA
HETATM   42  C20 UNL     1      86.100  60.313  13.663  1.00  0.00     0.067 A 
HETATM   43  C21 UNL     1      86.801  59.404  12.973  1.00  0.00     0.051 C 
HETATM   44  C22 UNL     1      86.468  60.899  14.845  1.00  0.00     0.046 A 
HETATM   45  C23 UNL     1      85.434  61.778  15.192  1.00  0.00    -0.025 A 
HETATM   46  C24 UNL     1      85.405  62.627  16.401  1.00  0.00     0.051 C 
ENDBRANCH  39  40
ENDBRANCH   3  38
TORSDOF 13
ENDMDL
