MODEL 1
REMARK VINA RESULT: -5.734059008      0.000      0.000
REMARK  5 active torsions:
REMARK  status: ('A' for Active; 'I' for Inactive)
REMARK    1  A    between atoms: N1_2  and  C2_5 
REMARK    2  A    between atoms: C2_5  and  C3_6 
REMARK    3  A    between atoms: C3_6  and  N2_7 
REMARK    4  A    between atoms: C6_10  and  N3_11 
REMARK    5  A    between atoms: N3_11  and  C7_13 
ROOT
HETATM    1  N2  UNL     1      23.026 -16.072   7.800  1.00  0.00     0.092 N 
HETATM    2  C4  UNL     1      23.015 -17.500   7.682  1.00  0.00     0.274 C 
HETATM    3  C5  UNL     1      21.640 -17.765   7.106  1.00  0.00     0.057 C 
HETATM    4  C6  UNL     1      20.788 -16.803   7.894  1.00  0.00     0.113 C 
HETATM    5  C8  UNL     1      21.708 -15.587   7.978  1.00  0.00     0.297 C 
ENDROOT
BRANCH   1   6
HETATM    6  C3  UNL     1      23.856 -15.383   6.882  1.00  0.00     0.300 C 
BRANCH   6   7
HETATM    7  C2  UNL     1      24.964 -14.585   7.480  1.00  0.00     0.262 C 
BRANCH   7   8
HETATM    8  N1  UNL     1      24.910 -13.239   6.885  1.00  0.00    -0.077 N 
HETATM    9  C1  UNL     1      26.206 -12.645   7.138  1.00  0.00     0.267 C 
ATOM     10  H12 UNL     1      24.129 -12.675   7.220  1.00  0.00     0.276 HD
ATOM     11  H11 UNL     1      24.646 -13.238   5.900  1.00  0.00     0.276 HD
ENDBRANCH   7   8
ENDBRANCH   6   7
ENDBRANCH   1   6
BRANCH   4  12
HETATM   12  N3  UNL     1      19.576 -16.481   7.161  1.00  0.00    -0.362 N 
ATOM     13  H3  UNL     1      18.837 -17.179   7.082  1.00  0.00     0.162 HD
BRANCH  12  14
HETATM   14  C7  UNL     1      19.403 -15.213   6.554  1.00  0.00     0.348 C 
HETATM   15  O1  UNL     1      18.245 -14.751   6.425  1.00  0.00    -0.284 OA
ENDBRANCH  12  14
ENDBRANCH   4  12
TORSDOF 5
ENDMDL
MODEL 2
REMARK VINA RESULT: -5.595945316      1.378      1.505
REMARK  5 active torsions:
REMARK  status: ('A' for Active; 'I' for Inactive)
REMARK    1  A    between atoms: N1_2  and  C2_5 
REMARK    2  A    between atoms: C2_5  and  C3_6 
REMARK    3  A    between atoms: C3_6  and  N2_7 
REMARK    4  A    between atoms: C6_10  and  N3_11 
REMARK    5  A    between atoms: N3_11  and  C7_13 
ROOT
HETATM    1  N2  UNL     1      23.087 -15.761   6.911  1.00  0.00     0.092 N 
HETATM    2  C4  UNL     1      22.741 -15.996   5.541  1.00  0.00     0.274 C 
HETATM    3  C5  UNL     1      21.227 -15.969   5.582  1.00  0.00     0.057 C 
HETATM    4  C6  UNL     1      20.942 -16.734   6.849  1.00  0.00     0.113 C 
HETATM    5  C8  UNL     1      22.057 -16.229   7.762  1.00  0.00     0.297 C 
ENDROOT
BRANCH   1   6
HETATM    6  C3  UNL     1      23.643 -14.491   7.197  1.00  0.00     0.300 C 
BRANCH   6   7
HETATM    7  C2  UNL     1      25.133 -14.429   7.245  1.00  0.00     0.262 C 
BRANCH   7   8
HETATM    8  N1  UNL     1      25.529 -13.059   6.878  1.00  0.00    -0.077 N 
HETATM    9  C1  UNL     1      26.769 -12.808   7.583  1.00  0.00     0.267 C 
ATOM     10  H12 UNL     1      24.807 -12.362   7.060  1.00  0.00     0.276 HD
ATOM     11  H11 UNL     1      25.594 -12.908   5.872  1.00  0.00     0.276 HD
ENDBRANCH   7   8
ENDBRANCH   6   7
ENDBRANCH   1   6
BRANCH   4  12
HETATM   12  N3  UNL     1      19.640 -16.371   7.379  1.00  0.00    -0.362 N 
ATOM     13  H3  UNL     1      19.534 -15.497   7.894  1.00  0.00     0.162 HD
BRANCH  12  14
HETATM   14  C7  UNL     1      18.514 -17.209   7.192  1.00  0.00     0.348 C 
HETATM   15  O1  UNL     1      17.409 -16.691   6.906  1.00  0.00    -0.284 OA
ENDBRANCH  12  14
ENDBRANCH   4  12
TORSDOF 5
ENDMDL
MODEL 3
REMARK VINA RESULT: -5.565401150      1.237      1.287
REMARK  5 active torsions:
REMARK  status: ('A' for Active; 'I' for Inactive)
REMARK    1  A    between atoms: N1_2  and  C2_5 
REMARK    2  A    between atoms: C2_5  and  C3_6 
REMARK    3  A    between atoms: C3_6  and  N2_7 
REMARK    4  A    between atoms: C6_10  and  N3_11 
REMARK    5  A    between atoms: N3_11  and  C7_13 
ROOT
HETATM    1  N2  UNL     1      23.528 -16.307   8.594  1.00  0.00     0.092 N 
HETATM    2  C4  UNL     1      23.677 -17.721   8.420  1.00  0.00     0.274 C 
HETATM    3  C5  UNL     1      22.510 -18.058   7.516  1.00  0.00     0.057 C 
HETATM    4  C6  UNL     1      21.409 -17.217   8.110  1.00  0.00     0.113 C 
HETATM    5  C8  UNL     1      22.166 -15.940   8.465  1.00  0.00     0.297 C 
ENDROOT
BRANCH   1   6
HETATM    6  C3  UNL     1      24.486 -15.499   7.934  1.00  0.00     0.300 C 
BRANCH   6   7
HETATM    7  C2  UNL     1      23.965 -14.638   6.834  1.00  0.00     0.262 C 
BRANCH   7   8
HETATM    8  N1  UNL     1      24.686 -13.357   6.896  1.00  0.00    -0.077 N 
HETATM    9  C1  UNL     1      26.047 -13.690   7.265  1.00  0.00     0.267 C 
ATOM     10  H12 UNL     1      24.251 -12.673   7.516  1.00  0.00     0.276 HD
ATOM     11  H11 UNL     1      24.618 -12.807   6.040  1.00  0.00     0.276 HD
ENDBRANCH   7   8
ENDBRANCH   6   7
ENDBRANCH   1   6
BRANCH   4  12
HETATM   12  N3  UNL     1      20.384 -16.948   7.118  1.00  0.00    -0.362 N 
ATOM     13  H3  UNL     1      19.637 -17.628   6.971  1.00  0.00     0.162 HD
BRANCH  12  14
HETATM   14  C7  UNL     1      20.403 -15.759   6.350  1.00  0.00     0.348 C 
HETATM   15  O1  UNL     1      20.831 -15.800   5.172  1.00  0.00    -0.284 OA
ENDBRANCH  12  14
ENDBRANCH   4  12
TORSDOF 5
ENDMDL
MODEL 4
REMARK VINA RESULT: -5.541216963      2.934      4.754
REMARK  5 active torsions:
REMARK  status: ('A' for Active; 'I' for Inactive)
REMARK    1  A    between atoms: N1_2  and  C2_5 
REMARK    2  A    between atoms: C2_5  and  C3_6 
REMARK    3  A    between atoms: C3_6  and  N2_7 
REMARK    4  A    between atoms: C6_10  and  N3_11 
REMARK    5  A    between atoms: N3_11  and  C7_13 
ROOT
HETATM    1  N2  UNL     1      22.478 -17.177   7.990  1.00  0.00     0.092 N 
HETATM    2  C4  UNL     1      21.665 -16.102   8.473  1.00  0.00     0.274 C 
HETATM    3  C5  UNL     1      22.300 -14.895   7.815  1.00  0.00     0.057 C 
HETATM    4  C6  UNL     1      23.768 -15.205   7.963  1.00  0.00     0.113 C 
HETATM    5  C8  UNL     1      23.784 -16.710   7.705  1.00  0.00     0.297 C 
ENDROOT
BRANCH   1   6
HETATM    6  C3  UNL     1      21.870 -18.033   7.040  1.00  0.00     0.300 C 
BRANCH   6   7
HETATM    7  C2  UNL     1      22.421 -17.965   5.656  1.00  0.00     0.262 C 
BRANCH   7   8
HETATM    8  N1  UNL     1      21.545 -17.075   4.876  1.00  0.00    -0.077 N 
HETATM    9  C1  UNL     1      22.385 -15.976   4.446  1.00  0.00     0.267 C 
ATOM     10  H12 UNL     1      20.710 -16.778   5.382  1.00  0.00     0.276 HD
ATOM     11  H11 UNL     1      21.063 -17.544   4.110  1.00  0.00     0.276 HD
ENDBRANCH   7   8
ENDBRANCH   6   7
ENDBRANCH   1   6
BRANCH   4  12
HETATM   12  N3  UNL     1      24.539 -14.502   6.952  1.00  0.00    -0.362 N 
ATOM     13  H3  UNL     1      24.307 -14.629   5.967  1.00  0.00     0.162 HD
BRANCH  12  14
HETATM   14  C7  UNL     1      25.608 -13.645   7.312  1.00  0.00     0.348 C 
HETATM   15  O1  UNL     1      26.723 -14.145   7.590  1.00  0.00    -0.284 OA
ENDBRANCH  12  14
ENDBRANCH   4  12
TORSDOF 5
ENDMDL
MODEL 5
REMARK VINA RESULT: -5.536652046      2.774      5.523
REMARK  5 active torsions:
REMARK  status: ('A' for Active; 'I' for Inactive)
REMARK    1  A    between atoms: N1_2  and  C2_5 
REMARK    2  A    between atoms: C2_5  and  C3_6 
REMARK    3  A    between atoms: C3_6  and  N2_7 
REMARK    4  A    between atoms: C6_10  and  N3_11 
REMARK    5  A    between atoms: N3_11  and  C7_13 
ROOT
HETATM    1  N2  UNL     1      22.369 -16.619   6.690  1.00  0.00     0.092 N 
HETATM    2  C4  UNL     1      23.133 -17.039   7.827  1.00  0.00     0.274 C 
HETATM    3  C5  UNL     1      23.852 -15.765   8.220  1.00  0.00     0.057 C 
HETATM    4  C6  UNL     1      24.250 -15.211   6.876  1.00  0.00     0.113 C 
HETATM    5  C8  UNL     1      23.016 -15.541   6.039  1.00  0.00     0.297 C 
ENDROOT
BRANCH   1   6
HETATM    6  C3  UNL     1      20.971 -16.516   6.890  1.00  0.00     0.300 C 
BRANCH   6   7
HETATM    7  C2  UNL     1      20.427 -17.247   8.071  1.00  0.00     0.262 C 
BRANCH   7   8
HETATM    8  N1  UNL     1      19.300 -18.069   7.599  1.00  0.00    -0.077 N 
HETATM    9  C1  UNL     1      19.522 -19.391   8.148  1.00  0.00     0.267 C 
ATOM     10  H12 UNL     1      19.184 -18.061   6.586  1.00  0.00     0.276 HD
ATOM     11  H11 UNL     1      18.386 -17.680   7.829  1.00  0.00     0.276 HD
ENDBRANCH   7   8
ENDBRANCH   6   7
ENDBRANCH   1   6
BRANCH   4  12
HETATM   12  N3  UNL     1      24.447 -13.775   6.957  1.00  0.00    -0.362 N 
ATOM     13  H3  UNL     1      23.637 -13.155   6.920  1.00  0.00     0.162 HD
BRANCH  12  14
HETATM   14  C7  UNL     1      25.743 -13.220   7.085  1.00  0.00     0.348 C 
HETATM   15  O1  UNL     1      26.695 -13.964   7.420  1.00  0.00    -0.284 OA
ENDBRANCH  12  14
ENDBRANCH   4  12
TORSDOF 5
ENDMDL
