MODEL 1
REMARK VINA RESULT: -6.085457694      0.000      0.000
REMARK  6 active torsions:
REMARK  status: ('A' for Active; 'I' for Inactive)
REMARK    1  A    between atoms: N2_3  and  C2_5 
REMARK    2  A    between atoms: C2_5  and  C3_6 
REMARK    3  A    between atoms: C4_8  and  N3_9 
REMARK    4  A    between atoms: N3_9  and  C5_11 
REMARK    5  A    between atoms: C5_11  and  C6_12 
REMARK    6  A    between atoms: N4_13  and  C7_15 
ROOT
HETATM    1  C3  UNL     1      23.404 -15.041   7.159  1.00  0.00     0.190 A 
HETATM    2  O1  UNL     1      23.101 -15.985   6.195  1.00  0.00    -0.353 OA
HETATM    3  C4  UNL     1      23.107 -16.487   7.493  1.00  0.00     0.248 A 
ENDROOT
BRANCH   3   4
HETATM    4  N3  UNL     1      21.870 -16.676   8.191  1.00  0.00    -0.390 N 
ATOM      5  H3  UNL     1      21.286 -15.892   8.482  1.00  0.00     0.156 HD
BRANCH   4   6
HETATM    6  C5  UNL     1      21.510 -18.031   8.452  1.00  0.00     0.161 C 
BRANCH   6   7
HETATM    7  C6  UNL     1      20.094 -18.233   8.081  1.00  0.00     0.082 C 
HETATM    8  N4  UNL     1      19.504 -17.238   7.502  1.00  0.00    -0.346 N 
ATOM      9  H4  UNL     1      20.011 -16.371   7.324  1.00  0.00     0.167 HD
BRANCH   8  10
HETATM   10  C7  UNL     1      18.154 -17.366   7.122  1.00  0.00     0.352 C 
HETATM   11  O2  UNL     1      17.464 -16.316   6.880  1.00  0.00    -0.283 OA
ENDBRANCH   8  10
ENDBRANCH   6   7
ENDBRANCH   4   6
ENDBRANCH   3   4
BRANCH   1  12
HETATM   12  C2  UNL     1      24.811 -14.605   7.383  1.00  0.00     0.156 C 
BRANCH  12  13
HETATM   13  N2  UNL     1      25.125 -13.329   6.829  1.00  0.00    -0.385 N 
HETATM   14  C1  UNL     1      26.135 -12.611   7.175  1.00  0.00     0.185 C 
HETATM   15  N1  UNL     1      27.014 -13.075   8.159  1.00  0.00    -0.097 NA
ATOM     16  H2  UNL     1      24.505 -12.959   6.108  1.00  0.00     0.159 HD
ENDBRANCH  12  13
ENDBRANCH   1  12
TORSDOF 6
ENDMDL
MODEL 2
REMARK VINA RESULT: -5.970296186      2.008      2.772
REMARK  6 active torsions:
REMARK  status: ('A' for Active; 'I' for Inactive)
REMARK    1  A    between atoms: N2_3  and  C2_5 
REMARK    2  A    between atoms: C2_5  and  C3_6 
REMARK    3  A    between atoms: C4_8  and  N3_9 
REMARK    4  A    between atoms: N3_9  and  C5_11 
REMARK    5  A    between atoms: C5_11  and  C6_12 
REMARK    6  A    between atoms: N4_13  and  C7_15 
ROOT
HETATM    1  C3  UNL     1      22.898 -15.414   6.082  1.00  0.00     0.190 A 
HETATM    2  O1  UNL     1      22.926 -16.546   5.290  1.00  0.00    -0.353 OA
HETATM    3  C4  UNL     1      22.192 -16.698   6.461  1.00  0.00     0.248 A 
ENDROOT
BRANCH   3   4
HETATM    4  N3  UNL     1      20.763 -16.604   6.425  1.00  0.00    -0.390 N 
ATOM      5  H3  UNL     1      20.262 -16.255   5.608  1.00  0.00     0.156 HD
BRANCH   4   6
HETATM    6  C5  UNL     1      20.087 -17.028   7.606  1.00  0.00     0.161 C 
BRANCH   6   7
HETATM    7  C6  UNL     1      21.075 -17.198   8.692  1.00  0.00     0.082 C 
HETATM    8  N4  UNL     1      21.115 -16.261   9.583  1.00  0.00    -0.346 N 
ATOM      9  H4  UNL     1      20.489 -15.459   9.517  1.00  0.00     0.167 HD
BRANCH   8  10
HETATM   10  C7  UNL     1      22.034 -16.361  10.646  1.00  0.00     0.352 C 
HETATM   11  O2  UNL     1      22.349 -15.314  11.310  1.00  0.00    -0.283 OA
ENDBRANCH   8  10
ENDBRANCH   6   7
ENDBRANCH   4   6
ENDBRANCH   3   4
BRANCH   1  12
HETATM   12  C2  UNL     1      24.067 -15.048   6.932  1.00  0.00     0.156 C 
BRANCH  12  13
HETATM   13  N2  UNL     1      24.434 -13.672   6.862  1.00  0.00    -0.385 N 
HETATM   14  C1  UNL     1      25.612 -13.218   7.106  1.00  0.00     0.185 C 
HETATM   15  N1  UNL     1      26.637 -14.098   7.467  1.00  0.00    -0.097 NA
ATOM     16  H2  UNL     1      23.711 -13.001   6.601  1.00  0.00     0.159 HD
ENDBRANCH  12  13
ENDBRANCH   1  12
TORSDOF 6
ENDMDL
MODEL 3
REMARK VINA RESULT: -5.792860595      1.787      1.868
REMARK  6 active torsions:
REMARK  status: ('A' for Active; 'I' for Inactive)
REMARK    1  A    between atoms: N2_3  and  C2_5 
REMARK    2  A    between atoms: C2_5  and  C3_6 
REMARK    3  A    between atoms: C4_8  and  N3_9 
REMARK    4  A    between atoms: N3_9  and  C5_11 
REMARK    5  A    between atoms: C5_11  and  C6_12 
REMARK    6  A    between atoms: N4_13  and  C7_15 
ROOT
HETATM    1  C3  UNL     1      24.549 -15.521   7.847  1.00  0.00     0.190 A 
HETATM    2  O1  UNL     1      23.467 -15.273   8.670  1.00  0.00    -0.353 OA
HETATM    3  C4  UNL     1      23.117 -15.745   7.409  1.00  0.00     0.248 A 
ENDROOT
BRANCH   3   4
HETATM    4  N3  UNL     1      22.777 -17.125   7.232  1.00  0.00    -0.390 N 
ATOM      5  H3  UNL     1      23.454 -17.874   7.373  1.00  0.00     0.156 HD
BRANCH   4   6
HETATM    6  C5  UNL     1      21.428 -17.383   6.847  1.00  0.00     0.161 C 
BRANCH   6   7
HETATM    7  C6  UNL     1      20.781 -16.107   6.476  1.00  0.00     0.082 C 
HETATM    8  N4  UNL     1      19.761 -15.752   7.189  1.00  0.00    -0.346 N 
ATOM      9  H4  UNL     1      19.441 -16.339   7.959  1.00  0.00     0.167 HD
BRANCH   8  10
HETATM   10  C7  UNL     1      19.098 -14.546   6.889  1.00  0.00     0.352 C 
HETATM   11  O2  UNL     1      18.145 -14.544   6.035  1.00  0.00    -0.283 OA
ENDBRANCH   8  10
ENDBRANCH   6   7
ENDBRANCH   4   6
ENDBRANCH   3   4
BRANCH   1  12
HETATM   12  C2  UNL     1      25.263 -14.404   7.167  1.00  0.00     0.156 C 
BRANCH  12  13
HETATM   13  N2  UNL     1      26.503 -14.045   7.773  1.00  0.00    -0.385 N 
HETATM   14  C1  UNL     1      27.015 -12.866   7.746  1.00  0.00     0.185 C 
HETATM   15  N1  UNL     1      26.343 -11.830   7.089  1.00  0.00    -0.097 NA
ATOM     16  H2  UNL     1      27.020 -14.776   8.262  1.00  0.00     0.159 HD
ENDBRANCH  12  13
ENDBRANCH   1  12
TORSDOF 6
ENDMDL
MODEL 4
REMARK VINA RESULT: -5.748616828      2.903      6.285
REMARK  6 active torsions:
REMARK  status: ('A' for Active; 'I' for Inactive)
REMARK    1  A    between atoms: N2_3  and  C2_5 
REMARK    2  A    between atoms: C2_5  and  C3_6 
REMARK    3  A    between atoms: C4_8  and  N3_9 
REMARK    4  A    between atoms: N3_9  and  C5_11 
REMARK    5  A    between atoms: C5_11  and  C6_12 
REMARK    6  A    between atoms: N4_13  and  C7_15 
ROOT
HETATM    1  C3  UNL     1      21.205 -16.519   9.547  1.00  0.00     0.190 A 
HETATM    2  O1  UNL     1      21.207 -15.156   9.780  1.00  0.00    -0.353 OA
HETATM    3  C4  UNL     1      22.141 -15.567   8.834  1.00  0.00     0.248 A 
ENDROOT
BRANCH   3   4
HETATM    4  N3  UNL     1      21.857 -15.416   7.438  1.00  0.00    -0.390 N 
ATOM      5  H3  UNL     1      20.931 -15.158   7.097  1.00  0.00     0.156 HD
BRANCH   4   6
HETATM    6  C5  UNL     1      22.953 -15.650   6.556  1.00  0.00     0.161 C 
BRANCH   6   7
HETATM    7  C6  UNL     1      24.183 -15.098   7.160  1.00  0.00     0.082 C 
HETATM    8  N4  UNL     1      24.584 -13.956   6.704  1.00  0.00    -0.346 N 
ATOM      9  H4  UNL     1      24.062 -13.484   5.966  1.00  0.00     0.167 HD
BRANCH   8  10
HETATM   10  C7  UNL     1      25.751 -13.373   7.236  1.00  0.00     0.352 C 
HETATM   11  O2  UNL     1      26.781 -14.101   7.448  1.00  0.00    -0.283 OA
ENDBRANCH   8  10
ENDBRANCH   6   7
ENDBRANCH   4   6
ENDBRANCH   3   4
BRANCH   1  12
HETATM   12  C2  UNL     1      21.852 -17.457  10.508  1.00  0.00     0.156 C 
BRANCH  12  13
HETATM   13  N2  UNL     1      20.963 -18.011  11.476  1.00  0.00    -0.385 N 
HETATM   14  C1  UNL     1      20.893 -17.634  12.703  1.00  0.00     0.185 C 
HETATM   15  N1  UNL     1      21.728 -16.612  13.166  1.00  0.00    -0.097 NA
ATOM     16  H2  UNL     1      20.339 -18.759  11.172  1.00  0.00     0.159 HD
ENDBRANCH  12  13
ENDBRANCH   1  12
TORSDOF 6
ENDMDL
MODEL 5
REMARK VINA RESULT: -5.671377536      2.470      5.521
REMARK  6 active torsions:
REMARK  status: ('A' for Active; 'I' for Inactive)
REMARK    1  A    between atoms: N2_3  and  C2_5 
REMARK    2  A    between atoms: C2_5  and  C3_6 
REMARK    3  A    between atoms: C4_8  and  N3_9 
REMARK    4  A    between atoms: N3_9  and  C5_11 
REMARK    5  A    between atoms: C5_11  and  C6_12 
REMARK    6  A    between atoms: N4_13  and  C7_15 
ROOT
HETATM    1  C3  UNL     1      20.868 -16.847   8.099  1.00  0.00     0.190 A 
HETATM    2  O1  UNL     1      19.646 -16.575   7.514  1.00  0.00    -0.353 OA
HETATM    3  C4  UNL     1      20.714 -15.914   6.917  1.00  0.00     0.248 A 
ENDROOT
BRANCH   3   4
HETATM    4  N3  UNL     1      21.280 -16.422   5.703  1.00  0.00    -0.390 N 
ATOM      5  H3  UNL     1      20.882 -17.222   5.212  1.00  0.00     0.156 HD
BRANCH   4   6
HETATM    6  C5  UNL     1      22.434 -15.734   5.225  1.00  0.00     0.161 C 
BRANCH   6   7
HETATM    7  C6  UNL     1      23.449 -15.693   6.299  1.00  0.00     0.082 C 
HETATM    8  N4  UNL     1      24.073 -14.572   6.456  1.00  0.00    -0.346 N 
ATOM      9  H4  UNL     1      23.859 -13.774   5.858  1.00  0.00     0.167 HD
BRANCH   8  10
HETATM   10  C7  UNL     1      25.053 -14.465   7.463  1.00  0.00     0.352 C 
HETATM   11  O2  UNL     1      26.278 -14.292   7.137  1.00  0.00    -0.283 OA
ENDBRANCH   8  10
ENDBRANCH   6   7
ENDBRANCH   4   6
ENDBRANCH   3   4
BRANCH   1  12
HETATM   12  C2  UNL     1      21.260 -16.200   9.383  1.00  0.00     0.156 C 
BRANCH  12  13
HETATM   13  N2  UNL     1      21.427 -17.108  10.470  1.00  0.00    -0.385 N 
HETATM   14  C1  UNL     1      21.996 -16.814  11.585  1.00  0.00     0.185 C 
HETATM   15  N1  UNL     1      22.501 -15.527  11.792  1.00  0.00    -0.097 NA
ATOM     16  H2  UNL     1      21.070 -18.056  10.355  1.00  0.00     0.159 HD
ENDBRANCH  12  13
ENDBRANCH   1  12
TORSDOF 6
ENDMDL
