MODEL 1
REMARK VINA RESULT: -6.758793297      0.000      0.000
REMARK  6 active torsions:
REMARK  status: ('A' for Active; 'I' for Inactive)
REMARK    1  A    between atoms: N1_1  and  N2_4 
REMARK    2  A    between atoms: N3_6  and  N4_8 
REMARK    3  A    between atoms: N5_10  and  O1_12 
REMARK    4  A    between atoms: O1_12  and  C1_13 
REMARK    5  A    between atoms: C1_13  and  C2_14 
REMARK    6  A    between atoms: C2_14  and  N6_15 
ROOT
HETATM    1  N4  UNL     1      25.273 -13.926   6.680  1.00  0.00    -0.207 N 
ATOM      2  H4  UNL     1      25.836 -14.719   6.372  1.00  0.00     0.212 HD
HETATM    3  N5  UNL     1      24.040 -14.050   7.012  1.00  0.00    -0.192 N 
ATOM      4  H5  UNL     1      23.530 -13.219   7.310  1.00  0.00     0.217 HD
ENDROOT
BRANCH   3   5
HETATM    5  O1  UNL     1      23.381 -15.244   6.983  1.00  0.00    -0.262 OA
BRANCH   5   6
HETATM    6  C1  UNL     1      22.863 -15.698   5.750  1.00  0.00     0.223 C 
BRANCH   6   7
HETATM    7  C2  UNL     1      21.519 -16.358   5.931  1.00  0.00     0.156 C 
BRANCH   7   8
HETATM    8  N6  UNL     1      21.613 -17.609   6.647  1.00  0.00    -0.364 N 
HETATM    9  C3  UNL     1      20.867 -17.930   7.699  1.00  0.00     0.090 A 
HETATM   10  C4  UNL     1      21.015 -19.149   8.332  1.00  0.00     0.017 A 
HETATM   11  C5  UNL     1      21.946 -20.060   7.881  1.00  0.00     0.003 A 
HETATM   12  C6  UNL     1      22.715 -19.734   6.799  1.00  0.00     0.017 A 
HETATM   13  C7  UNL     1      22.518 -18.504   6.213  1.00  0.00     0.090 A 
ENDBRANCH   7   8
ENDBRANCH   6   7
ENDBRANCH   5   6
ENDBRANCH   3   5
BRANCH   1  14
HETATM   14  N3  UNL     1      25.796 -12.631   6.767  1.00  0.00    -0.213 N 
HETATM   15  N2  UNL     1      26.785 -12.303   7.452  1.00  0.00    -0.234 N 
ATOM     16  H2  UNL     1      27.077 -11.326   7.437  1.00  0.00     0.209 HD
ATOM     17  H3  UNL     1      25.333 -11.899   6.228  1.00  0.00     0.211 HD
BRANCH  15  18
HETATM   18  N1  UNL     1      27.508 -13.183   8.230  1.00  0.00    -0.330 N 
ATOM     19  H12 UNL     1      27.047 -13.553   9.060  1.00  0.00     0.178 HD
ATOM     20  H11 UNL     1      28.462 -13.477   8.019  1.00  0.00     0.178 HD
ENDBRANCH  15  18
ENDBRANCH   1  14
TORSDOF 6
ENDMDL
MODEL 2
REMARK VINA RESULT: -6.737236742      0.476      1.369
REMARK  6 active torsions:
REMARK  status: ('A' for Active; 'I' for Inactive)
REMARK    1  A    between atoms: N1_1  and  N2_4 
REMARK    2  A    between atoms: N3_6  and  N4_8 
REMARK    3  A    between atoms: N5_10  and  O1_12 
REMARK    4  A    between atoms: O1_12  and  C1_13 
REMARK    5  A    between atoms: C1_13  and  C2_14 
REMARK    6  A    between atoms: C2_14  and  N6_15 
ROOT
HETATM    1  N4  UNL     1      25.246 -13.887   6.692  1.00  0.00    -0.207 N 
ATOM      2  H4  UNL     1      25.771 -14.702   6.375  1.00  0.00     0.212 HD
HETATM    3  N5  UNL     1      24.021 -13.968   7.067  1.00  0.00    -0.192 N 
ATOM      4  H5  UNL     1      23.548 -13.117   7.373  1.00  0.00     0.217 HD
ENDROOT
BRANCH   3   5
HETATM    5  O1  UNL     1      23.323 -15.140   7.074  1.00  0.00    -0.262 OA
BRANCH   5   6
HETATM    6  C1  UNL     1      22.952 -15.710   5.837  1.00  0.00     0.223 C 
BRANCH   6   7
HETATM    7  C2  UNL     1      21.531 -16.215   5.871  1.00  0.00     0.156 C 
BRANCH   7   8
HETATM    8  N6  UNL     1      21.374 -17.357   6.740  1.00  0.00    -0.364 N 
HETATM    9  C3  UNL     1      22.140 -18.442   6.701  1.00  0.00     0.090 A 
HETATM   10  C4  UNL     1      21.927 -19.496   7.569  1.00  0.00     0.017 A 
HETATM   11  C5  UNL     1      20.909 -19.441   8.497  1.00  0.00     0.003 A 
HETATM   12  C6  UNL     1      20.119 -18.326   8.541  1.00  0.00     0.017 A 
HETATM   13  C7  UNL     1      20.384 -17.311   7.649  1.00  0.00     0.090 A 
ENDBRANCH   7   8
ENDBRANCH   6   7
ENDBRANCH   5   6
ENDBRANCH   3   5
BRANCH   1  14
HETATM   14  N3  UNL     1      25.813 -12.610   6.747  1.00  0.00    -0.213 N 
HETATM   15  N2  UNL     1      26.810 -12.298   7.428  1.00  0.00    -0.234 N 
ATOM     16  H2  UNL     1      27.136 -11.332   7.387  1.00  0.00     0.209 HD
ATOM     17  H3  UNL     1      25.377 -11.877   6.187  1.00  0.00     0.211 HD
BRANCH  15  18
HETATM   18  N1  UNL     1      27.499 -13.181   8.232  1.00  0.00    -0.330 N 
ATOM     19  H12 UNL     1      27.966 -13.961   7.769  1.00  0.00     0.178 HD
ATOM     20  H11 UNL     1      27.564 -13.096   9.246  1.00  0.00     0.178 HD
ENDBRANCH  15  18
ENDBRANCH   1  14
TORSDOF 6
ENDMDL
MODEL 3
REMARK VINA RESULT: -6.708121797      1.482      2.116
REMARK  6 active torsions:
REMARK  status: ('A' for Active; 'I' for Inactive)
REMARK    1  A    between atoms: N1_1  and  N2_4 
REMARK    2  A    between atoms: N3_6  and  N4_8 
REMARK    3  A    between atoms: N5_10  and  O1_12 
REMARK    4  A    between atoms: O1_12  and  C1_13 
REMARK    5  A    between atoms: C1_13  and  C2_14 
REMARK    6  A    between atoms: C2_14  and  N6_15 
ROOT
HETATM    1  N4  UNL     1      25.170 -14.207   7.028  1.00  0.00    -0.207 N 
ATOM      2  H4  UNL     1      25.691 -14.916   7.543  1.00  0.00     0.212 HD
HETATM    3  N5  UNL     1      24.065 -14.472   6.430  1.00  0.00    -0.192 N 
ATOM      4  H5  UNL     1      23.591 -13.721   5.929  1.00  0.00     0.217 HD
ENDROOT
BRANCH   3   5
HETATM    5  O1  UNL     1      23.498 -15.713   6.435  1.00  0.00    -0.262 OA
BRANCH   5   6
HETATM    6  C1  UNL     1      22.410 -15.959   5.569  1.00  0.00     0.223 C 
BRANCH   6   7
HETATM    7  C2  UNL     1      21.101 -15.949   6.318  1.00  0.00     0.156 C 
BRANCH   7   8
HETATM    8  N6  UNL     1      21.231 -16.469   7.659  1.00  0.00    -0.364 N 
HETATM    9  C3  UNL     1      21.232 -17.761   7.967  1.00  0.00     0.090 A 
HETATM   10  C4  UNL     1      21.362 -18.182   9.276  1.00  0.00     0.017 A 
HETATM   11  C5  UNL     1      21.492 -17.262  10.294  1.00  0.00     0.003 A 
HETATM   12  C6  UNL     1      21.491 -15.931   9.983  1.00  0.00     0.017 A 
HETATM   13  C7  UNL     1      21.359 -15.578   8.658  1.00  0.00     0.090 A 
ENDBRANCH   7   8
ENDBRANCH   6   7
ENDBRANCH   5   6
ENDBRANCH   3   5
BRANCH   1  14
HETATM   14  N3  UNL     1      25.612 -12.884   6.925  1.00  0.00    -0.213 N 
HETATM   15  N2  UNL     1      26.650 -12.434   7.448  1.00  0.00    -0.234 N 
ATOM     16  H2  UNL     1      26.873 -11.449   7.303  1.00  0.00     0.209 HD
ATOM     17  H3  UNL     1      25.041 -12.238   6.380  1.00  0.00     0.211 HD
BRANCH  15  18
HETATM   18  N1  UNL     1      27.516 -13.188   8.211  1.00  0.00    -0.330 N 
ATOM     19  H12 UNL     1      28.018 -12.705   8.956  1.00  0.00     0.178 HD
ATOM     20  H11 UNL     1      27.677 -14.186   8.072  1.00  0.00     0.178 HD
ENDBRANCH  15  18
ENDBRANCH   1  14
TORSDOF 6
ENDMDL
MODEL 4
REMARK VINA RESULT: -6.657186878      1.288      1.335
REMARK  6 active torsions:
REMARK  status: ('A' for Active; 'I' for Inactive)
REMARK    1  A    between atoms: N1_1  and  N2_4 
REMARK    2  A    between atoms: N3_6  and  N4_8 
REMARK    3  A    between atoms: N5_10  and  O1_12 
REMARK    4  A    between atoms: O1_12  and  C1_13 
REMARK    5  A    between atoms: C1_13  and  C2_14 
REMARK    6  A    between atoms: C2_14  and  N6_15 
ROOT
HETATM    1  N4  UNL     1      25.200 -13.828   6.752  1.00  0.00    -0.207 N 
ATOM      2  H4  UNL     1      25.732 -14.690   6.641  1.00  0.00     0.212 HD
HETATM    3  N5  UNL     1      23.923 -13.823   6.872  1.00  0.00    -0.192 N 
ATOM      4  H5  UNL     1      23.447 -12.927   6.979  1.00  0.00     0.217 HD
ENDROOT
BRANCH   3   5
HETATM    5  O1  UNL     1      23.173 -14.963   6.863  1.00  0.00    -0.262 OA
BRANCH   5   6
HETATM    6  C1  UNL     1      22.093 -15.066   7.767  1.00  0.00     0.223 C 
BRANCH   6   7
HETATM    7  C2  UNL     1      21.312 -16.337   7.545  1.00  0.00     0.156 C 
BRANCH   7   8
HETATM    8  N6  UNL     1      22.096 -17.518   7.814  1.00  0.00    -0.364 N 
HETATM    9  C3  UNL     1      22.777 -17.729   8.935  1.00  0.00     0.090 A 
HETATM   10  C4  UNL     1      23.506 -18.888   9.120  1.00  0.00     0.017 A 
HETATM   11  C5  UNL     1      23.540 -19.854   8.136  1.00  0.00     0.003 A 
HETATM   12  C6  UNL     1      22.841 -19.641   6.981  1.00  0.00     0.017 A 
HETATM   13  C7  UNL     1      22.135 -18.466   6.860  1.00  0.00     0.090 A 
ENDBRANCH   7   8
ENDBRANCH   6   7
ENDBRANCH   5   6
ENDBRANCH   3   5
BRANCH   1  14
HETATM   14  N3  UNL     1      25.816 -12.572   6.784  1.00  0.00    -0.213 N 
HETATM   15  N2  UNL     1      26.831 -12.289   7.449  1.00  0.00    -0.234 N 
ATOM     16  H2  UNL     1      27.193 -11.337   7.392  1.00  0.00     0.209 HD
ATOM     17  H3  UNL     1      25.401 -11.830   6.218  1.00  0.00     0.211 HD
BRANCH  15  18
HETATM   18  N1  UNL     1      27.495 -13.186   8.258  1.00  0.00    -0.330 N 
ATOM     19  H12 UNL     1      27.102 -13.354   9.184  1.00  0.00     0.178 HD
ATOM     20  H11 UNL     1      28.343 -13.682   7.982  1.00  0.00     0.178 HD
ENDBRANCH  15  18
ENDBRANCH   1  14
TORSDOF 6
ENDMDL
MODEL 5
REMARK VINA RESULT: -6.652620702      1.796      2.248
REMARK  6 active torsions:
REMARK  status: ('A' for Active; 'I' for Inactive)
REMARK    1  A    between atoms: N1_1  and  N2_4 
REMARK    2  A    between atoms: N3_6  and  N4_8 
REMARK    3  A    between atoms: N5_10  and  O1_12 
REMARK    4  A    between atoms: O1_12  and  C1_13 
REMARK    5  A    between atoms: C1_13  and  C2_14 
REMARK    6  A    between atoms: C2_14  and  N6_15 
ROOT
HETATM    1  N4  UNL     1      25.333 -14.052   6.702  1.00  0.00    -0.207 N 
ATOM      2  H4  UNL     1      26.028 -14.794   6.626  1.00  0.00     0.212 HD
HETATM    3  N5  UNL     1      24.074 -14.295   6.735  1.00  0.00    -0.192 N 
ATOM      4  H5  UNL     1      23.427 -13.509   6.811  1.00  0.00     0.217 HD
ENDROOT
BRANCH   3   5
HETATM    5  O1  UNL     1      23.560 -15.558   6.673  1.00  0.00    -0.262 OA
BRANCH   5   6
HETATM    6  C1  UNL     1      22.158 -15.712   6.603  1.00  0.00     0.223 C 
BRANCH   6   7
HETATM    7  C2  UNL     1      21.488 -15.195   7.851  1.00  0.00     0.156 C 
BRANCH   7   8
HETATM    8  N6  UNL     1      21.371 -16.207   8.873  1.00  0.00    -0.364 N 
HETATM    9  C3  UNL     1      21.826 -16.077  10.115  1.00  0.00     0.090 A 
HETATM   10  C4  UNL     1      21.677 -17.093  11.039  1.00  0.00     0.017 A 
HETATM   11  C5  UNL     1      21.048 -18.268  10.687  1.00  0.00     0.003 A 
HETATM   12  C6  UNL     1      20.578 -18.407   9.411  1.00  0.00     0.017 A 
HETATM   13  C7  UNL     1      20.759 -17.357   8.539  1.00  0.00     0.090 A 
ENDBRANCH   7   8
ENDBRANCH   6   7
ENDBRANCH   5   6
ENDBRANCH   3   5
BRANCH   1  14
HETATM   14  N3  UNL     1      25.691 -12.702   6.778  1.00  0.00    -0.213 N 
HETATM   15  N2  UNL     1      26.645 -12.250   7.441  1.00  0.00    -0.234 N 
ATOM     16  H2  UNL     1      26.812 -11.244   7.418  1.00  0.00     0.209 HD
ATOM     17  H3  UNL     1      25.127 -12.035   6.249  1.00  0.00     0.211 HD
BRANCH  15  18
HETATM   18  N1  UNL     1      27.490 -13.030   8.203  1.00  0.00    -0.330 N 
ATOM     19  H12 UNL     1      27.840 -12.622   9.069  1.00  0.00     0.178 HD
ATOM     20  H11 UNL     1      27.775 -13.975   7.949  1.00  0.00     0.178 HD
ENDBRANCH  15  18
ENDBRANCH   1  14
TORSDOF 6
ENDMDL
