MODEL 1
REMARK VINA RESULT: -4.992905948      0.000      0.000
REMARK  6 active torsions:
REMARK  status: ('A' for Active; 'I' for Inactive)
REMARK    1  A    between atoms: C2_2  and  C3_3 
REMARK    2  A    between atoms: C3_3  and  N1_4 
REMARK    3  A    between atoms: N1_4  and  N2_5 
REMARK    4  A    between atoms: N1_4  and  C4_8 
REMARK    5  A    between atoms: C4_8  and  C5_9 
REMARK    6  A    between atoms: C5_9  and  N3_10 
ROOT
HETATM    1  C4  UNL     1      24.173 -16.038   7.880  1.00  0.00     0.108 C 
ENDROOT
BRANCH   1   2
HETATM    2  N1  UNL     1      24.048 -15.055   6.898  1.00  0.00    -0.287 N 
BRANCH   2   3
HETATM    3  C3  UNL     1      24.602 -13.780   7.089  1.00  0.00     0.114 C 
BRANCH   3   4
HETATM    4  C2  UNL     1      26.056 -13.675   7.042  1.00  0.00     0.009 C 
HETATM    5  C1  UNL     1      26.838 -12.921   7.767  1.00  0.00     0.013 C 
ENDBRANCH   3   4
ENDBRANCH   2   3
BRANCH   2   6
HETATM    6  N2  UNL     1      23.294 -15.280   5.791  1.00  0.00    -0.340 N 
ATOM      7  H22 UNL     1      23.729 -15.320   4.869  1.00  0.00     0.177 HD
ATOM      8  H21 UNL     1      22.303 -15.490   5.908  1.00  0.00     0.177 HD
ENDBRANCH   2   6
ENDBRANCH   1   2
BRANCH   1   9
HETATM    9  C5  UNL     1      23.034 -16.119   8.867  1.00  0.00     0.174 C 
BRANCH   9  10
HETATM   10  N3  UNL     1      22.139 -17.158   8.403  1.00  0.00    -0.359 N 
HETATM   11  C6  UNL     1      22.638 -18.309   7.965  1.00  0.00     0.107 A 
HETATM   12  C7  UNL     1      21.848 -19.354   7.502  1.00  0.00     0.104 A 
HETATM   13  N4  UNL     1      20.523 -19.147   7.514  1.00  0.00    -0.373 N 
HETATM   14  C8  UNL     1      19.953 -17.997   7.948  1.00  0.00     0.104 A 
ATOM     15  H4  UNL     1      19.913 -19.893   7.181  1.00  0.00     0.164 HD
HETATM   16  C9  UNL     1      20.805 -17.004   8.394  1.00  0.00     0.107 A 
ENDBRANCH   9  10
ENDBRANCH   1   9
TORSDOF 6
ENDMDL
MODEL 2
REMARK VINA RESULT: -4.992444961      0.037      1.294
REMARK  6 active torsions:
REMARK  status: ('A' for Active; 'I' for Inactive)
REMARK    1  A    between atoms: C2_2  and  C3_3 
REMARK    2  A    between atoms: C3_3  and  N1_4 
REMARK    3  A    between atoms: N1_4  and  N2_5 
REMARK    4  A    between atoms: N1_4  and  C4_8 
REMARK    5  A    between atoms: C4_8  and  C5_9 
REMARK    6  A    between atoms: C5_9  and  N3_10 
ROOT
HETATM    1  C4  UNL     1      24.170 -16.042   7.887  1.00  0.00     0.108 C 
ENDROOT
BRANCH   1   2
HETATM    2  N1  UNL     1      24.047 -15.064   6.900  1.00  0.00    -0.287 N 
BRANCH   2   3
HETATM    3  C3  UNL     1      24.601 -13.788   7.085  1.00  0.00     0.114 C 
BRANCH   3   4
HETATM    4  C2  UNL     1      26.055 -13.684   7.040  1.00  0.00     0.009 C 
HETATM    5  C1  UNL     1      26.837 -12.926   7.762  1.00  0.00     0.013 C 
ENDBRANCH   3   4
ENDBRANCH   2   3
BRANCH   2   6
HETATM    6  N2  UNL     1      23.293 -15.294   5.793  1.00  0.00    -0.340 N 
ATOM      7  H22 UNL     1      23.611 -15.949   5.080  1.00  0.00     0.177 HD
ATOM      8  H21 UNL     1      22.370 -14.865   5.732  1.00  0.00     0.177 HD
ENDBRANCH   2   6
ENDBRANCH   1   2
BRANCH   1   9
HETATM    9  C5  UNL     1      23.019 -16.134   8.858  1.00  0.00     0.174 C 
BRANCH   9  10
HETATM   10  N3  UNL     1      22.151 -17.195   8.394  1.00  0.00    -0.359 N 
HETATM   11  C6  UNL     1      20.835 -17.012   8.384  1.00  0.00     0.107 A 
HETATM   12  C7  UNL     1      19.935 -17.981   7.957  1.00  0.00     0.104 A 
HETATM   13  N4  UNL     1      20.464 -19.141   7.544  1.00  0.00    -0.373 N 
HETATM   14  C8  UNL     1      21.796 -19.389   7.530  1.00  0.00     0.104 A 
ATOM     15  H4  UNL     1      19.832 -19.875   7.223  1.00  0.00     0.164 HD
HETATM   16  C9  UNL     1      22.627 -18.376   7.970  1.00  0.00     0.107 A 
ENDBRANCH   9  10
ENDBRANCH   1   9
TORSDOF 6
ENDMDL
MODEL 3
REMARK VINA RESULT: -4.963344224      1.263      1.494
REMARK  6 active torsions:
REMARK  status: ('A' for Active; 'I' for Inactive)
REMARK    1  A    between atoms: C2_2  and  C3_3 
REMARK    2  A    between atoms: C3_3  and  N1_4 
REMARK    3  A    between atoms: N1_4  and  N2_5 
REMARK    4  A    between atoms: N1_4  and  C4_8 
REMARK    5  A    between atoms: C4_8  and  C5_9 
REMARK    6  A    between atoms: C5_9  and  N3_10 
ROOT
HETATM    1  C4  UNL     1      23.653 -16.581   7.890  1.00  0.00     0.108 C 
ENDROOT
BRANCH   1   2
HETATM    2  N1  UNL     1      24.182 -15.460   7.249  1.00  0.00    -0.287 N 
BRANCH   2   3
HETATM    3  C3  UNL     1      25.175 -14.685   7.866  1.00  0.00     0.114 C 
BRANCH   3   4
HETATM    4  C2  UNL     1      25.959 -13.806   7.007  1.00  0.00     0.009 C 
HETATM    5  C1  UNL     1      26.150 -12.519   7.122  1.00  0.00     0.013 C 
ENDBRANCH   3   4
ENDBRANCH   2   3
BRANCH   2   6
HETATM    6  N2  UNL     1      23.665 -15.037   6.065  1.00  0.00    -0.340 N 
ATOM      7  H22 UNL     1      24.101 -14.267   5.558  1.00  0.00     0.177 HD
ATOM      8  H21 UNL     1      22.888 -15.555   5.657  1.00  0.00     0.177 HD
ENDBRANCH   2   6
ENDBRANCH   1   2
BRANCH   1   9
HETATM    9  C5  UNL     1      22.600 -16.296   8.933  1.00  0.00     0.174 C 
BRANCH   9  10
HETATM   10  N3  UNL     1      21.319 -16.637   8.351  1.00  0.00    -0.359 N 
HETATM   11  C6  UNL     1      20.767 -17.815   8.620  1.00  0.00     0.107 A 
HETATM   12  C7  UNL     1      19.543 -18.219   8.100  1.00  0.00     0.104 A 
HETATM   13  N4  UNL     1      18.925 -17.345   7.292  1.00  0.00    -0.373 N 
HETATM   14  C8  UNL     1      19.435 -16.130   6.980  1.00  0.00     0.104 A 
ATOM     15  H4  UNL     1      18.024 -17.609   6.893  1.00  0.00     0.164 HD
HETATM   16  C9  UNL     1      20.656 -15.800   7.536  1.00  0.00     0.107 A 
ENDBRANCH   9  10
ENDBRANCH   1   9
TORSDOF 6
ENDMDL
MODEL 4
REMARK VINA RESULT: -4.891545947      1.783      2.195
REMARK  6 active torsions:
REMARK  status: ('A' for Active; 'I' for Inactive)
REMARK    1  A    between atoms: C2_2  and  C3_3 
REMARK    2  A    between atoms: C3_3  and  N1_4 
REMARK    3  A    between atoms: N1_4  and  N2_5 
REMARK    4  A    between atoms: N1_4  and  C4_8 
REMARK    5  A    between atoms: C4_8  and  C5_9 
REMARK    6  A    between atoms: C5_9  and  N3_10 
ROOT
HETATM    1  C4  UNL     1      22.311 -15.485   8.207  1.00  0.00     0.108 C 
ENDROOT
BRANCH   1   2
HETATM    2  N1  UNL     1      23.662 -15.308   7.907  1.00  0.00    -0.287 N 
BRANCH   2   3
HETATM    3  C3  UNL     1      24.085 -14.225   7.123  1.00  0.00     0.114 C 
BRANCH   3   4
HETATM    4  C2  UNL     1      25.509 -13.914   7.133  1.00  0.00     0.009 C 
HETATM    5  C1  UNL     1      26.084 -12.741   7.124  1.00  0.00     0.013 C 
ENDBRANCH   3   4
ENDBRANCH   2   3
BRANCH   2   6
HETATM    6  N2  UNL     1      24.577 -16.243   8.276  1.00  0.00    -0.340 N 
ATOM      7  H22 UNL     1      25.502 -15.960   8.600  1.00  0.00     0.177 HD
ATOM      8  H21 UNL     1      24.293 -17.222   8.302  1.00  0.00     0.177 HD
ENDBRANCH   2   6
ENDBRANCH   1   2
BRANCH   1   9
HETATM    9  C5  UNL     1      21.433 -15.874   7.043  1.00  0.00     0.174 C 
BRANCH   9  10
HETATM   10  N3  UNL     1      21.879 -17.173   6.586  1.00  0.00    -0.359 N 
HETATM   11  C6  UNL     1      22.300 -17.322   5.335  1.00  0.00     0.107 A 
HETATM   12  C7  UNL     1      22.740 -18.535   4.820  1.00  0.00     0.104 A 
HETATM   13  N4  UNL     1      22.722 -19.579   5.661  1.00  0.00    -0.373 N 
HETATM   14  C8  UNL     1      22.305 -19.492   6.947  1.00  0.00     0.104 A 
ATOM     15  H4  UNL     1      23.039 -20.485   5.315  1.00  0.00     0.164 HD
HETATM   16  C9  UNL     1      21.882 -18.252   7.386  1.00  0.00     0.107 A 
ENDBRANCH   9  10
ENDBRANCH   1   9
TORSDOF 6
ENDMDL
MODEL 5
REMARK VINA RESULT: -4.858773248      1.250      1.428
REMARK  6 active torsions:
REMARK  status: ('A' for Active; 'I' for Inactive)
REMARK    1  A    between atoms: C2_2  and  C3_3 
REMARK    2  A    between atoms: C3_3  and  N1_4 
REMARK    3  A    between atoms: N1_4  and  N2_5 
REMARK    4  A    between atoms: N1_4  and  C4_8 
REMARK    5  A    between atoms: C4_8  and  C5_9 
REMARK    6  A    between atoms: C5_9  and  N3_10 
ROOT
HETATM    1  C4  UNL     1      23.145 -15.891   6.256  1.00  0.00     0.108 C 
ENDROOT
BRANCH   1   2
HETATM    2  N1  UNL     1      24.011 -15.281   7.164  1.00  0.00    -0.287 N 
BRANCH   2   3
HETATM    3  C3  UNL     1      24.369 -13.933   7.016  1.00  0.00     0.114 C 
BRANCH   3   4
HETATM    4  C2  UNL     1      25.782 -13.602   7.158  1.00  0.00     0.009 C 
HETATM    5  C1  UNL     1      26.338 -12.421   7.206  1.00  0.00     0.013 C 
ENDBRANCH   3   4
ENDBRANCH   2   3
BRANCH   2   6
HETATM    6  N2  UNL     1      24.610 -16.012   8.140  1.00  0.00    -0.340 N 
ATOM      7  H22 UNL     1      24.901 -16.973   7.961  1.00  0.00     0.177 HD
ATOM      8  H21 UNL     1      24.837 -15.556   9.024  1.00  0.00     0.177 HD
ENDBRANCH   2   6
ENDBRANCH   1   2
BRANCH   1   9
HETATM    9  C5  UNL     1      21.701 -15.968   6.687  1.00  0.00     0.174 C 
BRANCH   9  10
HETATM   10  N3  UNL     1      21.442 -17.340   7.071  1.00  0.00    -0.359 N 
HETATM   11  C6  UNL     1      22.312 -18.290   6.745  1.00  0.00     0.107 A 
HETATM   12  C7  UNL     1      22.135 -19.628   7.073  1.00  0.00     0.104 A 
HETATM   13  N4  UNL     1      21.019 -19.931   7.752  1.00  0.00    -0.373 N 
HETATM   14  C8  UNL     1      20.095 -19.009   8.113  1.00  0.00     0.104 A 
ATOM     15  H4  UNL     1      20.858 -20.904   8.009  1.00  0.00     0.164 HD
HETATM   16  C9  UNL     1      20.341 -17.698   7.751  1.00  0.00     0.107 A 
ENDBRANCH   9  10
ENDBRANCH   1   9
TORSDOF 6
ENDMDL
