MODEL 1
REMARK VINA RESULT: -9.238552741      0.000      0.000
REMARK  7 active torsions:
REMARK  status: ('A' for Active; 'I' for Inactive)
REMARK    1  A    between atoms: O1_2  and  C2_3 
REMARK    2  A    between atoms: C2_3  and  C3_5 
REMARK    3  A    between atoms: C3_5  and  C4_6 
REMARK    4  A    between atoms: C4_6  and  N1_7 
REMARK    5  A    between atoms: C4_6  and  C7_12 
REMARK       I    between atoms: N1_7  and  C5_9 
REMARK       I    between atoms: C7_12  and  N2_14 
REMARK    6  A    between atoms: N2_14  and  C8_16 
REMARK    7  A    between atoms: C17_25  and  O5_26 
ROOT
HETATM    1  C8  UNL     1       1.275   2.276  -0.854  1.00  0.00     0.093 C 
HETATM    2  C9  UNL     1       2.447   3.237  -0.704  1.00  0.00     0.026 C 
HETATM    3  C10 UNL     1       3.218   2.791   0.549  1.00  0.00     0.008 C 
HETATM    4  C11 UNL     1       2.243   1.874   1.147  1.00  0.00     0.000 C 
HETATM    5  C12 UNL     1       2.541   1.167   2.402  1.00  0.00    -0.005 C 
HETATM    6  C13 UNL     1       3.695   0.255   2.456  1.00  0.00     0.006 C 
HETATM    7  C14 UNL     1       3.449  -1.195   2.593  1.00  0.00     0.006 C 
HETATM    8  C15 UNL     1       2.171  -1.612   3.212  1.00  0.00    -0.004 C 
HETATM    9  C16 UNL     1       2.357  -2.768   4.185  1.00  0.00     0.037 C 
HETATM   10  C17 UNL     1       2.810  -2.362   5.532  1.00  0.00     0.118 C 
HETATM   11  C18 UNL     1       3.097  -0.924   5.731  1.00  0.00     0.032 C 
HETATM   12  C19 UNL     1       2.102   0.013   5.125  1.00  0.00     0.012 C 
HETATM   13  C20 UNL     1       1.432  -0.518   3.903  1.00  0.00    -0.036 C 
HETATM   14  C21 UNL     1       0.061  -1.023   4.298  1.00  0.00     0.016 C 
HETATM   15  C22 UNL     1       1.217   0.597   2.872  1.00  0.00    -0.002 C 
HETATM   16  C23 UNL     1       0.265   0.220   1.801  1.00  0.00     0.006 C 
HETATM   17  C24 UNL     1       0.752   0.143   0.417  1.00  0.00     0.012 C 
HETATM   18  C25 UNL     1       1.781   1.080  -0.027  1.00  0.00    -0.019 C 
HETATM   19  C26 UNL     1       2.812   0.429  -0.872  1.00  0.00     0.018 C 
ENDROOT
BRANCH   1  20
HETATM   20  N2  UNL     1       1.113   1.991  -2.242  1.00  0.00    -0.354 N 
HETATM   21  C7  UNL     1       0.074   2.539  -3.046  1.00  0.00     0.241 C 
HETATM   22  O4  UNL     1      -0.738   3.316  -2.483  1.00  0.00    -0.271 OA
ATOM     23  H2  UNL     1       1.780   1.359  -2.685  1.00  0.00     0.162 HD
BRANCH  21  24
HETATM   24  C4  UNL     1      -0.083   2.237  -4.481  1.00  0.00     0.185 C 
BRANCH  24  25
HETATM   25  C3  UNL     1      -0.564   0.860  -4.761  1.00  0.00     0.146 C 
BRANCH  25  26
HETATM   26  C2  UNL     1      -1.941   0.555  -4.357  1.00  0.00     0.260 C 
HETATM   27  O2  UNL     1      -2.900   0.953  -5.054  1.00  0.00    -0.265 OA
BRANCH  26  28
HETATM   28  O1  UNL     1      -2.219  -0.162  -3.220  1.00  0.00    -0.326 OA
HETATM   29  C1  UNL     1      -3.434  -0.901  -3.058  1.00  0.00     0.213 C 
ENDBRANCH  26  28
ENDBRANCH  25  26
ENDBRANCH  24  25
BRANCH  24  30
HETATM   30  N1  UNL     1      -0.889   3.203  -5.148  1.00  0.00    -0.348 N 
HETATM   31  C5  UNL     1      -0.836   3.389  -6.577  1.00  0.00     0.214 C 
HETATM   32  C6  UNL     1      -1.661   4.382  -7.277  1.00  0.00     0.117 C 
HETATM   33  O3  UNL     1      -0.035   2.648  -7.195  1.00  0.00    -0.274 OA
ATOM     34  H1  UNL     1      -1.525   3.781  -4.598  1.00  0.00     0.163 HD
ENDBRANCH  24  30
ENDBRANCH  21  24
ENDBRANCH   1  20
BRANCH  10  35
HETATM   35  O5  UNL     1       3.994  -3.076   5.832  1.00  0.00    -0.396 OA
ATOM     36  H5  UNL     1       3.924  -3.404   6.721  1.00  0.00     0.210 HD
ENDBRANCH  10  35
TORSDOF 7
ENDMDL
MODEL 2
REMARK VINA RESULT: -9.212163145      2.537      9.305
REMARK  7 active torsions:
REMARK  status: ('A' for Active; 'I' for Inactive)
REMARK    1  A    between atoms: O1_2  and  C2_3 
REMARK    2  A    between atoms: C2_3  and  C3_5 
REMARK    3  A    between atoms: C3_5  and  C4_6 
REMARK    4  A    between atoms: C4_6  and  N1_7 
REMARK    5  A    between atoms: C4_6  and  C7_12 
REMARK       I    between atoms: N1_7  and  C5_9 
REMARK       I    between atoms: C7_12  and  N2_14 
REMARK    6  A    between atoms: N2_14  and  C8_16 
REMARK    7  A    between atoms: C17_25  and  O5_26 
ROOT
HETATM    1  C8  UNL     1       2.696   1.743   0.398  1.00  0.00     0.093 C 
HETATM    2  C9  UNL     1       3.304   3.139   0.371  1.00  0.00     0.026 C 
HETATM    3  C10 UNL     1       2.606   3.895  -0.772  1.00  0.00     0.008 C 
HETATM    4  C11 UNL     1       1.952   2.781  -1.466  1.00  0.00     0.000 C 
HETATM    5  C12 UNL     1       1.130   3.014  -2.662  1.00  0.00    -0.005 C 
HETATM    6  C13 UNL     1      -0.058   3.878  -2.561  1.00  0.00     0.006 C 
HETATM    7  C14 UNL     1      -1.395   3.268  -2.699  1.00  0.00     0.006 C 
HETATM    8  C15 UNL     1      -1.489   2.002  -3.458  1.00  0.00    -0.004 C 
HETATM    9  C16 UNL     1      -2.701   1.975  -4.380  1.00  0.00     0.037 C 
HETATM   10  C17 UNL     1      -2.497   2.665  -5.671  1.00  0.00     0.118 C 
HETATM   11  C18 UNL     1      -1.199   3.349  -5.862  1.00  0.00     0.032 C 
HETATM   12  C19 UNL     1      -0.003   2.583  -5.396  1.00  0.00     0.012 C 
HETATM   13  C20 UNL     1      -0.274   1.665  -4.253  1.00  0.00    -0.036 C 
HETATM   14  C21 UNL     1      -0.417   0.260  -4.799  1.00  0.00     0.016 C 
HETATM   15  C22 UNL     1       0.908   1.645  -3.276  1.00  0.00    -0.002 C 
HETATM   16  C23 UNL     1       0.851   0.515  -2.320  1.00  0.00     0.006 C 
HETATM   17  C24 UNL     1       0.718   0.808  -0.886  1.00  0.00     0.012 C 
HETATM   18  C25 UNL     1       1.369   1.995  -0.340  1.00  0.00    -0.019 C 
HETATM   19  C26 UNL     1       0.512   2.715   0.634  1.00  0.00     0.018 C 
ENDROOT
BRANCH   1  20
HETATM   20  N2  UNL     1       2.535   1.359   1.762  1.00  0.00    -0.354 N 
HETATM   21  C7  UNL     1       3.421   0.481   2.447  1.00  0.00     0.241 C 
HETATM   22  O4  UNL     1       4.397   0.029   1.796  1.00  0.00    -0.271 OA
ATOM     23  H2  UNL     1       1.738   1.734   2.276  1.00  0.00     0.162 HD
BRANCH  21  24
HETATM   24  C4  UNL     1       3.245   0.091   3.858  1.00  0.00     0.185 C 
BRANCH  24  25
HETATM   25  C3  UNL     1       3.472   1.195   4.824  1.00  0.00     0.146 C 
BRANCH  25  26
HETATM   26  C2  UNL     1       3.828   0.801   6.192  1.00  0.00     0.260 C 
HETATM   27  O2  UNL     1       4.720   1.423   6.809  1.00  0.00    -0.265 OA
BRANCH  26  28
HETATM   28  O1  UNL     1       3.207  -0.244   6.828  1.00  0.00    -0.326 OA
HETATM   29  C1  UNL     1       3.914  -1.416   7.247  1.00  0.00     0.213 C 
ENDBRANCH  26  28
ENDBRANCH  25  26
ENDBRANCH  24  25
BRANCH  24  30
HETATM   30  N1  UNL     1       1.988  -0.537   4.088  1.00  0.00    -0.348 N 
HETATM   31  C5  UNL     1       1.839  -1.972   4.099  1.00  0.00     0.214 C 
HETATM   32  C6  UNL     1       0.549  -2.632   4.335  1.00  0.00     0.117 C 
HETATM   33  O3  UNL     1       2.886  -2.631   3.893  1.00  0.00    -0.274 OA
ATOM     34  H1  UNL     1       1.167   0.046   4.250  1.00  0.00     0.163 HD
ENDBRANCH  24  30
ENDBRANCH  21  24
ENDBRANCH   1  20
BRANCH  10  35
HETATM   35  O5  UNL     1      -3.513   3.639  -5.814  1.00  0.00    -0.396 OA
ATOM     36  H5  UNL     1      -3.111   4.498  -5.742  1.00  0.00     0.210 HD
ENDBRANCH  10  35
TORSDOF 7
ENDMDL
MODEL 3
REMARK VINA RESULT: -9.200159652      2.555      9.101
REMARK  7 active torsions:
REMARK  status: ('A' for Active; 'I' for Inactive)
REMARK    1  A    between atoms: O1_2  and  C2_3 
REMARK    2  A    between atoms: C2_3  and  C3_5 
REMARK    3  A    between atoms: C3_5  and  C4_6 
REMARK    4  A    between atoms: C4_6  and  N1_7 
REMARK    5  A    between atoms: C4_6  and  C7_12 
REMARK       I    between atoms: N1_7  and  C5_9 
REMARK       I    between atoms: C7_12  and  N2_14 
REMARK    6  A    between atoms: N2_14  and  C8_16 
REMARK    7  A    between atoms: C17_25  and  O5_26 
ROOT
HETATM    1  C8  UNL     1       2.320   1.394   0.802  1.00  0.00     0.093 C 
HETATM    2  C9  UNL     1       3.263   2.578   0.630  1.00  0.00     0.026 C 
HETATM    3  C10 UNL     1       2.796   3.328  -0.628  1.00  0.00     0.008 C 
HETATM    4  C11 UNL     1       1.888   2.333  -1.207  1.00  0.00     0.000 C 
HETATM    5  C12 UNL     1       1.167   2.607  -2.459  1.00  0.00    -0.005 C 
HETATM    6  C13 UNL     1       0.237   3.747  -2.519  1.00  0.00     0.006 C 
HETATM    7  C14 UNL     1      -1.210   3.479  -2.641  1.00  0.00     0.006 C 
HETATM    8  C15 UNL     1      -1.614   2.189  -3.241  1.00  0.00    -0.004 C 
HETATM    9  C16 UNL     1      -2.781   2.347  -4.206  1.00  0.00     0.037 C 
HETATM   10  C17 UNL     1      -2.393   2.789  -5.562  1.00  0.00     0.118 C 
HETATM   11  C18 UNL     1      -0.961   3.094  -5.777  1.00  0.00     0.032 C 
HETATM   12  C19 UNL     1      -0.005   2.120  -5.167  1.00  0.00     0.012 C 
HETATM   13  C20 UNL     1      -0.516   1.457  -3.932  1.00  0.00    -0.036 C 
HETATM   14  C21 UNL     1      -1.005   0.074  -4.307  1.00  0.00     0.016 C 
HETATM   15  C22 UNL     1       0.611   1.270  -2.909  1.00  0.00    -0.002 C 
HETATM   16  C23 UNL     1       0.256   0.325  -1.824  1.00  0.00     0.006 C 
HETATM   17  C24 UNL     1       0.185   0.827  -0.445  1.00  0.00     0.012 C 
HETATM   18  C25 UNL     1       1.110   1.873  -0.021  1.00  0.00    -0.019 C 
HETATM   19  C26 UNL     1       0.453   2.906   0.817  1.00  0.00     0.018 C 
ENDROOT
BRANCH   1  20
HETATM   20  N2  UNL     1       2.050   1.245   2.194  1.00  0.00    -0.354 N 
HETATM   21  C7  UNL     1       2.511   0.149   2.976  1.00  0.00     0.241 C 
HETATM   22  O4  UNL     1       3.195  -0.727   2.389  1.00  0.00    -0.271 OA
ATOM     23  H2  UNL     1       1.493   1.965   2.656  1.00  0.00     0.162 HD
BRANCH  21  24
HETATM   24  C4  UNL     1       2.225   0.005   4.416  1.00  0.00     0.185 C 
BRANCH  24  25
HETATM   25  C3  UNL     1       0.858  -0.492   4.715  1.00  0.00     0.146 C 
BRANCH  25  26
HETATM   26  C2  UNL     1       0.579  -1.887   4.356  1.00  0.00     0.260 C 
HETATM   27  O2  UNL     1       0.953  -2.813   5.109  1.00  0.00    -0.265 OA
BRANCH  26  28
HETATM   28  O1  UNL     1      -0.089  -2.217   3.203  1.00  0.00    -0.326 OA
HETATM   29  C1  UNL     1      -0.850  -3.423   3.077  1.00  0.00     0.213 C 
ENDBRANCH  26  28
ENDBRANCH  25  26
ENDBRANCH  24  25
BRANCH  24  30
HETATM   30  N1  UNL     1       3.209  -0.778   5.083  1.00  0.00    -0.348 N 
HETATM   31  C5  UNL     1       3.376  -0.739   6.516  1.00  0.00     0.214 C 
HETATM   32  C6  UNL     1       4.387  -1.541   7.216  1.00  0.00     0.117 C 
HETATM   33  O3  UNL     1       2.602   0.029   7.135  1.00  0.00    -0.274 OA
ATOM     34  H1  UNL     1       3.814  -1.386   4.532  1.00  0.00     0.163 HD
ENDBRANCH  24  30
ENDBRANCH  21  24
ENDBRANCH   1  20
BRANCH  10  35
HETATM   35  O5  UNL     1      -3.125   3.960  -5.869  1.00  0.00    -0.396 OA
ATOM     36  H5  UNL     1      -3.548   3.831  -6.711  1.00  0.00     0.210 HD
ENDBRANCH  10  35
TORSDOF 7
ENDMDL
MODEL 4
REMARK VINA RESULT: -9.189609440      1.100      2.550
REMARK  7 active torsions:
REMARK  status: ('A' for Active; 'I' for Inactive)
REMARK    1  A    between atoms: O1_2  and  C2_3 
REMARK    2  A    between atoms: C2_3  and  C3_5 
REMARK    3  A    between atoms: C3_5  and  C4_6 
REMARK    4  A    between atoms: C4_6  and  N1_7 
REMARK    5  A    between atoms: C4_6  and  C7_12 
REMARK       I    between atoms: N1_7  and  C5_9 
REMARK       I    between atoms: C7_12  and  N2_14 
REMARK    6  A    between atoms: N2_14  and  C8_16 
REMARK    7  A    between atoms: C17_25  and  O5_26 
ROOT
HETATM    1  C8  UNL     1       1.877   2.730  -0.350  1.00  0.00     0.093 C 
HETATM    2  C9  UNL     1       3.277   3.326  -0.287  1.00  0.00     0.026 C 
HETATM    3  C10 UNL     1       4.004   2.608   0.862  1.00  0.00     0.008 C 
HETATM    4  C11 UNL     1       2.872   1.954   1.524  1.00  0.00     0.000 C 
HETATM    5  C12 UNL     1       3.074   1.114   2.714  1.00  0.00    -0.005 C 
HETATM    6  C13 UNL     1       3.930  -0.079   2.614  1.00  0.00     0.006 C 
HETATM    7  C14 UNL     1       3.307  -1.414   2.722  1.00  0.00     0.006 C 
HETATM    8  C15 UNL     1       2.025  -1.507   3.455  1.00  0.00    -0.004 C 
HETATM    9  C16 UNL     1       1.970  -2.731   4.360  1.00  0.00     0.037 C 
HETATM   10  C17 UNL     1       2.636  -2.550   5.666  1.00  0.00     0.118 C 
HETATM   11  C18 UNL     1       3.326  -1.260   5.888  1.00  0.00     0.032 C 
HETATM   12  C19 UNL     1       2.579  -0.051   5.423  1.00  0.00     0.012 C 
HETATM   13  C20 UNL     1       1.682  -0.300   4.258  1.00  0.00    -0.036 C 
HETATM   14  C21 UNL     1       0.265  -0.439   4.774  1.00  0.00     0.016 C 
HETATM   15  C22 UNL     1       1.691   0.895   3.297  1.00  0.00    -0.002 C 
HETATM   16  C23 UNL     1       0.580   0.859   2.318  1.00  0.00     0.006 C 
HETATM   17  C24 UNL     1       0.901   0.743   0.889  1.00  0.00     0.012 C 
HETATM   18  C25 UNL     1       2.104   1.392   0.375  1.00  0.00    -0.019 C 
HETATM   19  C26 UNL     1       2.836   0.541  -0.595  1.00  0.00     0.018 C 
ENDROOT
BRANCH   1  20
HETATM   20  N2  UNL     1       1.519   2.590  -1.723  1.00  0.00    -0.354 N 
HETATM   21  C7  UNL     1       0.570   3.421  -2.383  1.00  0.00     0.241 C 
HETATM   22  O4  UNL     1       0.027   4.325  -1.699  1.00  0.00    -0.271 OA
ATOM     23  H2  UNL     1       1.969   1.851  -2.264  1.00  0.00     0.162 HD
BRANCH  21  24
HETATM   24  C4  UNL     1       0.208   3.267  -3.804  1.00  0.00     0.185 C 
BRANCH  24  25
HETATM   25  C3  UNL     1       1.317   3.560  -4.746  1.00  0.00     0.146 C 
BRANCH  25  26
HETATM   26  C2  UNL     1       0.933   3.882  -6.126  1.00  0.00     0.260 C 
HETATM   27  O2  UNL     1       1.554   4.765  -6.758  1.00  0.00    -0.265 OA
BRANCH  26  28
HETATM   28  O1  UNL     1      -0.102   3.238  -6.756  1.00  0.00    -0.326 OA
HETATM   29  C1  UNL     1      -1.281   3.924  -7.188  1.00  0.00     0.213 C 
ENDBRANCH  26  28
ENDBRANCH  25  26
ENDBRANCH  24  25
BRANCH  24  30
HETATM   30  N1  UNL     1      -0.368   1.994  -4.076  1.00  0.00    -0.348 N 
HETATM   31  C5  UNL     1      -1.791   1.765  -4.000  1.00  0.00     0.214 C 
HETATM   32  C6  UNL     1      -2.397   0.457  -4.279  1.00  0.00     0.117 C 
HETATM   33  O3  UNL     1      -2.487   2.757  -3.679  1.00  0.00    -0.274 OA
ATOM     34  H1  UNL     1       0.244   1.219  -4.333  1.00  0.00     0.163 HD
ENDBRANCH  24  30
ENDBRANCH  21  24
ENDBRANCH   1  20
BRANCH  10  35
HETATM   35  O5  UNL     1       3.599  -3.575   5.815  1.00  0.00    -0.396 OA
ATOM     36  H5  UNL     1       3.181  -4.404   5.612  1.00  0.00     0.210 HD
ENDBRANCH  10  35
TORSDOF 7
ENDMDL
MODEL 5
REMARK VINA RESULT: -9.044805568      2.524      9.108
REMARK  7 active torsions:
REMARK  status: ('A' for Active; 'I' for Inactive)
REMARK    1  A    between atoms: O1_2  and  C2_3 
REMARK    2  A    between atoms: C2_3  and  C3_5 
REMARK    3  A    between atoms: C3_5  and  C4_6 
REMARK    4  A    between atoms: C4_6  and  N1_7 
REMARK    5  A    between atoms: C4_6  and  C7_12 
REMARK       I    between atoms: N1_7  and  C5_9 
REMARK       I    between atoms: C7_12  and  N2_14 
REMARK    6  A    between atoms: N2_14  and  C8_16 
REMARK    7  A    between atoms: C17_25  and  O5_26 
ROOT
HETATM    1  C8  UNL     1       2.270   1.347   0.726  1.00  0.00     0.093 C 
HETATM    2  C9  UNL     1       3.201   2.543   0.576  1.00  0.00     0.026 C 
HETATM    3  C10 UNL     1       2.724   3.312  -0.668  1.00  0.00     0.008 C 
HETATM    4  C11 UNL     1       1.826   2.318  -1.265  1.00  0.00     0.000 C 
HETATM    5  C12 UNL     1       1.100   2.607  -2.510  1.00  0.00    -0.005 C 
HETATM    6  C13 UNL     1       0.158   3.739  -2.548  1.00  0.00     0.006 C 
HETATM    7  C14 UNL     1      -1.286   3.458  -2.673  1.00  0.00     0.006 C 
HETATM    8  C15 UNL     1      -1.677   2.175  -3.297  1.00  0.00    -0.004 C 
HETATM    9  C16 UNL     1      -2.847   2.339  -4.257  1.00  0.00     0.037 C 
HETATM   10  C17 UNL     1      -2.466   2.810  -5.605  1.00  0.00     0.118 C 
HETATM   11  C18 UNL     1      -1.037   3.134  -5.816  1.00  0.00     0.032 C 
HETATM   12  C19 UNL     1      -0.070   2.159  -5.225  1.00  0.00     0.012 C 
HETATM   13  C20 UNL     1      -0.573   1.468  -4.003  1.00  0.00    -0.036 C 
HETATM   14  C21 UNL     1      -1.048   0.087  -4.402  1.00  0.00     0.016 C 
HETATM   15  C22 UNL     1       0.557   1.273  -2.984  1.00  0.00    -0.002 C 
HETATM   16  C23 UNL     1       0.213   0.305  -1.916  1.00  0.00     0.006 C 
HETATM   17  C24 UNL     1       0.139   0.780  -0.528  1.00  0.00     0.012 C 
HETATM   18  C25 UNL     1       1.054   1.829  -0.086  1.00  0.00    -0.019 C 
HETATM   19  C26 UNL     1       0.387   2.839   0.772  1.00  0.00     0.018 C 
ENDROOT
BRANCH   1  20
HETATM   20  N2  UNL     1       2.003   1.169   2.116  1.00  0.00    -0.354 N 
HETATM   21  C7  UNL     1       1.705  -0.089   2.710  1.00  0.00     0.241 C 
HETATM   22  O4  UNL     1       1.681  -1.091   1.950  1.00  0.00    -0.271 OA
ATOM     23  H2  UNL     1       2.026   1.992   2.719  1.00  0.00     0.162 HD
BRANCH  21  24
HETATM   24  C4  UNL     1       1.430  -0.261   4.148  1.00  0.00     0.185 C 
BRANCH  24  25
HETATM   25  C3  UNL     1       0.670  -1.495   4.476  1.00  0.00     0.146 C 
BRANCH  25  26
HETATM   26  C2  UNL     1       1.444  -2.605   5.043  1.00  0.00     0.260 C 
HETATM   27  O2  UNL     1       2.167  -3.306   4.302  1.00  0.00    -0.265 OA
BRANCH  26  28
HETATM   28  O1  UNL     1       1.401  -2.907   6.381  1.00  0.00    -0.326 OA
HETATM   29  C1  UNL     1       2.409  -3.696   7.022  1.00  0.00     0.213 C 
ENDBRANCH  26  28
ENDBRANCH  25  26
ENDBRANCH  24  25
BRANCH  24  30
HETATM   30  N1  UNL     1       2.612  -0.167   4.936  1.00  0.00    -0.348 N 
HETATM   31  C5  UNL     1       3.080   1.091   5.467  1.00  0.00     0.214 C 
HETATM   32  C6  UNL     1       4.297   1.202   6.280  1.00  0.00     0.117 C 
HETATM   33  O3  UNL     1       2.381   2.094   5.190  1.00  0.00    -0.274 OA
ATOM     34  H1  UNL     1       3.145  -1.014   5.132  1.00  0.00     0.163 HD
ENDBRANCH  24  30
ENDBRANCH  21  24
ENDBRANCH   1  20
BRANCH  10  35
HETATM   35  O5  UNL     1      -3.210   3.979  -5.890  1.00  0.00    -0.396 OA
ATOM     36  H5  UNL     1      -2.605   4.650  -6.184  1.00  0.00     0.210 HD
ENDBRANCH  10  35
TORSDOF 7
ENDMDL
