MODEL 1
REMARK VINA RESULT: -8.709952488      0.000      0.000
REMARK  7 active torsions:
REMARK  status: ('A' for Active; 'I' for Inactive)
REMARK    1  A    between atoms: C3_3  and  O1_4 
REMARK    2  A    between atoms: C5_7  and  C6_8 
REMARK    3  A    between atoms: C16_19  and  N1_20 
REMARK    4  A    between atoms: C17_24  and  C18_25 
REMARK    5  A    between atoms: C18_25  and  C20_27 
REMARK    6  A    between atoms: C20_27  and  C22_29 
REMARK    7  A    between atoms: C23_30  and  C24_31 
ROOT
HETATM    1  C1  UNL     1      -0.888  -2.876   3.099  1.00  0.00     0.017 C 
HETATM    2  C2  UNL     1       0.273  -2.339   2.772  1.00  0.00    -0.056 C 
HETATM    3  C3  UNL     1       1.562  -3.074   2.916  1.00  0.00     0.148 C 
HETATM    4  C4  UNL     1       2.626  -2.279   3.631  1.00  0.00     0.053 C 
HETATM    5  C5  UNL     1       2.142  -0.829   3.763  1.00  0.00     0.021 C 
HETATM    6  C7  UNL     1       3.230   0.135   4.053  1.00  0.00     0.018 C 
HETATM    7  C8  UNL     1       3.327   1.057   2.828  1.00  0.00     0.011 C 
HETATM    8  C9  UNL     1       1.900   1.028   2.233  1.00  0.00    -0.031 C 
HETATM    9  C10 UNL     1       1.079   1.851   3.198  1.00  0.00     0.016 C 
HETATM   10  C11 UNL     1       1.645  -0.421   2.405  1.00  0.00     0.018 C 
HETATM   11  C12 UNL     1       0.262  -0.933   2.238  1.00  0.00     0.022 C 
HETATM   12  C13 UNL     1      -0.143  -1.078   0.784  1.00  0.00     0.010 C 
HETATM   13  C14 UNL     1      -0.141   0.320   0.194  1.00  0.00     0.008 C 
HETATM   14  C15 UNL     1       1.268   0.672  -0.157  1.00  0.00     0.025 C 
HETATM   15  C16 UNL     1       1.257   1.248  -1.570  1.00  0.00     0.192 C 
HETATM   16  C17 UNL     1       0.495   2.524  -1.520  1.00  0.00     0.021 C 
HETATM   17  C25 UNL     1       1.218   3.475  -0.640  1.00  0.00     0.008 C 
HETATM   18  C26 UNL     1       1.300   2.944   0.794  1.00  0.00     0.011 C 
HETATM   19  C27 UNL     1       1.936   1.563   0.847  1.00  0.00    -0.031 C 
HETATM   20  C28 UNL     1       3.377   1.733   0.398  1.00  0.00     0.016 C 
ENDROOT
BRANCH  16  21
HETATM   21  C18 UNL     1      -0.096   3.083  -2.725  1.00  0.00    -0.005 C 
HETATM   22  C19 UNL     1      -0.896   4.368  -2.416  1.00  0.00     0.011 C 
BRANCH  21  23
HETATM   23  C20 UNL     1      -0.871   2.312  -3.690  1.00  0.00     0.008 C 
HETATM   24  C21 UNL     1      -0.431   2.370  -5.145  1.00  0.00     0.014 C 
BRANCH  23  25
HETATM   25  C22 UNL     1      -2.336   2.454  -3.683  1.00  0.00    -0.017 C 
HETATM   26  C23 UNL     1      -3.296   1.626  -3.548  1.00  0.00     0.067 C 
BRANCH  26  27
HETATM   27  C24 UNL     1      -3.246   0.213  -3.344  1.00  0.00     0.254 C 
HETATM   28  N2  UNL     1      -2.476  -0.414  -2.355  1.00  0.00    -0.058 NA
HETATM   29  O3  UNL     1      -3.958  -0.540  -4.123  1.00  0.00    -0.272 OA
ENDBRANCH  26  27
ENDBRANCH  23  25
ENDBRANCH  21  23
ENDBRANCH  16  21
BRANCH  15  30
HETATM   30  N1  UNL     1       0.647   0.217  -2.402  1.00  0.00    -0.074 N 
ATOM     31  H13 UNL     1       1.298  -0.511  -2.696  1.00  0.00     0.274 HD
ATOM     32  H12 UNL     1       0.006  -0.394  -1.895  1.00  0.00     0.274 HD
ATOM     33  H11 UNL     1       0.212   0.718  -3.176  1.00  0.00     0.274 HD
ENDBRANCH  15  30
BRANCH   5  34
HETATM   34  C6  UNL     1       1.158  -0.808   4.836  1.00  0.00     0.241 C 
HETATM   35  O2  UNL     1       1.365  -1.322   5.921  1.00  0.00    -0.306 OA
ENDBRANCH   5  34
BRANCH   3  36
HETATM   36  O1  UNL     1       1.322  -4.216   3.677  1.00  0.00    -0.391 OA
ATOM     37  H1  UNL     1       1.470  -3.997   4.590  1.00  0.00     0.210 HD
ENDBRANCH   3  36
TORSDOF 7
ENDMDL
MODEL 2
REMARK VINA RESULT: -8.678814625      1.890      7.303
REMARK  7 active torsions:
REMARK  status: ('A' for Active; 'I' for Inactive)
REMARK    1  A    between atoms: C3_3  and  O1_4 
REMARK    2  A    between atoms: C5_7  and  C6_8 
REMARK    3  A    between atoms: C16_19  and  N1_20 
REMARK    4  A    between atoms: C17_24  and  C18_25 
REMARK    5  A    between atoms: C18_25  and  C20_27 
REMARK    6  A    between atoms: C20_27  and  C22_29 
REMARK    7  A    between atoms: C23_30  and  C24_31 
ROOT
HETATM    1  C1  UNL     1      -2.795  -0.722  -3.112  1.00  0.00     0.017 C 
HETATM    2  C2  UNL     1      -2.217   0.416  -2.776  1.00  0.00    -0.056 C 
HETATM    3  C3  UNL     1      -2.896   1.734  -2.937  1.00  0.00     0.148 C 
HETATM    4  C4  UNL     1      -2.043   2.763  -3.637  1.00  0.00     0.053 C 
HETATM    5  C5  UNL     1      -0.611   2.219  -3.739  1.00  0.00     0.021 C 
HETATM    6  C7  UNL     1       0.402   3.266  -4.011  1.00  0.00     0.018 C 
HETATM    7  C8  UNL     1       1.303   3.328  -2.767  1.00  0.00     0.011 C 
HETATM    8  C9  UNL     1       1.203   1.904  -2.171  1.00  0.00    -0.031 C 
HETATM    9  C10 UNL     1       2.010   1.048  -3.119  1.00  0.00     0.016 C 
HETATM   10  C11 UNL     1      -0.252   1.709  -2.372  1.00  0.00     0.018 C 
HETATM   11  C12 UNL     1      -0.824   0.348  -2.213  1.00  0.00     0.022 C 
HETATM   12  C13 UNL     1      -1.014  -0.047  -0.763  1.00  0.00     0.010 C 
HETATM   13  C14 UNL     1       0.371  -0.102  -0.144  1.00  0.00     0.008 C 
HETATM   14  C15 UNL     1       0.773   1.293   0.212  1.00  0.00     0.025 C 
HETATM   15  C16 UNL     1       1.320   1.261   1.636  1.00  0.00     0.192 C 
HETATM   16  C17 UNL     1       2.564   0.447   1.613  1.00  0.00     0.021 C 
HETATM   17  C25 UNL     1       3.561   1.128   0.751  1.00  0.00     0.008 C 
HETATM   18  C26 UNL     1       3.063   1.229  -0.694  1.00  0.00     0.011 C 
HETATM   19  C27 UNL     1       1.711   1.921  -0.775  1.00  0.00    -0.031 C 
HETATM   20  C28 UNL     1       1.931   3.355  -0.325  1.00  0.00     0.016 C 
ENDROOT
BRANCH  16  21
HETATM   21  C18 UNL     1       3.074  -0.164   2.830  1.00  0.00    -0.005 C 
HETATM   22  C19 UNL     1       4.377  -0.950   2.562  1.00  0.00     0.011 C 
BRANCH  21  23
HETATM   23  C20 UNL     1       2.267  -0.962   3.745  1.00  0.00     0.008 C 
HETATM   24  C21 UNL     1       2.280  -0.566   5.214  1.00  0.00     0.014 C 
BRANCH  23  25
HETATM   25  C22 UNL     1       2.399  -2.427   3.698  1.00  0.00    -0.017 C 
HETATM   26  C23 UNL     1       1.566  -3.377   3.535  1.00  0.00     0.067 C 
BRANCH  26  27
HETATM   27  C24 UNL     1       0.153  -3.313   3.329  1.00  0.00     0.254 C 
HETATM   28  N2  UNL     1      -0.466  -2.511   2.361  1.00  0.00    -0.058 NA
HETATM   29  O3  UNL     1      -0.606  -4.042   4.086  1.00  0.00    -0.272 OA
ENDBRANCH  26  27
ENDBRANCH  23  25
ENDBRANCH  21  23
ENDBRANCH  16  21
BRANCH  15  30
HETATM   30  N1  UNL     1       0.248   0.696   2.448  1.00  0.00    -0.074 N 
ATOM     31  H13 UNL     1      -0.499   1.357   2.659  1.00  0.00     0.274 HD
ATOM     32  H12 UNL     1      -0.330   0.017   1.951  1.00  0.00     0.274 HD
ATOM     33  H11 UNL     1       0.708   0.316   3.275  1.00  0.00     0.274 HD
ENDBRANCH  15  30
BRANCH   5  34
HETATM   34  C6  UNL     1      -0.610   1.233  -4.809  1.00  0.00     0.241 C 
HETATM   35  O2  UNL     1      -1.086   1.461  -5.908  1.00  0.00    -0.306 OA
ENDBRANCH   5  34
BRANCH   3  36
HETATM   36  O1  UNL     1      -4.031   1.540  -3.720  1.00  0.00    -0.391 OA
ATOM     37  H1  UNL     1      -3.830   1.824  -4.604  1.00  0.00     0.210 HD
ENDBRANCH   3  36
TORSDOF 7
ENDMDL
MODEL 3
REMARK VINA RESULT: -8.621896805      1.687      2.009
REMARK  7 active torsions:
REMARK  status: ('A' for Active; 'I' for Inactive)
REMARK    1  A    between atoms: C3_3  and  O1_4 
REMARK    2  A    between atoms: C5_7  and  C6_8 
REMARK    3  A    between atoms: C16_19  and  N1_20 
REMARK    4  A    between atoms: C17_24  and  C18_25 
REMARK    5  A    between atoms: C18_25  and  C20_27 
REMARK    6  A    between atoms: C20_27  and  C22_29 
REMARK    7  A    between atoms: C23_30  and  C24_31 
ROOT
HETATM    1  C1  UNL     1      -0.568  -2.464   3.113  1.00  0.00     0.017 C 
HETATM    2  C2  UNL     1       0.476  -1.859   2.578  1.00  0.00    -0.056 C 
HETATM    3  C3  UNL     1       1.851  -2.435   2.642  1.00  0.00     0.148 C 
HETATM    4  C4  UNL     1       2.889  -1.448   3.115  1.00  0.00     0.053 C 
HETATM    5  C5  UNL     1       2.257  -0.049   3.134  1.00  0.00     0.021 C 
HETATM    6  C7  UNL     1       3.251   1.050   3.165  1.00  0.00     0.018 C 
HETATM    7  C8  UNL     1       3.099   1.807   1.837  1.00  0.00     0.011 C 
HETATM    8  C9  UNL     1       1.625   1.554   1.437  1.00  0.00    -0.031 C 
HETATM    9  C10 UNL     1       0.830   2.410   2.395  1.00  0.00     0.016 C 
HETATM   10  C11 UNL     1       1.563   0.122   1.812  1.00  0.00     0.018 C 
HETATM   11  C12 UNL     1       0.240  -0.546   1.886  1.00  0.00     0.022 C 
HETATM   12  C13 UNL     1      -0.309  -0.922   0.524  1.00  0.00     0.010 C 
HETATM   13  C14 UNL     1      -0.539   0.379  -0.224  1.00  0.00     0.008 C 
HETATM   14  C15 UNL     1       0.771   0.822  -0.792  1.00  0.00     0.025 C 
HETATM   15  C16 UNL     1       0.531   1.201  -2.251  1.00  0.00     0.192 C 
HETATM   16  C17 UNL     1      -0.364   2.389  -2.255  1.00  0.00     0.021 C 
HETATM   17  C25 UNL     1       0.338   3.516  -1.595  1.00  0.00     0.008 C 
HETATM   18  C26 UNL     1       0.645   3.191  -0.130  1.00  0.00     0.011 C 
HETATM   19  C27 UNL     1       1.440   1.902   0.005  1.00  0.00    -0.031 C 
HETATM   20  C28 UNL     1       2.791   2.156  -0.643  1.00  0.00     0.016 C 
ENDROOT
BRANCH  16  21
HETATM   21  C18 UNL     1      -1.151   2.720  -3.433  1.00  0.00    -0.005 C 
HETATM   22  C19 UNL     1      -2.504   1.974  -3.435  1.00  0.00     0.011 C 
BRANCH  21  23
HETATM   23  C20 UNL     1      -0.637   2.688  -4.797  1.00  0.00     0.008 C 
HETATM   24  C21 UNL     1       0.874   2.651  -4.972  1.00  0.00     0.014 C 
BRANCH  23  25
HETATM   25  C22 UNL     1      -1.153   3.670  -5.763  1.00  0.00    -0.017 C 
HETATM   26  C23 UNL     1      -2.019   3.610  -6.696  1.00  0.00     0.067 C 
BRANCH  26  27
HETATM   27  C24 UNL     1      -2.811   2.499  -7.121  1.00  0.00     0.254 C 
HETATM   28  N2  UNL     1      -4.141   2.286  -6.734  1.00  0.00    -0.058 NA
HETATM   29  O3  UNL     1      -2.266   1.632  -7.916  1.00  0.00    -0.272 OA
ENDBRANCH  26  27
ENDBRANCH  23  25
ENDBRANCH  21  23
ENDBRANCH  16  21
BRANCH  15  30
HETATM   30  N1  UNL     1      -0.046   0.013  -2.868  1.00  0.00    -0.074 N 
ATOM     31  H13 UNL     1      -0.621  -0.542  -2.234  1.00  0.00     0.274 HD
ATOM     32  H12 UNL     1      -0.779   0.217  -3.548  1.00  0.00     0.274 HD
ATOM     33  H11 UNL     1       0.746  -0.498  -3.259  1.00  0.00     0.274 HD
ENDBRANCH  15  30
BRANCH   5  34
HETATM   34  C6  UNL     1       1.406   0.013   4.314  1.00  0.00     0.241 C 
HETATM   35  O2  UNL     1       1.729   0.621   5.319  1.00  0.00    -0.306 OA
ENDBRANCH   5  34
BRANCH   3  36
HETATM   36  O1  UNL     1       1.835  -3.484   3.558  1.00  0.00    -0.391 OA
ATOM     37  H1  UNL     1       2.730  -3.772   3.690  1.00  0.00     0.210 HD
ENDBRANCH   3  36
TORSDOF 7
ENDMDL
MODEL 4
REMARK VINA RESULT: -8.614748836      2.663      7.904
REMARK  7 active torsions:
REMARK  status: ('A' for Active; 'I' for Inactive)
REMARK    1  A    between atoms: C3_3  and  O1_4 
REMARK    2  A    between atoms: C5_7  and  C6_8 
REMARK    3  A    between atoms: C16_19  and  N1_20 
REMARK    4  A    between atoms: C17_24  and  C18_25 
REMARK    5  A    between atoms: C18_25  and  C20_27 
REMARK    6  A    between atoms: C20_27  and  C22_29 
REMARK    7  A    between atoms: C23_30  and  C24_31 
ROOT
HETATM    1  C1  UNL     1      -2.424  -0.465  -3.159  1.00  0.00     0.017 C 
HETATM    2  C2  UNL     1      -1.811   0.565  -2.606  1.00  0.00    -0.056 C 
HETATM    3  C3  UNL     1      -2.366   1.948  -2.661  1.00  0.00     0.148 C 
HETATM    4  C4  UNL     1      -1.359   2.978  -3.110  1.00  0.00     0.053 C 
HETATM    5  C5  UNL     1       0.030   2.325  -3.121  1.00  0.00     0.021 C 
HETATM    6  C7  UNL     1       1.144   3.304  -3.128  1.00  0.00     0.018 C 
HETATM    7  C8  UNL     1       1.883   3.126  -1.793  1.00  0.00     0.011 C 
HETATM    8  C9  UNL     1       1.605   1.652  -1.414  1.00  0.00    -0.031 C 
HETATM    9  C10 UNL     1       2.460   0.856  -2.371  1.00  0.00     0.016 C 
HETATM   10  C11 UNL     1       0.177   1.615  -1.805  1.00  0.00     0.018 C 
HETATM   11  C12 UNL     1      -0.509   0.302  -1.902  1.00  0.00     0.022 C 
HETATM   12  C13 UNL     1      -0.908  -0.257  -0.551  1.00  0.00     0.010 C 
HETATM   13  C14 UNL     1       0.381  -0.514   0.209  1.00  0.00     0.008 C 
HETATM   14  C15 UNL     1       0.836   0.783   0.798  1.00  0.00     0.025 C 
HETATM   15  C16 UNL     1       1.195   0.521   2.257  1.00  0.00     0.192 C 
HETATM   16  C17 UNL     1       2.369  -0.391   2.265  1.00  0.00     0.021 C 
HETATM   17  C25 UNL     1       3.515   0.302   1.626  1.00  0.00     0.008 C 
HETATM   18  C26 UNL     1       3.211   0.631   0.161  1.00  0.00     0.011 C 
HETATM   19  C27 UNL     1       1.934   1.446   0.021  1.00  0.00    -0.031 C 
HETATM   20  C28 UNL     1       2.200   2.785   0.686  1.00  0.00     0.016 C 
ENDROOT
BRANCH  16  21
HETATM   21  C18 UNL     1       2.677  -1.196   3.437  1.00  0.00    -0.005 C 
HETATM   22  C19 UNL     1       1.864  -2.510   3.447  1.00  0.00     0.011 C 
BRANCH  21  23
HETATM   23  C20 UNL     1       2.687  -0.683   4.802  1.00  0.00     0.008 C 
HETATM   24  C21 UNL     1       2.715   0.827   4.980  1.00  0.00     0.014 C 
BRANCH  23  25
HETATM   25  C22 UNL     1       3.664  -1.241   5.751  1.00  0.00    -0.017 C 
HETATM   26  C23 UNL     1       3.583  -2.104   6.685  1.00  0.00     0.067 C 
BRANCH  26  27
HETATM   27  C24 UNL     1       2.448  -2.851   7.128  1.00  0.00     0.254 C 
HETATM   28  N2  UNL     1       2.196  -4.185   6.780  1.00  0.00    -0.058 NA
HETATM   29  O3  UNL     1       1.594  -2.258   7.903  1.00  0.00    -0.272 OA
ENDBRANCH  26  27
ENDBRANCH  23  25
ENDBRANCH  21  23
ENDBRANCH  16  21
BRANCH  15  30
HETATM   30  N1  UNL     1      -0.009  -0.045   2.855  1.00  0.00    -0.074 N 
ATOM     31  H13 UNL     1      -0.772  -0.180   2.192  1.00  0.00     0.274 HD
ATOM     32  H12 UNL     1       0.089  -1.025   3.126  1.00  0.00     0.274 HD
ATOM     33  H11 UNL     1      -0.242   0.575   3.631  1.00  0.00     0.274 HD
ENDBRANCH  15  30
BRANCH   5  34
HETATM   34  C6  UNL     1       0.094   1.488  -4.310  1.00  0.00     0.241 C 
HETATM   35  O2  UNL     1       0.556   1.886  -5.365  1.00  0.00    -0.306 OA
ENDBRANCH   5  34
BRANCH   3  36
HETATM   36  O1  UNL     1      -3.405   1.957  -3.588  1.00  0.00    -0.391 OA
ATOM     37  H1  UNL     1      -3.071   2.322  -4.399  1.00  0.00     0.210 HD
ENDBRANCH   3  36
TORSDOF 7
ENDMDL
MODEL 5
REMARK VINA RESULT: -8.611995433      2.732      7.861
REMARK  7 active torsions:
REMARK  status: ('A' for Active; 'I' for Inactive)
REMARK    1  A    between atoms: C3_3  and  O1_4 
REMARK    2  A    between atoms: C5_7  and  C6_8 
REMARK    3  A    between atoms: C16_19  and  N1_20 
REMARK    4  A    between atoms: C17_24  and  C18_25 
REMARK    5  A    between atoms: C18_25  and  C20_27 
REMARK    6  A    between atoms: C20_27  and  C22_29 
REMARK    7  A    between atoms: C23_30  and  C24_31 
ROOT
HETATM    1  C1  UNL     1      -2.472  -0.684  -2.586  1.00  0.00     0.017 C 
HETATM    2  C2  UNL     1      -1.824   0.447  -2.378  1.00  0.00    -0.056 C 
HETATM    3  C3  UNL     1      -2.357   1.766  -2.823  1.00  0.00     0.148 C 
HETATM    4  C4  UNL     1      -1.349   2.592  -3.583  1.00  0.00     0.053 C 
HETATM    5  C5  UNL     1       0.028   1.930  -3.439  1.00  0.00     0.021 C 
HETATM    6  C7  UNL     1       1.156   2.835  -3.764  1.00  0.00     0.018 C 
HETATM    7  C8  UNL     1       1.937   3.039  -2.456  1.00  0.00     0.011 C 
HETATM    8  C9  UNL     1       1.648   1.749  -1.652  1.00  0.00    -0.031 C 
HETATM    9  C10 UNL     1       2.457   0.685  -2.354  1.00  0.00     0.016 C 
HETATM   10  C11 UNL     1       0.207   1.635  -1.976  1.00  0.00     0.018 C 
HETATM   11  C12 UNL     1      -0.503   0.369  -1.663  1.00  0.00     0.022 C 
HETATM   12  C13 UNL     1      -0.867   0.243  -0.197  1.00  0.00     0.010 C 
HETATM   13  C14 UNL     1       0.442   0.189   0.570  1.00  0.00     0.008 C 
HETATM   14  C15 UNL     1       0.938   1.589   0.737  1.00  0.00     0.025 C 
HETATM   15  C16 UNL     1       1.341   1.759   2.199  1.00  0.00     0.192 C 
HETATM   16  C17 UNL     1       2.500   0.860   2.444  1.00  0.00     0.021 C 
HETATM   17  C25 UNL     1       3.634   1.305   1.598  1.00  0.00     0.008 C 
HETATM   18  C26 UNL     1       3.287   1.196   0.110  1.00  0.00     0.011 C 
HETATM   19  C27 UNL     1       2.020   1.966  -0.230  1.00  0.00    -0.031 C 
HETATM   20  C28 UNL     1       2.330   3.434   0.004  1.00  0.00     0.016 C 
ENDROOT
BRANCH  16  21
HETATM   21  C18 UNL     1       2.833   0.428   3.792  1.00  0.00    -0.005 C 
HETATM   22  C19 UNL     1       3.985   1.269   4.385  1.00  0.00     0.011 C 
BRANCH  21  23
HETATM   23  C20 UNL     1       3.069  -0.959   4.172  1.00  0.00     0.008 C 
HETATM   24  C21 UNL     1       3.047  -2.000   3.063  1.00  0.00     0.014 C 
BRANCH  23  25
HETATM   25  C22 UNL     1       2.300  -1.518   5.295  1.00  0.00    -0.017 C 
HETATM   26  C23 UNL     1       2.547  -1.673   6.536  1.00  0.00     0.067 C 
BRANCH  26  27
HETATM   27  C24 UNL     1       3.722  -1.326   7.272  1.00  0.00     0.254 C 
HETATM   28  N2  UNL     1       4.011  -0.035   7.733  1.00  0.00    -0.058 NA
HETATM   29  O3  UNL     1       4.577  -2.265   7.530  1.00  0.00    -0.272 OA
ENDBRANCH  26  27
ENDBRANCH  23  25
ENDBRANCH  21  23
ENDBRANCH  16  21
BRANCH  15  30
HETATM   30  N1  UNL     1       0.149   1.425   2.970  1.00  0.00    -0.074 N 
ATOM     31  H13 UNL     1      -0.615   2.091   2.854  1.00  0.00     0.274 HD
ATOM     32  H12 UNL     1      -0.351   0.607   2.619  1.00  0.00     0.274 HD
ATOM     33  H11 UNL     1       0.469   1.328   3.933  1.00  0.00     0.274 HD
ENDBRANCH  15  30
BRANCH   5  34
HETATM   34  C6  UNL     1       0.039   0.779  -4.329  1.00  0.00     0.241 C 
HETATM   35  O2  UNL     1       0.893   0.622  -5.183  1.00  0.00    -0.306 OA
ENDBRANCH   5  34
BRANCH   3  36
HETATM   36  O1  UNL     1      -3.426   1.528  -3.684  1.00  0.00    -0.391 OA
ATOM     37  H1  UNL     1      -3.126   0.943  -4.369  1.00  0.00     0.210 HD
ENDBRANCH   3  36
TORSDOF 7
ENDMDL
