MODEL 1
REMARK VINA RESULT: -5.229958835      0.000      0.000
REMARK  7 active torsions:
REMARK  status: ('A' for Active; 'I' for Inactive)
REMARK    1  A    between atoms: O1_1  and  C1_3 
REMARK    2  A    between atoms: N1_9  and  O2_11 
REMARK    3  A    between atoms: O2_11  and  C7_12 
REMARK    4  A    between atoms: C7_12  and  C8_13 
REMARK    5  A    between atoms: C8_13  and  S1_14 
REMARK    6  A    between atoms: S1_14  and  C9_15 
REMARK    7  A    between atoms: C9_15  and  C10_16 
ROOT
HETATM    1  O2  UNL     1      -1.481   4.078  12.795  1.00  0.00    -0.280 OA
ENDROOT
BRANCH   1   2
HETATM    2  N1  UNL     1      -2.149   4.129  13.898  1.00  0.00    -0.272 N 
HETATM    3  C6  UNL     1      -3.462   4.334  14.202  1.00  0.00     0.038 C 
HETATM    4  C1  UNL     1      -4.487   3.341  13.658  1.00  0.00     0.165 C 
HETATM    5  C5  UNL     1      -3.922   5.770  14.091  1.00  0.00     0.057 C 
HETATM    6  C2  UNL     1      -5.729   3.527  14.513  1.00  0.00     0.038 C 
HETATM    7  C3  UNL     1      -6.267   4.915  14.222  1.00  0.00     0.003 C 
HETATM    8  C4  UNL     1      -5.285   5.996  14.627  1.00  0.00     0.006 C 
ATOM      9  H1  UNL     1      -1.566   3.985  14.723  1.00  0.00     0.193 HD
BRANCH   4  10
HETATM   10  O1  UNL     1      -4.822   3.645  12.347  1.00  0.00    -0.390 OA
ATOM     11  H1  UNL     1      -4.377   3.026  11.780  1.00  0.00     0.210 HD
ENDBRANCH   4  10
ENDBRANCH   1   2
BRANCH   1  12
HETATM   12  C7  UNL     1      -0.839   5.267  12.442  1.00  0.00     0.211 C 
BRANCH  12  13
HETATM   13  C8  UNL     1      -1.126   5.464  10.904  1.00  0.00     0.103 C 
BRANCH  13  14
HETATM   14  S1  UNL     1      -2.187   6.941  10.857  1.00  0.00    -0.162 SA
BRANCH  14  15
HETATM   15  C9  UNL     1      -3.819   6.287  10.369  1.00  0.00     0.112 C 
BRANCH  15  16
HETATM   16  C10 UNL     1      -4.825   7.314  10.791  1.00  0.00    -0.049 A 
HETATM   17  C11 UNL     1      -4.472   8.634  10.606  1.00  0.00     0.008 A 
HETATM   18  C12 UNL     1      -5.376   9.630  10.826  1.00  0.00     0.001 A 
HETATM   19  C13 UNL     1      -6.655   9.334  11.248  1.00  0.00     0.000 A 
HETATM   20  C14 UNL     1      -7.021   8.037  11.429  1.00  0.00     0.001 A 
HETATM   21  C15 UNL     1      -6.093   7.043  11.199  1.00  0.00     0.008 A 
ENDBRANCH  15  16
ENDBRANCH  14  15
ENDBRANCH  13  14
ENDBRANCH  12  13
ENDBRANCH   1  12
TORSDOF 7
ENDMDL
MODEL 2
REMARK VINA RESULT: -5.221988511      3.704      5.536
REMARK  7 active torsions:
REMARK  status: ('A' for Active; 'I' for Inactive)
REMARK    1  A    between atoms: O1_1  and  C1_3 
REMARK    2  A    between atoms: N1_9  and  O2_11 
REMARK    3  A    between atoms: O2_11  and  C7_12 
REMARK    4  A    between atoms: C7_12  and  C8_13 
REMARK    5  A    between atoms: C8_13  and  S1_14 
REMARK    6  A    between atoms: S1_14  and  C9_15 
REMARK    7  A    between atoms: C9_15  and  C10_16 
ROOT
HETATM    1  O2  UNL     1      -3.647   6.192   7.492  1.00  0.00    -0.280 OA
ENDROOT
BRANCH   1   2
HETATM    2  N1  UNL     1      -4.829   6.113   6.978  1.00  0.00    -0.272 N 
HETATM    3  C6  UNL     1      -5.951   6.882   7.061  1.00  0.00     0.038 C 
HETATM    4  C1  UNL     1      -5.867   8.328   6.578  1.00  0.00     0.165 C 
HETATM    5  C5  UNL     1      -6.723   6.741   8.354  1.00  0.00     0.057 C 
HETATM    6  C2  UNL     1      -7.303   8.765   6.343  1.00  0.00     0.038 C 
HETATM    7  C3  UNL     1      -7.986   8.795   7.697  1.00  0.00     0.003 C 
HETATM    8  C4  UNL     1      -8.040   7.420   8.332  1.00  0.00     0.006 C 
ATOM      9  H1  UNL     1      -4.948   5.295   6.380  1.00  0.00     0.193 HD
BRANCH   4  10
HETATM   10  O1  UNL     1      -5.327   9.147   7.559  1.00  0.00    -0.390 OA
ATOM     11  H1  UNL     1      -4.380   9.084   7.504  1.00  0.00     0.210 HD
ENDBRANCH   4  10
ENDBRANCH   1   2
BRANCH   1  12
HETATM   12  C7  UNL     1      -3.189   5.018   8.095  1.00  0.00     0.211 C 
BRANCH  12  13
HETATM   13  C8  UNL     1      -2.797   5.422   9.568  1.00  0.00     0.103 C 
BRANCH  13  14
HETATM   14  S1  UNL     1      -4.269   4.971  10.537  1.00  0.00    -0.162 SA
BRANCH  14  15
HETATM   15  C9  UNL     1      -4.121   5.984  12.047  1.00  0.00     0.112 C 
BRANCH  15  16
HETATM   16  C10 UNL     1      -5.082   7.121  11.884  1.00  0.00    -0.049 A 
HETATM   17  C11 UNL     1      -4.602   8.247  11.249  1.00  0.00     0.008 A 
HETATM   18  C12 UNL     1      -5.440   9.273  10.929  1.00  0.00     0.001 A 
HETATM   19  C13 UNL     1      -6.781   9.206  11.246  1.00  0.00     0.000 A 
HETATM   20  C14 UNL     1      -7.272   8.101  11.868  1.00  0.00     0.001 A 
HETATM   21  C15 UNL     1      -6.408   7.072  12.182  1.00  0.00     0.008 A 
ENDBRANCH  15  16
ENDBRANCH  14  15
ENDBRANCH  13  14
ENDBRANCH  12  13
ENDBRANCH   1  12
TORSDOF 7
ENDMDL
MODEL 3
REMARK VINA RESULT: -5.206723932      2.470      5.287
REMARK  7 active torsions:
REMARK  status: ('A' for Active; 'I' for Inactive)
REMARK    1  A    between atoms: O1_1  and  C1_3 
REMARK    2  A    between atoms: N1_9  and  O2_11 
REMARK    3  A    between atoms: O2_11  and  C7_12 
REMARK    4  A    between atoms: C7_12  and  C8_13 
REMARK    5  A    between atoms: C8_13  and  S1_14 
REMARK    6  A    between atoms: S1_14  and  C9_15 
REMARK    7  A    between atoms: C9_15  and  C10_16 
ROOT
HETATM    1  O2  UNL     1      -5.135   4.018  10.546  1.00  0.00    -0.280 OA
ENDROOT
BRANCH   1   2
HETATM    2  N1  UNL     1      -4.819   5.137   9.987  1.00  0.00    -0.272 N 
HETATM    3  C6  UNL     1      -5.375   6.383   9.981  1.00  0.00     0.038 C 
HETATM    4  C1  UNL     1      -5.509   7.115  11.314  1.00  0.00     0.165 C 
HETATM    5  C5  UNL     1      -6.602   6.524   9.109  1.00  0.00     0.057 C 
HETATM    6  C2  UNL     1      -5.692   8.580  10.958  1.00  0.00     0.038 C 
HETATM    7  C3  UNL     1      -7.030   8.704  10.254  1.00  0.00     0.003 C 
HETATM    8  C4  UNL     1      -7.056   7.926   8.954  1.00  0.00     0.006 C 
ATOM      9  H1  UNL     1      -3.968   5.077   9.429  1.00  0.00     0.193 HD
BRANCH   4  10
HETATM   10  O1  UNL     1      -6.642   6.697  11.997  1.00  0.00    -0.390 OA
ATOM     11  H1  UNL     1      -6.584   5.756  12.111  1.00  0.00     0.210 HD
ENDBRANCH   4  10
ENDBRANCH   1   2
BRANCH   1  12
HETATM   12  C7  UNL     1      -4.096   3.396  11.244  1.00  0.00     0.211 C 
BRANCH  12  13
HETATM   13  C8  UNL     1      -4.741   2.130  11.928  1.00  0.00     0.103 C 
BRANCH  13  14
HETATM   14  S1  UNL     1      -4.507   2.444  13.705  1.00  0.00    -0.162 SA
BRANCH  14  15
HETATM   15  C9  UNL     1      -5.167   4.129  13.937  1.00  0.00     0.112 C 
BRANCH  15  16
HETATM   16  C10 UNL     1      -4.002   4.985  14.330  1.00  0.00    -0.049 A 
HETATM   17  C11 UNL     1      -2.834   4.326  14.651  1.00  0.00     0.008 A 
HETATM   18  C12 UNL     1      -1.685   5.022  14.881  1.00  0.00     0.001 A 
HETATM   19  C13 UNL     1      -1.675   6.399  14.806  1.00  0.00     0.000 A 
HETATM   20  C14 UNL     1      -2.817   7.065  14.485  1.00  0.00     0.001 A 
HETATM   21  C15 UNL     1      -3.969   6.342  14.254  1.00  0.00     0.008 A 
ENDBRANCH  15  16
ENDBRANCH  14  15
ENDBRANCH  13  14
ENDBRANCH  12  13
ENDBRANCH   1  12
TORSDOF 7
ENDMDL
MODEL 4
REMARK VINA RESULT: -5.204623613      3.461      5.444
REMARK  7 active torsions:
REMARK  status: ('A' for Active; 'I' for Inactive)
REMARK    1  A    between atoms: O1_1  and  C1_3 
REMARK    2  A    between atoms: N1_9  and  O2_11 
REMARK    3  A    between atoms: O2_11  and  C7_12 
REMARK    4  A    between atoms: C7_12  and  C8_13 
REMARK    5  A    between atoms: C8_13  and  S1_14 
REMARK    6  A    between atoms: S1_14  and  C9_15 
REMARK    7  A    between atoms: C9_15  and  C10_16 
ROOT
HETATM    1  O2  UNL     1      -3.618   6.090   8.379  1.00  0.00    -0.280 OA
ENDROOT
BRANCH   1   2
HETATM    2  N1  UNL     1      -4.683   5.955   7.662  1.00  0.00    -0.272 N 
HETATM    3  C6  UNL     1      -5.782   6.732   7.444  1.00  0.00     0.038 C 
HETATM    4  C1  UNL     1      -5.574   8.113   6.829  1.00  0.00     0.165 C 
HETATM    5  C5  UNL     1      -6.787   6.738   8.575  1.00  0.00     0.057 C 
HETATM    6  C2  UNL     1      -6.930   8.523   6.279  1.00  0.00     0.038 C 
HETATM    7  C3  UNL     1      -7.855   8.708   7.466  1.00  0.00     0.003 C 
HETATM    8  C4  UNL     1      -8.059   7.414   8.227  1.00  0.00     0.006 C 
ATOM      9  H1  UNL     1      -4.706   5.076   7.146  1.00  0.00     0.193 HD
BRANCH   4  10
HETATM   10  O1  UNL     1      -5.210   9.037   7.798  1.00  0.00    -0.390 OA
ATOM     11  H1  UNL     1      -5.560   8.741   8.630  1.00  0.00     0.210 HD
ENDBRANCH   4  10
ENDBRANCH   1   2
BRANCH   1  12
HETATM   12  C7  UNL     1      -3.081   4.895   8.863  1.00  0.00     0.211 C 
BRANCH  12  13
HETATM   13  C8  UNL     1      -3.933   4.533  10.140  1.00  0.00     0.103 C 
BRANCH  13  14
HETATM   14  S1  UNL     1      -3.143   5.501  11.464  1.00  0.00    -0.162 SA
BRANCH  14  15
HETATM   15  C9  UNL     1      -4.517   5.875  12.605  1.00  0.00     0.112 C 
BRANCH  15  16
HETATM   16  C10 UNL     1      -5.247   7.042  12.012  1.00  0.00    -0.049 A 
HETATM   17  C11 UNL     1      -6.604   7.102  12.247  1.00  0.00     0.008 A 
HETATM   18  C12 UNL     1      -7.325   8.196  11.871  1.00  0.00     0.001 A 
HETATM   19  C13 UNL     1      -6.709   9.256  11.239  1.00  0.00     0.000 A 
HETATM   20  C14 UNL     1      -5.370   9.215  11.005  1.00  0.00     0.001 A 
HETATM   21  C15 UNL     1      -4.658   8.100  11.395  1.00  0.00     0.008 A 
ENDBRANCH  15  16
ENDBRANCH  14  15
ENDBRANCH  13  14
ENDBRANCH  12  13
ENDBRANCH   1  12
TORSDOF 7
ENDMDL
MODEL 5
REMARK VINA RESULT: -5.201589936      1.957      2.350
REMARK  7 active torsions:
REMARK  status: ('A' for Active; 'I' for Inactive)
REMARK    1  A    between atoms: O1_1  and  C1_3 
REMARK    2  A    between atoms: N1_9  and  O2_11 
REMARK    3  A    between atoms: O2_11  and  C7_12 
REMARK    4  A    between atoms: C7_12  and  C8_13 
REMARK    5  A    between atoms: C8_13  and  S1_14 
REMARK    6  A    between atoms: S1_14  and  C9_15 
REMARK    7  A    between atoms: C9_15  and  C10_16 
ROOT
HETATM    1  O2  UNL     1      -3.234   3.747   9.434  1.00  0.00    -0.280 OA
ENDROOT
BRANCH   1   2
HETATM    2  N1  UNL     1      -2.785   3.405  10.595  1.00  0.00    -0.272 N 
HETATM    3  C6  UNL     1      -3.376   3.085  11.782  1.00  0.00     0.038 C 
HETATM    4  C1  UNL     1      -4.311   1.879  11.816  1.00  0.00     0.165 C 
HETATM    5  C5  UNL     1      -3.913   4.265  12.560  1.00  0.00     0.057 C 
HETATM    6  C2  UNL     1      -4.424   1.491  13.280  1.00  0.00     0.038 C 
HETATM    7  C3  UNL     1      -5.145   2.623  13.987  1.00  0.00     0.003 C 
HETATM    8  C4  UNL     1      -4.354   3.915  13.931  1.00  0.00     0.006 C 
ATOM      9  H1  UNL     1      -1.767   3.364  10.632  1.00  0.00     0.193 HD
BRANCH   4  10
HETATM   10  O1  UNL     1      -5.578   2.222  11.366  1.00  0.00    -0.390 OA
ATOM     11  H1  UNL     1      -5.735   3.129  11.600  1.00  0.00     0.210 HD
ENDBRANCH   4  10
ENDBRANCH   1   2
BRANCH   1  12
HETATM   12  C7  UNL     1      -2.644   4.891   8.891  1.00  0.00     0.211 C 
BRANCH  12  13
HETATM   13  C8  UNL     1      -3.765   6.000   8.915  1.00  0.00     0.103 C 
BRANCH  13  14
HETATM   14  S1  UNL     1      -2.864   7.502   9.409  1.00  0.00    -0.162 SA
BRANCH  14  15
HETATM   15  C9  UNL     1      -3.094   7.570  11.217  1.00  0.00     0.112 C 
BRANCH  15  16
HETATM   16  C10 UNL     1      -4.526   7.947  11.443  1.00  0.00    -0.049 A 
HETATM   17  C11 UNL     1      -4.942   9.143  10.895  1.00  0.00     0.008 A 
HETATM   18  C12 UNL     1      -6.257   9.499  10.925  1.00  0.00     0.001 A 
HETATM   19  C13 UNL     1      -7.192   8.674  11.514  1.00  0.00     0.000 A 
HETATM   20  C14 UNL     1      -6.800   7.489  12.054  1.00  0.00     0.001 A 
HETATM   21  C15 UNL     1      -5.465   7.146  12.012  1.00  0.00     0.008 A 
ENDBRANCH  15  16
ENDBRANCH  14  15
ENDBRANCH  13  14
ENDBRANCH  12  13
ENDBRANCH   1  12
TORSDOF 7
ENDMDL
