MODEL 1
REMARK VINA RESULT: -5.673356264      0.000      0.000
REMARK  9 active torsions:
REMARK  status: ('A' for Active; 'I' for Inactive)
REMARK    1  A    between atoms: N1_1  and  C1_5 
REMARK    2  A    between atoms: C1_5  and  C2_6 
REMARK    3  A    between atoms: C2_6  and  C3_7 
REMARK    4  A    between atoms: C3_7  and  C4_8 
REMARK    5  A    between atoms: N2_9  and  C5_11 
REMARK    6  A    between atoms: C8_14  and  C9_15 
REMARK    7  A    between atoms: C9_15  and  N3_16 
REMARK    8  A    between atoms: N3_16  and  C10_18 
REMARK    9  A    between atoms: C10_18  and  C11_19 
ROOT
HETATM    1  C5  UNL     1      -6.461   8.420  10.964  1.00  0.00     0.031 A 
HETATM    2  C6  UNL     1      -7.459   7.946  11.800  1.00  0.00     0.030 A 
HETATM    3  C7  UNL     1      -7.239   7.083  12.856  1.00  0.00     0.015 A 
HETATM    4  C8  UNL     1      -5.989   6.650  13.121  1.00  0.00    -0.021 A 
HETATM    5  C16 UNL     1      -4.930   7.101  12.294  1.00  0.00     0.015 A 
HETATM    6  C17 UNL     1      -5.179   7.939  11.281  1.00  0.00     0.030 A 
ENDROOT
BRANCH   4   7
HETATM    7  C9  UNL     1      -5.585   5.723  14.209  1.00  0.00     0.094 C 
BRANCH   7   8
HETATM    8  N3  UNL     1      -4.184   5.624  14.273  1.00  0.00    -0.394 N 
ATOM      9  H3  UNL     1      -3.573   6.440  14.269  1.00  0.00     0.159 HD
BRANCH   8  10
HETATM   10  C10 UNL     1      -3.684   4.282  14.344  1.00  0.00     0.159 C 
BRANCH  10  11
HETATM   11  C11 UNL     1      -3.884   3.587  13.070  1.00  0.00    -0.025 A 
HETATM   12  C12 UNL     1      -3.370   4.051  11.901  1.00  0.00     0.011 A 
HETATM   13  C13 UNL     1      -3.654   3.342  10.735  1.00  0.00     0.018 A 
HETATM   14  C14 UNL     1      -4.436   2.209  10.832  1.00  0.00     0.087 A 
HETATM   15  N4  UNL     1      -4.937   1.758  11.984  1.00  0.00    -0.375 N 
HETATM   16  C15 UNL     1      -4.659   2.448  13.102  1.00  0.00     0.096 A 
ATOM     17  H4  UNL     1      -5.512   0.916  12.014  1.00  0.00     0.164 HD
ENDBRANCH  10  11
ENDBRANCH   8  10
ENDBRANCH   7   8
ENDBRANCH   4   7
BRANCH   1  18
HETATM   18  N2  UNL     1      -6.640   9.305   9.940  1.00  0.00    -0.370 N 
HETATM   19  C4  UNL     1      -7.194   9.494   8.915  1.00  0.00     0.061 C 
ATOM     20  H2  UNL     1      -6.070  10.126  10.139  1.00  0.00     0.165 HD
BRANCH  19  21
HETATM   21  C3  UNL     1      -8.120   8.661   8.173  1.00  0.00     0.046 C 
BRANCH  21  22
HETATM   22  C2  UNL     1      -7.848   7.198   8.089  1.00  0.00     0.032 C 
BRANCH  22  23
HETATM   23  C1  UNL     1      -6.553   6.762   7.520  1.00  0.00     0.230 C 
BRANCH  23  24
HETATM   24  N1  UNL     1      -6.532   6.019   6.330  1.00  0.00    -0.079 N 
ATOM     25  H13 UNL     1      -7.492   5.896   6.008  1.00  0.00     0.274 HD
ATOM     26  H12 UNL     1      -6.144   6.604   5.590  1.00  0.00     0.274 HD
ATOM     27  H11 UNL     1      -6.063   5.114   6.308  1.00  0.00     0.274 HD
ENDBRANCH  23  24
ENDBRANCH  22  23
ENDBRANCH  21  22
ENDBRANCH  19  21
ENDBRANCH   1  18
TORSDOF 9
ENDMDL
MODEL 2
REMARK VINA RESULT: -5.653909305      2.093      6.793
REMARK  9 active torsions:
REMARK  status: ('A' for Active; 'I' for Inactive)
REMARK    1  A    between atoms: N1_1  and  C1_5 
REMARK    2  A    between atoms: C1_5  and  C2_6 
REMARK    3  A    between atoms: C2_6  and  C3_7 
REMARK    4  A    between atoms: C3_7  and  C4_8 
REMARK    5  A    between atoms: N2_9  and  C5_11 
REMARK    6  A    between atoms: C8_14  and  C9_15 
REMARK    7  A    between atoms: C9_15  and  N3_16 
REMARK    8  A    between atoms: N3_16  and  C10_18 
REMARK    9  A    between atoms: C10_18  and  C11_19 
ROOT
HETATM    1  C5  UNL     1      -5.503   7.098  12.022  1.00  0.00     0.031 A 
HETATM    2  C6  UNL     1      -4.538   7.823  11.343  1.00  0.00     0.030 A 
HETATM    3  C7  UNL     1      -4.775   9.032  10.720  1.00  0.00     0.015 A 
HETATM    4  C8  UNL     1      -6.011   9.573  10.750  1.00  0.00    -0.021 A 
HETATM    5  C16 UNL     1      -7.037   8.870  11.429  1.00  0.00     0.015 A 
HETATM    6  C17 UNL     1      -6.772   7.702  12.024  1.00  0.00     0.030 A 
ENDROOT
BRANCH   4   7
HETATM    7  C9  UNL     1      -6.432  10.856  10.130  1.00  0.00     0.094 C 
BRANCH   7   8
HETATM    8  N3  UNL     1      -6.414  10.752   8.728  1.00  0.00    -0.394 N 
ATOM      9  H3  UNL     1      -5.623  11.061   8.163  1.00  0.00     0.159 HD
BRANCH   8  10
HETATM   10  C10 UNL     1      -7.596  10.175   8.159  1.00  0.00     0.159 C 
BRANCH  10  11
HETATM   11  C11 UNL     1      -7.334   8.810   7.696  1.00  0.00    -0.025 A 
HETATM   12  C12 UNL     1      -7.842   7.719   8.328  1.00  0.00     0.011 A 
HETATM   13  C13 UNL     1      -7.498   6.461   7.837  1.00  0.00     0.018 A 
HETATM   14  C14 UNL     1      -6.667   6.391   6.738  1.00  0.00     0.087 A 
HETATM   15  N4  UNL     1      -6.172   7.467   6.122  1.00  0.00    -0.375 N 
HETATM   16  C15 UNL     1      -6.508   8.675   6.602  1.00  0.00     0.096 A 
ATOM     17  H4  UNL     1      -5.559   7.374   5.311  1.00  0.00     0.164 HD
ENDBRANCH  10  11
ENDBRANCH   8  10
ENDBRANCH   7   8
ENDBRANCH   4   7
BRANCH   1  18
HETATM   18  N2  UNL     1      -5.290   5.921  12.683  1.00  0.00    -0.370 N 
HETATM   19  C4  UNL     1      -4.752   5.417  13.604  1.00  0.00     0.061 C 
ATOM     20  H2  UNL     1      -5.797   5.191  12.184  1.00  0.00     0.165 HD
BRANCH  19  21
HETATM   21  C3  UNL     1      -3.908   5.988  14.635  1.00  0.00     0.046 C 
BRANCH  21  22
HETATM   22  C2  UNL     1      -2.460   6.185  14.341  1.00  0.00     0.032 C 
BRANCH  22  23
HETATM   23  C1  UNL     1      -1.617   4.981  14.159  1.00  0.00     0.230 C 
BRANCH  23  24
HETATM   24  N1  UNL     1      -1.317   4.170  15.263  1.00  0.00    -0.079 N 
ATOM     25  H13 UNL     1      -0.449   3.669  15.071  1.00  0.00     0.274 HD
ATOM     26  H12 UNL     1      -1.035   4.770  16.039  1.00  0.00     0.274 HD
ATOM     27  H11 UNL     1      -2.008   3.502  15.603  1.00  0.00     0.274 HD
ENDBRANCH  23  24
ENDBRANCH  22  23
ENDBRANCH  21  22
ENDBRANCH  19  21
ENDBRANCH   1  18
TORSDOF 9
ENDMDL
MODEL 3
REMARK VINA RESULT: -5.622097121      2.259      7.942
REMARK  9 active torsions:
REMARK  status: ('A' for Active; 'I' for Inactive)
REMARK    1  A    between atoms: N1_1  and  C1_5 
REMARK    2  A    between atoms: C1_5  and  C2_6 
REMARK    3  A    between atoms: C2_6  and  C3_7 
REMARK    4  A    between atoms: C3_7  and  C4_8 
REMARK    5  A    between atoms: N2_9  and  C5_11 
REMARK    6  A    between atoms: C8_14  and  C9_15 
REMARK    7  A    between atoms: C9_15  and  N3_16 
REMARK    8  A    between atoms: N3_16  and  C10_18 
REMARK    9  A    between atoms: C10_18  and  C11_19 
ROOT
HETATM    1  C5  UNL     1      -5.650   6.796  12.731  1.00  0.00     0.031 A 
HETATM    2  C6  UNL     1      -4.668   7.362  11.935  1.00  0.00     0.030 A 
HETATM    3  C7  UNL     1      -4.919   8.264  10.920  1.00  0.00     0.015 A 
HETATM    4  C8  UNL     1      -6.187   8.640  10.653  1.00  0.00    -0.021 A 
HETATM    5  C16 UNL     1      -7.232   8.088  11.435  1.00  0.00     0.015 A 
HETATM    6  C17 UNL     1      -6.952   7.219  12.413  1.00  0.00     0.030 A 
ENDROOT
BRANCH   4   7
HETATM    7  C9  UNL     1      -6.626   9.591   9.599  1.00  0.00     0.094 C 
BRANCH   7   8
HETATM    8  N3  UNL     1      -7.701   9.052   8.871  1.00  0.00    -0.394 N 
ATOM      9  H3  UNL     1      -8.541   8.685   9.319  1.00  0.00     0.159 HD
BRANCH   8  10
HETATM   10  C10 UNL     1      -7.522   9.062   7.449  1.00  0.00     0.159 C 
BRANCH  10  11
HETATM   11  C11 UNL     1      -8.691   9.643   6.784  1.00  0.00    -0.025 A 
HETATM   12  C12 UNL     1      -8.639  10.126   5.514  1.00  0.00     0.011 A 
HETATM   13  C13 UNL     1      -9.793  10.700   4.986  1.00  0.00     0.018 A 
HETATM   14  C14 UNL     1     -10.923  10.744   5.776  1.00  0.00     0.087 A 
HETATM   15  N4  UNL     1     -10.968  10.267   7.022  1.00  0.00    -0.375 N 
HETATM   16  C15 UNL     1      -9.851   9.717   7.523  1.00  0.00     0.096 A 
ATOM     17  H4  UNL     1     -11.823  10.319   7.576  1.00  0.00     0.164 HD
ENDBRANCH  10  11
ENDBRANCH   8  10
ENDBRANCH   7   8
ENDBRANCH   4   7
BRANCH   1  18
HETATM   18  N2  UNL     1      -5.431   5.935  13.768  1.00  0.00    -0.370 N 
HETATM   19  C4  UNL     1      -4.865   4.955  14.104  1.00  0.00     0.061 C 
ATOM     20  H2  UNL     1      -5.966   6.272  14.567  1.00  0.00     0.165 HD
BRANCH  19  21
HETATM   21  C3  UNL     1      -3.973   4.080  13.371  1.00  0.00     0.046 C 
BRANCH  21  22
HETATM   22  C2  UNL     1      -2.571   4.531  13.135  1.00  0.00     0.032 C 
BRANCH  22  23
HETATM   23  C1  UNL     1      -1.818   5.091  14.280  1.00  0.00     0.230 C 
BRANCH  23  24
HETATM   24  N1  UNL     1      -1.328   4.234  15.276  1.00  0.00    -0.079 N 
ATOM     25  H13 UNL     1      -2.119   3.765  15.719  1.00  0.00     0.274 HD
ATOM     26  H12 UNL     1      -0.855   3.450  14.826  1.00  0.00     0.274 HD
ATOM     27  H11 UNL     1      -0.720   4.603  16.007  1.00  0.00     0.274 HD
ENDBRANCH  23  24
ENDBRANCH  22  23
ENDBRANCH  21  22
ENDBRANCH  19  21
ENDBRANCH   1  18
TORSDOF 9
ENDMDL
MODEL 4
REMARK VINA RESULT: -5.586952842      1.408      2.174
REMARK  9 active torsions:
REMARK  status: ('A' for Active; 'I' for Inactive)
REMARK    1  A    between atoms: N1_1  and  C1_5 
REMARK    2  A    between atoms: C1_5  and  C2_6 
REMARK    3  A    between atoms: C2_6  and  C3_7 
REMARK    4  A    between atoms: C3_7  and  C4_8 
REMARK    5  A    between atoms: N2_9  and  C5_11 
REMARK    6  A    between atoms: C8_14  and  C9_15 
REMARK    7  A    between atoms: C9_15  and  N3_16 
REMARK    8  A    between atoms: N3_16  and  C10_18 
REMARK    9  A    between atoms: C10_18  and  C11_19 
ROOT
HETATM    1  C5  UNL     1      -6.288   8.606  10.813  1.00  0.00     0.031 A 
HETATM    2  C6  UNL     1      -5.024   8.104  11.079  1.00  0.00     0.030 A 
HETATM    3  C7  UNL     1      -4.753   7.177  12.066  1.00  0.00     0.015 A 
HETATM    4  C8  UNL     1      -5.752   6.708  12.841  1.00  0.00    -0.021 A 
HETATM    5  C16 UNL     1      -7.065   7.191  12.614  1.00  0.00     0.015 A 
HETATM    6  C17 UNL     1      -7.292   8.088  11.648  1.00  0.00     0.030 A 
ENDROOT
BRANCH   4   7
HETATM    7  C9  UNL     1      -5.629   5.717  13.942  1.00  0.00     0.094 C 
BRANCH   7   8
HETATM    8  N3  UNL     1      -4.326   5.729  14.468  1.00  0.00    -0.394 N 
ATOM      9  H3  UNL     1      -3.903   6.563  14.875  1.00  0.00     0.159 HD
BRANCH   8  10
HETATM   10  C10 UNL     1      -3.639   4.473  14.386  1.00  0.00     0.159 C 
BRANCH  10  11
HETATM   11  C11 UNL     1      -2.657   4.489  13.299  1.00  0.00    -0.025 A 
HETATM   12  C12 UNL     1      -2.882   3.877  12.107  1.00  0.00     0.011 A 
HETATM   13  C13 UNL     1      -1.867   3.911  11.153  1.00  0.00     0.018 A 
HETATM   14  C14 UNL     1      -0.695   4.566  11.467  1.00  0.00     0.087 A 
HETATM   15  N4  UNL     1      -0.480   5.167  12.640  1.00  0.00    -0.375 N 
HETATM   16  C15 UNL     1      -1.463   5.128  13.554  1.00  0.00     0.096 A 
ATOM     17  H4  UNL     1       0.402   5.640  12.835  1.00  0.00     0.164 HD
ENDBRANCH  10  11
ENDBRANCH   8  10
ENDBRANCH   7   8
ENDBRANCH   4   7
BRANCH   1  18
HETATM   18  N2  UNL     1      -6.594   9.491   9.819  1.00  0.00    -0.370 N 
HETATM   19  C4  UNL     1      -7.227   9.656   8.837  1.00  0.00     0.061 C 
ATOM     20  H2  UNL     1      -6.070  10.348   9.996  1.00  0.00     0.165 HD
BRANCH  19  21
HETATM   21  C3  UNL     1      -8.141   8.771   8.141  1.00  0.00     0.046 C 
BRANCH  21  22
HETATM   22  C2  UNL     1      -7.740   7.349   7.942  1.00  0.00     0.032 C 
BRANCH  22  23
HETATM   23  C1  UNL     1      -6.569   7.070   7.080  1.00  0.00     0.230 C 
BRANCH  23  24
HETATM   24  N1  UNL     1      -6.533   5.896   6.315  1.00  0.00    -0.079 N 
ATOM     25  H13 UNL     1      -7.492   5.605   6.121  1.00  0.00     0.274 HD
ATOM     26  H12 UNL     1      -6.200   6.128   5.379  1.00  0.00     0.274 HD
ATOM     27  H11 UNL     1      -6.011   5.088   6.653  1.00  0.00     0.274 HD
ENDBRANCH  23  24
ENDBRANCH  22  23
ENDBRANCH  21  22
ENDBRANCH  19  21
ENDBRANCH   1  18
TORSDOF 9
ENDMDL
MODEL 5
REMARK VINA RESULT: -5.550401099      1.906      2.814
REMARK  9 active torsions:
REMARK  status: ('A' for Active; 'I' for Inactive)
REMARK    1  A    between atoms: N1_1  and  C1_5 
REMARK    2  A    between atoms: C1_5  and  C2_6 
REMARK    3  A    between atoms: C2_6  and  C3_7 
REMARK    4  A    between atoms: C3_7  and  C4_8 
REMARK    5  A    between atoms: N2_9  and  C5_11 
REMARK    6  A    between atoms: C8_14  and  C9_15 
REMARK    7  A    between atoms: C9_15  and  N3_16 
REMARK    8  A    between atoms: N3_16  and  C10_18 
REMARK    9  A    between atoms: C10_18  and  C11_19 
ROOT
HETATM    1  C5  UNL     1      -5.797   6.549   9.756  1.00  0.00     0.031 A 
HETATM    2  C6  UNL     1      -6.156   7.126  10.963  1.00  0.00     0.030 A 
HETATM    3  C7  UNL     1      -5.254   7.523  11.930  1.00  0.00     0.015 A 
HETATM    4  C8  UNL     1      -3.932   7.355  11.725  1.00  0.00    -0.021 A 
HETATM    5  C16 UNL     1      -3.508   6.766  10.507  1.00  0.00     0.015 A 
HETATM    6  C17 UNL     1      -4.410   6.395   9.591  1.00  0.00     0.030 A 
ENDROOT
BRANCH   4   7
HETATM    7  C9  UNL     1      -2.836   7.722  12.659  1.00  0.00     0.094 C 
BRANCH   7   8
HETATM    8  N3  UNL     1      -2.951   6.995  13.858  1.00  0.00    -0.394 N 
ATOM      9  H3  UNL     1      -3.505   7.320  14.649  1.00  0.00     0.159 HD
BRANCH   8  10
HETATM   10  C10 UNL     1      -2.225   5.758  13.876  1.00  0.00     0.159 C 
BRANCH  10  11
HETATM   11  C11 UNL     1      -3.113   4.633  13.570  1.00  0.00    -0.025 A 
HETATM   12  C12 UNL     1      -4.229   4.369  14.299  1.00  0.00     0.011 A 
HETATM   13  C13 UNL     1      -4.983   3.249  13.956  1.00  0.00     0.018 A 
HETATM   14  C14 UNL     1      -4.560   2.474  12.896  1.00  0.00     0.087 A 
HETATM   15  N4  UNL     1      -3.463   2.739  12.183  1.00  0.00    -0.375 N 
HETATM   16  C15 UNL     1      -2.742   3.820  12.521  1.00  0.00     0.096 A 
ATOM     17  H4  UNL     1      -3.182   2.140  11.407  1.00  0.00     0.164 HD
ENDBRANCH  10  11
ENDBRANCH   8  10
ENDBRANCH   7   8
ENDBRANCH   4   7
BRANCH   1  18
HETATM   18  N2  UNL     1      -6.662   6.185   8.764  1.00  0.00    -0.370 N 
HETATM   19  C4  UNL     1      -7.407   6.583   7.941  1.00  0.00     0.061 C 
ATOM     20  H2  UNL     1      -6.663   5.167   8.715  1.00  0.00     0.165 HD
BRANCH  19  21
HETATM   21  C3  UNL     1      -7.781   7.936   7.578  1.00  0.00     0.046 C 
BRANCH  21  22
HETATM   22  C2  UNL     1      -9.006   8.523   8.192  1.00  0.00     0.032 C 
BRANCH  22  23
HETATM   23  C1  UNL     1      -9.691   9.618   7.467  1.00  0.00     0.230 C 
BRANCH  23  24
HETATM   24  N1  UNL     1     -11.082   9.756   7.570  1.00  0.00    -0.079 N 
ATOM     25  H13 UNL     1     -11.409   9.177   8.344  1.00  0.00     0.274 HD
ATOM     26  H12 UNL     1     -11.291  10.692   7.917  1.00  0.00     0.274 HD
ATOM     27  H11 UNL     1     -11.670   9.573   6.757  1.00  0.00     0.274 HD
ENDBRANCH  23  24
ENDBRANCH  22  23
ENDBRANCH  21  22
ENDBRANCH  19  21
ENDBRANCH   1  18
TORSDOF 9
ENDMDL
