MODEL 1
REMARK VINA RESULT: -5.941775311      0.000      0.000
REMARK  8 active torsions:
REMARK  status: ('A' for Active; 'I' for Inactive)
REMARK    1  A    between atoms: C1_2  and  C2_3 
REMARK    2  A    between atoms: C5_6  and  N1_7 
REMARK    3  A    between atoms: N1_7  and  C6_9 
REMARK    4  A    between atoms: C6_9  and  C7_10 
REMARK    5  A    between atoms: C7_10  and  C8_11 
REMARK    6  A    between atoms: C8_11  and  N2_12 
REMARK    7  A    between atoms: N2_12  and  C9_14 
REMARK    8  A    between atoms: C12_17  and  O2_18 
ROOT
HETATM    1  C7  UNL     1      -3.111   4.875   9.013  1.00  0.00     0.039 C 
ENDROOT
BRANCH   1   2
HETATM    2  C6  UNL     1      -3.857   4.703  10.326  1.00  0.00     0.121 C 
BRANCH   2   3
HETATM    3  N1  UNL     1      -4.369   3.367  10.483  1.00  0.00    -0.390 N 
ATOM      4  H1  UNL     1      -4.668   2.830   9.669  1.00  0.00     0.159 HD
BRANCH   3   5
HETATM    5  C5  UNL     1      -4.453   2.812  11.772  1.00  0.00     0.028 A 
HETATM    6  C4  UNL     1      -4.544   3.605  12.897  1.00  0.00     0.030 A 
HETATM    7  C3  UNL     1      -4.629   3.127  14.175  1.00  0.00     0.017 A 
HETATM    8  C2  UNL     1      -4.623   1.743  14.337  1.00  0.00     0.002 A 
HETATM    9  C16 UNL     1      -4.534   0.903  13.265  1.00  0.00     0.017 A 
HETATM   10  C15 UNL     1      -4.450   1.436  11.991  1.00  0.00     0.030 A 
BRANCH   8  11
HETATM   11  C1  UNL     1      -4.714   1.233  15.705  1.00  0.00     0.269 C 
HETATM   12  O1  UNL     1      -4.002   0.258  16.051  1.00  0.00    -0.301 OA
ENDBRANCH   8  11
ENDBRANCH   3   5
ENDBRANCH   2   3
ENDBRANCH   1   2
BRANCH   1  13
HETATM   13  C8  UNL     1      -3.630   6.168   8.406  1.00  0.00     0.115 C 
BRANCH  13  14
HETATM   14  N2  UNL     1      -4.909   6.012   7.792  1.00  0.00    -0.417 N 
ATOM     15  H2  UNL     1      -5.154   5.196   7.233  1.00  0.00     0.153 HD
BRANCH  14  16
HETATM   16  C9  UNL     1      -5.817   7.085   8.021  1.00  0.00     0.076 C 
HETATM   17  C10 UNL     1      -6.543   7.483   6.767  1.00  0.00     0.027 C 
HETATM   18  C11 UNL     1      -7.566   8.544   6.927  1.00  0.00     0.034 C 
HETATM   19  C12 UNL     1      -8.231   8.665   8.244  1.00  0.00     0.118 C 
HETATM   20  C13 UNL     1      -7.542   8.038   9.407  1.00  0.00     0.034 C 
HETATM   21  C14 UNL     1      -6.898   6.715   9.036  1.00  0.00     0.027 C 
BRANCH  19  22
HETATM   22  O2  UNL     1      -9.567   8.224   8.224  1.00  0.00    -0.396 OA
ATOM     23  H2  UNL     1      -9.826   7.795   9.031  1.00  0.00     0.210 HD
ENDBRANCH  19  22
ENDBRANCH  14  16
ENDBRANCH  13  14
ENDBRANCH   1  13
TORSDOF 8
ENDMDL
MODEL 2
REMARK VINA RESULT: -5.884048684      0.970      1.157
REMARK  8 active torsions:
REMARK  status: ('A' for Active; 'I' for Inactive)
REMARK    1  A    between atoms: C1_2  and  C2_3 
REMARK    2  A    between atoms: C5_6  and  N1_7 
REMARK    3  A    between atoms: N1_7  and  C6_9 
REMARK    4  A    between atoms: C6_9  and  C7_10 
REMARK    5  A    between atoms: C7_10  and  C8_11 
REMARK    6  A    between atoms: C8_11  and  N2_12 
REMARK    7  A    between atoms: N2_12  and  C9_14 
REMARK    8  A    between atoms: C12_17  and  O2_18 
ROOT
HETATM    1  C7  UNL     1      -3.887   5.593   9.421  1.00  0.00     0.039 C 
ENDROOT
BRANCH   1   2
HETATM    2  C6  UNL     1      -3.336   4.456  10.266  1.00  0.00     0.121 C 
BRANCH   2   3
HETATM    3  N1  UNL     1      -4.322   3.434  10.503  1.00  0.00    -0.390 N 
ATOM      4  H1  UNL     1      -4.939   3.129   9.751  1.00  0.00     0.159 HD
BRANCH   3   5
HETATM    5  C5  UNL     1      -4.422   2.863  11.784  1.00  0.00     0.028 A 
HETATM    6  C4  UNL     1      -4.518   3.642  12.918  1.00  0.00     0.030 A 
HETATM    7  C3  UNL     1      -4.619   3.147  14.189  1.00  0.00     0.017 A 
HETATM    8  C2  UNL     1      -4.625   1.761  14.332  1.00  0.00     0.002 A 
HETATM    9  C16 UNL     1      -4.533   0.935  13.250  1.00  0.00     0.017 A 
HETATM   10  C15 UNL     1      -4.432   1.484  11.985  1.00  0.00     0.030 A 
BRANCH   8  11
HETATM   11  C1  UNL     1      -4.733   1.233  15.693  1.00  0.00     0.269 C 
HETATM   12  O1  UNL     1      -3.990   0.286  16.051  1.00  0.00    -0.301 OA
ENDBRANCH   8  11
ENDBRANCH   3   5
ENDBRANCH   2   3
ENDBRANCH   1   2
BRANCH   1  13
HETATM   13  C8  UNL     1      -5.226   5.960  10.040  1.00  0.00     0.115 C 
BRANCH  13  14
HETATM   14  N2  UNL     1      -6.281   6.005   9.081  1.00  0.00    -0.417 N 
ATOM     15  H2  UNL     1      -6.862   5.195   8.866  1.00  0.00     0.153 HD
BRANCH  14  16
HETATM   16  C9  UNL     1      -6.462   7.268   8.448  1.00  0.00     0.076 C 
HETATM   17  C10 UNL     1      -6.433   7.153   6.950  1.00  0.00     0.027 C 
HETATM   18  C11 UNL     1      -6.689   8.410   6.206  1.00  0.00     0.034 C 
HETATM   19  C12 UNL     1      -7.530   9.438   6.860  1.00  0.00     0.118 C 
HETATM   20  C13 UNL     1      -7.687   9.339   8.339  1.00  0.00     0.034 C 
HETATM   21  C14 UNL     1      -7.808   7.898   8.799  1.00  0.00     0.027 C 
BRANCH  19  22
HETATM   22  O2  UNL     1      -8.808   9.548   6.280  1.00  0.00    -0.396 OA
ATOM     23  H2  UNL     1      -9.428   8.921   6.634  1.00  0.00     0.210 HD
ENDBRANCH  19  22
ENDBRANCH  14  16
ENDBRANCH  13  14
ENDBRANCH   1  13
TORSDOF 8
ENDMDL
MODEL 3
REMARK VINA RESULT: -5.853155960      3.340      3.968
REMARK  8 active torsions:
REMARK  status: ('A' for Active; 'I' for Inactive)
REMARK    1  A    between atoms: C1_2  and  C2_3 
REMARK    2  A    between atoms: C5_6  and  N1_7 
REMARK    3  A    between atoms: N1_7  and  C6_9 
REMARK    4  A    between atoms: C6_9  and  C7_10 
REMARK    5  A    between atoms: C7_10  and  C8_11 
REMARK    6  A    between atoms: C8_11  and  N2_12 
REMARK    7  A    between atoms: N2_12  and  C9_14 
REMARK    8  A    between atoms: C12_17  and  O2_18 
ROOT
HETATM    1  C7  UNL     1      -2.072   8.126  13.796  1.00  0.00     0.039 C 
ENDROOT
BRANCH   1   2
HETATM    2  C6  UNL     1      -1.625   6.684  13.974  1.00  0.00     0.121 C 
BRANCH   2   3
HETATM    3  N1  UNL     1      -2.665   5.864  14.538  1.00  0.00    -0.390 N 
ATOM      4  H1  UNL     1      -3.030   6.060  15.470  1.00  0.00     0.159 HD
BRANCH   3   5
HETATM    5  C5  UNL     1      -3.171   4.787  13.787  1.00  0.00     0.028 A 
HETATM    6  C4  UNL     1      -4.302   4.101  14.177  1.00  0.00     0.030 A 
HETATM    7  C3  UNL     1      -4.843   3.049  13.491  1.00  0.00     0.017 A 
HETATM    8  C2  UNL     1      -4.198   2.656  12.321  1.00  0.00     0.002 A 
HETATM    9  C16 UNL     1      -3.075   3.293  11.880  1.00  0.00     0.017 A 
HETATM   10  C15 UNL     1      -2.566   4.352  12.610  1.00  0.00     0.030 A 
BRANCH   8  11
HETATM   11  C1  UNL     1      -4.779   1.530  11.588  1.00  0.00     0.269 C 
HETATM   12  O1  UNL     1      -4.666   1.482  10.337  1.00  0.00    -0.301 OA
ENDBRANCH   8  11
ENDBRANCH   3   5
ENDBRANCH   2   3
ENDBRANCH   1   2
BRANCH   1  13
HETATM   13  C8  UNL     1      -1.792   8.472  12.343  1.00  0.00     0.115 C 
BRANCH  13  14
HETATM   14  N2  UNL     1      -2.687   7.825  11.441  1.00  0.00    -0.417 N 
ATOM     15  H2  UNL     1      -2.366   7.206  10.697  1.00  0.00     0.153 HD
BRANCH  14  16
HETATM   16  C9  UNL     1      -4.066   8.109  11.659  1.00  0.00     0.076 C 
HETATM   17  C10 UNL     1      -4.549   9.239  10.795  1.00  0.00     0.027 C 
HETATM   18  C11 UNL     1      -5.994   9.554  10.901  1.00  0.00     0.034 C 
HETATM   19  C12 UNL     1      -6.913   8.455  11.274  1.00  0.00     0.118 C 
HETATM   20  C13 UNL     1      -6.305   7.263  11.930  1.00  0.00     0.034 C 
HETATM   21  C14 UNL     1      -4.957   6.913  11.329  1.00  0.00     0.027 C 
BRANCH  19  22
HETATM   22  O2  UNL     1      -7.707   8.018  10.198  1.00  0.00    -0.396 OA
ATOM     23  H2  UNL     1      -7.582   7.098   9.998  1.00  0.00     0.210 HD
ENDBRANCH  19  22
ENDBRANCH  14  16
ENDBRANCH  13  14
ENDBRANCH   1  13
TORSDOF 8
ENDMDL
MODEL 4
REMARK VINA RESULT: -5.777107048      4.125      5.660
REMARK  8 active torsions:
REMARK  status: ('A' for Active; 'I' for Inactive)
REMARK    1  A    between atoms: C1_2  and  C2_3 
REMARK    2  A    between atoms: C5_6  and  N1_7 
REMARK    3  A    between atoms: N1_7  and  C6_9 
REMARK    4  A    between atoms: C6_9  and  C7_10 
REMARK    5  A    between atoms: C7_10  and  C8_11 
REMARK    6  A    between atoms: C8_11  and  N2_12 
REMARK    7  A    between atoms: N2_12  and  C9_14 
REMARK    8  A    between atoms: C12_17  and  O2_18 
ROOT
HETATM    1  C7  UNL     1       0.104   7.530  11.492  1.00  0.00     0.039 C 
ENDROOT
BRANCH   1   2
HETATM    2  C6  UNL     1      -0.782   8.240  12.503  1.00  0.00     0.121 C 
BRANCH   2   3
HETATM    3  N1  UNL     1      -2.139   8.359  12.038  1.00  0.00    -0.390 N 
ATOM      4  H1  UNL     1      -2.377   9.024  11.302  1.00  0.00     0.159 HD
BRANCH   3   5
HETATM    5  C5  UNL     1      -3.134   7.548  12.614  1.00  0.00     0.028 A 
HETATM    6  C4  UNL     1      -4.373   7.396  12.027  1.00  0.00     0.030 A 
HETATM    7  C3  UNL     1      -5.379   6.622  12.535  1.00  0.00     0.017 A 
HETATM    8  C2  UNL     1      -5.120   5.947  13.726  1.00  0.00     0.002 A 
HETATM    9  C16 UNL     1      -3.915   6.055  14.357  1.00  0.00     0.017 A 
HETATM   10  C15 UNL     1      -2.929   6.851  13.802  1.00  0.00     0.030 A 
BRANCH   8  11
HETATM   11  C1  UNL     1      -6.198   5.119  14.269  1.00  0.00     0.269 C 
HETATM   12  O1  UNL     1      -6.135   3.869  14.157  1.00  0.00    -0.301 OA
ENDBRANCH   8  11
ENDBRANCH   3   5
ENDBRANCH   2   3
ENDBRANCH   1   2
BRANCH   1  13
HETATM   13  C8  UNL     1       0.304   6.123  12.030  1.00  0.00     0.115 C 
BRANCH  13  14
HETATM   14  N2  UNL     1      -0.124   5.118  11.113  1.00  0.00    -0.417 N 
ATOM     15  H2  UNL     1       0.513   4.663  10.460  1.00  0.00     0.153 HD
BRANCH  14  16
HETATM   16  C9  UNL     1      -1.511   4.798  11.179  1.00  0.00     0.076 C 
HETATM   17  C10 UNL     1      -2.179   4.920   9.839  1.00  0.00     0.027 C 
HETATM   18  C11 UNL     1      -3.609   4.532   9.798  1.00  0.00     0.034 C 
HETATM   19  C12 UNL     1      -4.077   3.524  10.777  1.00  0.00     0.118 C 
HETATM   20  C13 UNL     1      -3.225   3.306  11.979  1.00  0.00     0.034 C 
HETATM   21  C14 UNL     1      -1.746   3.361  11.640  1.00  0.00     0.027 C 
BRANCH  19  22
HETATM   22  O2  UNL     1      -4.349   2.276  10.187  1.00  0.00    -0.396 OA
ATOM     23  H2  UNL     1      -5.265   2.167   9.960  1.00  0.00     0.210 HD
ENDBRANCH  19  22
ENDBRANCH  14  16
ENDBRANCH  13  14
ENDBRANCH   1  13
TORSDOF 8
ENDMDL
MODEL 5
REMARK VINA RESULT: -5.716408786      4.377      5.625
REMARK  8 active torsions:
REMARK  status: ('A' for Active; 'I' for Inactive)
REMARK    1  A    between atoms: C1_2  and  C2_3 
REMARK    2  A    between atoms: C5_6  and  N1_7 
REMARK    3  A    between atoms: N1_7  and  C6_9 
REMARK    4  A    between atoms: C6_9  and  C7_10 
REMARK    5  A    between atoms: C7_10  and  C8_11 
REMARK    6  A    between atoms: C8_11  and  N2_12 
REMARK    7  A    between atoms: N2_12  and  C9_14 
REMARK    8  A    between atoms: C12_17  and  O2_18 
ROOT
HETATM    1  C7  UNL     1      -2.286   4.842  10.768  1.00  0.00     0.039 C 
ENDROOT
BRANCH   1   2
HETATM    2  C6  UNL     1      -3.056   3.743  10.055  1.00  0.00     0.121 C 
BRANCH   2   3
HETATM    3  N1  UNL     1      -4.365   3.547  10.622  1.00  0.00    -0.390 N 
ATOM      4  H1  UNL     1      -5.200   3.801  10.094  1.00  0.00     0.159 HD
BRANCH   3   5
HETATM    5  C5  UNL     1      -4.477   3.002  11.914  1.00  0.00     0.028 A 
HETATM    6  C4  UNL     1      -4.406   1.643  12.135  1.00  0.00     0.030 A 
HETATM    7  C3  UNL     1      -4.506   1.053  13.364  1.00  0.00     0.017 A 
HETATM    8  C2  UNL     1      -4.692   1.895  14.459  1.00  0.00     0.002 A 
HETATM    9  C16 UNL     1      -4.771   3.249  14.308  1.00  0.00     0.017 A 
HETATM   10  C15 UNL     1      -4.664   3.798  13.043  1.00  0.00     0.030 A 
BRANCH   8  11
HETATM   11  C1  UNL     1      -4.799   1.263  15.774  1.00  0.00     0.269 C 
HETATM   12  O1  UNL     1      -3.970   0.379  16.106  1.00  0.00    -0.301 OA
ENDBRANCH   8  11
ENDBRANCH   3   5
ENDBRANCH   2   3
ENDBRANCH   1   2
BRANCH   1  13
HETATM   13  C8  UNL     1      -1.105   4.157  11.434  1.00  0.00     0.115 C 
BRANCH  13  14
HETATM   14  N2  UNL     1      -0.953   4.531  12.803  1.00  0.00    -0.417 N 
ATOM     15  H2  UNL     1      -0.534   3.913  13.498  1.00  0.00     0.153 HD
BRANCH  14  16
HETATM   16  C9  UNL     1      -1.433   5.833  13.125  1.00  0.00     0.076 C 
HETATM   17  C10 UNL     1      -1.749   5.968  14.588  1.00  0.00     0.027 C 
HETATM   18  C11 UNL     1      -2.183   7.316  15.027  1.00  0.00     0.034 C 
HETATM   19  C12 UNL     1      -1.692   8.482  14.259  1.00  0.00     0.118 C 
HETATM   20  C13 UNL     1      -1.181   8.216  12.885  1.00  0.00     0.034 C 
HETATM   21  C14 UNL     1      -0.402   6.916  12.813  1.00  0.00     0.027 C 
BRANCH  19  22
HETATM   22  O2  UNL     1      -0.727   9.230  14.959  1.00  0.00    -0.396 OA
ATOM     23  H2  UNL     1      -0.404   9.972  14.462  1.00  0.00     0.210 HD
ENDBRANCH  19  22
ENDBRANCH  14  16
ENDBRANCH  13  14
ENDBRANCH   1  13
TORSDOF 8
ENDMDL
