MODEL 1
REMARK VINA RESULT: -6.016302604      0.000      0.000
REMARK  8 active torsions:
REMARK  status: ('A' for Active; 'I' for Inactive)
REMARK    1  A    between atoms: C3_8  and  C4_9 
REMARK    2  A    between atoms: C5_10  and  C6_11 
REMARK    3  A    between atoms: C6_11  and  C7_12 
REMARK    4  A    between atoms: C7_12  and  C8_13 
REMARK    5  A    between atoms: C8_13  and  C9_14 
REMARK    6  A    between atoms: C9_14  and  N3_15 
REMARK    7  A    between atoms: N3_15  and  C10_18 
REMARK    8  A    between atoms: C15_23  and  O1_24 
ROOT
HETATM    1  C7  UNL     1      -6.963   8.268  10.493  1.00  0.00     0.005 C 
ENDROOT
BRANCH   1   2
HETATM    2  C6  UNL     1      -7.208   7.788  11.902  1.00  0.00     0.027 C 
BRANCH   2   3
HETATM    3  C5  UNL     1      -5.913   7.248  12.412  1.00  0.00    -0.026 C 
HETATM    4  C4  UNL     1      -5.929   6.232  13.242  1.00  0.00     0.011 C 
BRANCH   4   5
HETATM    5  C3  UNL     1      -4.695   5.640  13.789  1.00  0.00     0.002 A 
HETATM    6  C2  UNL     1      -4.568   4.298  14.055  1.00  0.00     0.104 A 
HETATM    7  N2  UNL     1      -3.431   3.815  14.554  1.00  0.00    -0.332 N 
HETATM    8  C1  UNL     1      -2.413   4.658  14.792  1.00  0.00     0.221 A 
ATOM      9  H2  UNL     1      -3.336   2.819  14.753  1.00  0.00     0.168 HD
HETATM   10  N1  UNL     1      -1.287   4.205  15.283  1.00  0.00    -0.365 N 
HETATM   11  O2  UNL     1      -2.515   5.941  14.544  1.00  0.00    -0.291 OA
ATOM     12  H12 UNL     1      -1.208   3.207  15.476  1.00  0.00     0.159 HD
ATOM     13  H11 UNL     1      -0.513   4.846  15.463  1.00  0.00     0.159 HD
HETATM   14  C16 UNL     1      -3.599   6.455  14.059  1.00  0.00     0.158 A 
ENDBRANCH   4   5
ENDBRANCH   2   3
ENDBRANCH   1   2
BRANCH   1  15
HETATM   15  C8  UNL     1      -6.880   7.102   9.557  1.00  0.00     0.028 C 
BRANCH  15  16
HETATM   16  C9  UNL     1      -5.487   6.933   9.036  1.00  0.00     0.233 C 
BRANCH  16  17
HETATM   17  N3  UNL     1      -5.053   5.545   9.118  1.00  0.00    -0.069 N 
ATOM     18  H32 UNL     1      -5.827   4.905   9.300  1.00  0.00     0.277 HD
ATOM     19  H31 UNL     1      -4.771   5.172   8.212  1.00  0.00     0.277 HD
BRANCH  17  20
HETATM   20  C10 UNL     1      -4.009   5.437  10.104  1.00  0.00     0.214 C 
HETATM   21  C11 UNL     1      -3.106   6.636  10.005  1.00  0.00     0.036 C 
HETATM   22  C12 UNL     1      -1.667   6.349  10.257  1.00  0.00     0.002 C 
HETATM   23  C13 UNL     1      -1.394   5.289  11.286  1.00  0.00     0.003 C 
HETATM   24  C14 UNL     1      -2.222   4.047  11.077  1.00  0.00     0.034 C 
HETATM   25  C15 UNL     1      -3.172   4.195   9.909  1.00  0.00     0.148 C 
BRANCH  25  26
HETATM   26  O1  UNL     1      -4.077   3.127   9.859  1.00  0.00    -0.393 OA
ATOM     27  H1  UNL     1      -3.713   2.506   9.238  1.00  0.00     0.210 HD
ENDBRANCH  25  26
ENDBRANCH  17  20
ENDBRANCH  16  17
ENDBRANCH  15  16
ENDBRANCH   1  15
TORSDOF 8
ENDMDL
MODEL 2
REMARK VINA RESULT: -5.858593811      3.723      5.746
REMARK  8 active torsions:
REMARK  status: ('A' for Active; 'I' for Inactive)
REMARK    1  A    between atoms: C3_8  and  C4_9 
REMARK    2  A    between atoms: C5_10  and  C6_11 
REMARK    3  A    between atoms: C6_11  and  C7_12 
REMARK    4  A    between atoms: C7_12  and  C8_13 
REMARK    5  A    between atoms: C8_13  and  C9_14 
REMARK    6  A    between atoms: C9_14  and  N3_15 
REMARK    7  A    between atoms: N3_15  and  C10_18 
REMARK    8  A    between atoms: C15_23  and  O1_24 
ROOT
HETATM    1  C7  UNL     1      -6.970   8.384  10.322  1.00  0.00     0.005 C 
ENDROOT
BRANCH   1   2
HETATM    2  C6  UNL     1      -7.211   7.835  11.706  1.00  0.00     0.027 C 
BRANCH   2   3
HETATM    3  C5  UNL     1      -5.928   7.229  12.166  1.00  0.00    -0.026 C 
HETATM    4  C4  UNL     1      -5.940   6.416  13.195  1.00  0.00     0.011 C 
BRANCH   4   5
HETATM    5  C3  UNL     1      -4.716   5.776  13.711  1.00  0.00     0.002 A 
HETATM    6  C2  UNL     1      -4.643   4.435  14.000  1.00  0.00     0.104 A 
HETATM    7  N2  UNL     1      -3.513   3.908  14.469  1.00  0.00    -0.332 N 
HETATM    8  C1  UNL     1      -2.448   4.705  14.652  1.00  0.00     0.221 A 
ATOM      9  H2  UNL     1      -3.457   2.912  14.685  1.00  0.00     0.168 HD
HETATM   10  N1  UNL     1      -1.327   4.208  15.112  1.00  0.00    -0.365 N 
HETATM   11  O2  UNL     1      -2.498   5.986  14.382  1.00  0.00    -0.291 OA
ATOM     12  H12 UNL     1      -1.288   3.211  15.323  1.00  0.00     0.159 HD
ATOM     13  H11 UNL     1      -0.518   4.814  15.252  1.00  0.00     0.159 HD
HETATM   14  C16 UNL     1      -3.574   6.542  13.925  1.00  0.00     0.158 A 
ENDBRANCH   4   5
ENDBRANCH   2   3
ENDBRANCH   1   2
BRANCH   1  15
HETATM   15  C8  UNL     1      -7.146   7.304   9.299  1.00  0.00     0.028 C 
BRANCH  15  16
HETATM   16  C9  UNL     1      -7.724   7.856   8.034  1.00  0.00     0.233 C 
BRANCH  16  17
HETATM   17  N3  UNL     1      -8.990   8.534   8.278  1.00  0.00    -0.069 N 
ATOM     18  H32 UNL     1      -9.783   7.893   8.269  1.00  0.00     0.277 HD
ATOM     19  H31 UNL     1      -9.078   8.856   9.242  1.00  0.00     0.277 HD
BRANCH  17  20
HETATM   20  C10 UNL     1      -9.139   9.605   7.327  1.00  0.00     0.214 C 
HETATM   21  C11 UNL     1      -7.970  10.545   7.448  1.00  0.00     0.036 C 
HETATM   22  C12 UNL     1      -8.307  11.981   7.244  1.00  0.00     0.002 C 
HETATM   23  C13 UNL     1      -9.383  12.251   6.231  1.00  0.00     0.003 C 
HETATM   24  C14 UNL     1     -10.594  11.375   6.421  1.00  0.00     0.034 C 
HETATM   25  C15 UNL     1     -10.407  10.394   7.556  1.00  0.00     0.148 C 
BRANCH  25  26
HETATM   26  O1  UNL     1     -11.444   9.452   7.584  1.00  0.00    -0.393 OA
ATOM     27  H1  UNL     1     -12.181   9.889   7.994  1.00  0.00     0.210 HD
ENDBRANCH  25  26
ENDBRANCH  17  20
ENDBRANCH  16  17
ENDBRANCH  15  16
ENDBRANCH   1  15
TORSDOF 8
ENDMDL
MODEL 3
REMARK VINA RESULT: -5.792025392      3.791      5.846
REMARK  8 active torsions:
REMARK  status: ('A' for Active; 'I' for Inactive)
REMARK    1  A    between atoms: C3_8  and  C4_9 
REMARK    2  A    between atoms: C5_10  and  C6_11 
REMARK    3  A    between atoms: C6_11  and  C7_12 
REMARK    4  A    between atoms: C7_12  and  C8_13 
REMARK    5  A    between atoms: C8_13  and  C9_14 
REMARK    6  A    between atoms: C9_14  and  N3_15 
REMARK    7  A    between atoms: N3_15  and  C10_18 
REMARK    8  A    between atoms: C15_23  and  O1_24 
ROOT
HETATM    1  C7  UNL     1      -6.969   8.366  10.303  1.00  0.00     0.005 C 
ENDROOT
BRANCH   1   2
HETATM    2  C6  UNL     1      -7.203   7.790  11.678  1.00  0.00     0.027 C 
BRANCH   2   3
HETATM    3  C5  UNL     1      -5.889   7.282  12.168  1.00  0.00    -0.026 C 
HETATM    4  C4  UNL     1      -5.869   6.386  13.126  1.00  0.00     0.011 C 
BRANCH   4   5
HETATM    5  C3  UNL     1      -4.613   5.833  13.665  1.00  0.00     0.002 A 
HETATM    6  C2  UNL     1      -3.473   6.585  13.814  1.00  0.00     0.104 A 
HETATM    7  N2  UNL     1      -2.362   6.035  14.302  1.00  0.00    -0.332 N 
HETATM    8  C1  UNL     1      -2.374   4.737  14.646  1.00  0.00     0.221 A 
ATOM      9  H2  UNL     1      -1.515   6.592  14.412  1.00  0.00     0.168 HD
HETATM   10  N1  UNL     1      -1.294   4.175  15.127  1.00  0.00    -0.365 N 
HETATM   11  O2  UNL     1      -3.452   4.003  14.512  1.00  0.00    -0.291 OA
ATOM     12  H12 UNL     1      -0.455   4.746  15.232  1.00  0.00     0.159 HD
ATOM     13  H11 UNL     1      -1.303   3.189  15.389  1.00  0.00     0.159 HD
HETATM   14  C16 UNL     1      -4.553   4.495  14.043  1.00  0.00     0.158 A 
ENDBRANCH   4   5
ENDBRANCH   2   3
ENDBRANCH   1   2
BRANCH   1  15
HETATM   15  C8  UNL     1      -7.134   7.303   9.262  1.00  0.00     0.028 C 
BRANCH  15  16
HETATM   16  C9  UNL     1      -7.720   7.871   8.007  1.00  0.00     0.233 C 
BRANCH  16  17
HETATM   17  N3  UNL     1      -8.986   8.542   8.266  1.00  0.00    -0.069 N 
ATOM     18  H32 UNL     1      -9.777   7.899   8.254  1.00  0.00     0.277 HD
ATOM     19  H31 UNL     1      -9.070   8.853   9.234  1.00  0.00     0.277 HD
BRANCH  17  20
HETATM   20  C10 UNL     1      -9.144   9.623   7.328  1.00  0.00     0.214 C 
HETATM   21  C11 UNL     1      -7.989  10.577   7.467  1.00  0.00     0.036 C 
HETATM   22  C12 UNL     1      -8.344  12.010   7.279  1.00  0.00     0.002 C 
HETATM   23  C13 UNL     1      -9.418  12.279   6.264  1.00  0.00     0.003 C 
HETATM   24  C14 UNL     1     -10.619  11.385   6.437  1.00  0.00     0.034 C 
HETATM   25  C15 UNL     1     -10.424  10.392   7.560  1.00  0.00     0.148 C 
BRANCH  25  26
HETATM   26  O1  UNL     1     -11.449   9.436   7.571  1.00  0.00    -0.393 OA
ATOM     27  H1  UNL     1     -12.258   9.923   7.673  1.00  0.00     0.210 HD
ENDBRANCH  25  26
ENDBRANCH  17  20
ENDBRANCH  16  17
ENDBRANCH  15  16
ENDBRANCH   1  15
TORSDOF 8
ENDMDL
MODEL 4
REMARK VINA RESULT: -5.633734521      2.927      5.269
REMARK  8 active torsions:
REMARK  status: ('A' for Active; 'I' for Inactive)
REMARK    1  A    between atoms: C3_8  and  C4_9 
REMARK    2  A    between atoms: C5_10  and  C6_11 
REMARK    3  A    between atoms: C6_11  and  C7_12 
REMARK    4  A    between atoms: C7_12  and  C8_13 
REMARK    5  A    between atoms: C8_13  and  C9_14 
REMARK    6  A    between atoms: C9_14  and  N3_15 
REMARK    7  A    between atoms: N3_15  and  C10_18 
REMARK    8  A    between atoms: C15_23  and  O1_24 
ROOT
HETATM    1  C7  UNL     1      -4.577   2.395  11.014  1.00  0.00     0.005 C 
ENDROOT
BRANCH   1   2
HETATM    2  C6  UNL     1      -4.020   3.698  10.496  1.00  0.00     0.027 C 
BRANCH   2   3
HETATM    3  C5  UNL     1      -2.584   3.750  10.898  1.00  0.00    -0.026 C 
HETATM    4  C4  UNL     1      -1.865   4.793  10.558  1.00  0.00     0.011 C 
BRANCH   4   5
HETATM    5  C3  UNL     1      -0.440   4.922  10.917  1.00  0.00     0.002 A 
HETATM    6  C2  UNL     1       0.462   3.898  10.758  1.00  0.00     0.104 A 
HETATM    7  N2  UNL     1       1.737   4.065  11.104  1.00  0.00    -0.332 N 
HETATM    8  C1  UNL     1       2.127   5.247  11.607  1.00  0.00     0.221 A 
ATOM      9  H2  UNL     1       2.408   3.305  10.987  1.00  0.00     0.168 HD
HETATM   10  N1  UNL     1       3.376   5.434  11.954  1.00  0.00    -0.365 N 
HETATM   11  O2  UNL     1       1.282   6.236  11.766  1.00  0.00    -0.291 OA
ATOM     12  H12 UNL     1       4.034   4.664  11.831  1.00  0.00     0.159 HD
ATOM     13  H11 UNL     1       3.672   6.332  12.337  1.00  0.00     0.159 HD
HETATM   14  C16 UNL     1       0.033   6.119  11.445  1.00  0.00     0.158 A 
ENDBRANCH   4   5
ENDBRANCH   2   3
ENDBRANCH   1   2
BRANCH   1  15
HETATM   15  C8  UNL     1      -4.040   2.111  12.383  1.00  0.00     0.028 C 
BRANCH  15  16
HETATM   16  C9  UNL     1      -4.703   2.978  13.407  1.00  0.00     0.233 C 
BRANCH  16  17
HETATM   17  N3  UNL     1      -3.839   3.195  14.560  1.00  0.00    -0.069 N 
ATOM     18  H32 UNL     1      -4.233   2.812  15.419  1.00  0.00     0.277 HD
ATOM     19  H31 UNL     1      -2.994   2.626  14.524  1.00  0.00     0.277 HD
BRANCH  17  20
HETATM   20  C10 UNL     1      -3.549   4.602  14.670  1.00  0.00     0.214 C 
HETATM   21  C11 UNL     1      -4.464   5.372  13.758  1.00  0.00     0.036 C 
HETATM   22  C12 UNL     1      -3.840   6.560  13.115  1.00  0.00     0.002 C 
HETATM   23  C13 UNL     1      -2.832   7.292  13.955  1.00  0.00     0.003 C 
HETATM   24  C14 UNL     1      -1.831   6.367  14.599  1.00  0.00     0.034 C 
HETATM   25  C15 UNL     1      -2.122   4.917  14.285  1.00  0.00     0.148 C 
BRANCH  25  26
HETATM   26  O1  UNL     1      -1.320   4.065  15.056  1.00  0.00    -0.393 OA
ATOM     27  H1  UNL     1      -0.914   3.463  14.443  1.00  0.00     0.210 HD
ENDBRANCH  25  26
ENDBRANCH  17  20
ENDBRANCH  16  17
ENDBRANCH  15  16
ENDBRANCH   1  15
TORSDOF 8
ENDMDL
MODEL 5
REMARK VINA RESULT: -5.622253931      1.705      4.126
REMARK  8 active torsions:
REMARK  status: ('A' for Active; 'I' for Inactive)
REMARK    1  A    between atoms: C3_8  and  C4_9 
REMARK    2  A    between atoms: C5_10  and  C6_11 
REMARK    3  A    between atoms: C6_11  and  C7_12 
REMARK    4  A    between atoms: C7_12  and  C8_13 
REMARK    5  A    between atoms: C8_13  and  C9_14 
REMARK    6  A    between atoms: C9_14  and  N3_15 
REMARK    7  A    between atoms: N3_15  and  C10_18 
REMARK    8  A    between atoms: C15_23  and  O1_24 
ROOT
HETATM    1  C7  UNL     1      -3.391   6.312   7.477  1.00  0.00     0.005 C 
ENDROOT
BRANCH   1   2
HETATM    2  C6  UNL     1      -2.701   4.972   7.419  1.00  0.00     0.027 C 
BRANCH   2   3
HETATM    3  C5  UNL     1      -2.430   4.558   8.826  1.00  0.00    -0.026 C 
HETATM    4  C4  UNL     1      -2.270   5.483   9.743  1.00  0.00     0.011 C 
BRANCH   4   5
HETATM    5  C3  UNL     1      -2.001   5.158  11.156  1.00  0.00     0.002 A 
HETATM    6  C2  UNL     1      -1.155   4.145  11.537  1.00  0.00     0.104 A 
HETATM    7  N2  UNL     1      -0.949   3.889  12.828  1.00  0.00    -0.332 N 
HETATM    8  C1  UNL     1      -1.580   4.635  13.749  1.00  0.00     0.221 A 
ATOM      9  H2  UNL     1      -0.322   3.136  13.112  1.00  0.00     0.168 HD
HETATM   10  N1  UNL     1      -1.394   4.401  15.023  1.00  0.00    -0.365 N 
HETATM   11  O2  UNL     1      -2.390   5.606  13.405  1.00  0.00    -0.291 OA
ATOM     12  H12 UNL     1      -0.763   3.645  15.291  1.00  0.00     0.159 HD
ATOM     13  H11 UNL     1      -1.873   4.968  15.723  1.00  0.00     0.159 HD
HETATM   14  C16 UNL     1      -2.620   5.890  12.164  1.00  0.00     0.158 A 
ENDBRANCH   4   5
ENDBRANCH   2   3
ENDBRANCH   1   2
BRANCH   1  15
HETATM   15  C8  UNL     1      -4.588   6.316   6.577  1.00  0.00     0.028 C 
BRANCH  15  16
HETATM   16  C9  UNL     1      -5.688   7.151   7.155  1.00  0.00     0.233 C 
BRANCH  16  17
HETATM   17  N3  UNL     1      -6.662   6.331   7.864  1.00  0.00    -0.069 N 
ATOM     18  H32 UNL     1      -7.502   6.161   7.311  1.00  0.00     0.277 HD
ATOM     19  H31 UNL     1      -6.357   5.363   7.961  1.00  0.00     0.277 HD
BRANCH  17  20
HETATM   20  C10 UNL     1      -6.955   6.944   9.134  1.00  0.00     0.214 C 
HETATM   21  C11 UNL     1      -7.085   8.431   8.950  1.00  0.00     0.036 C 
HETATM   22  C12 UNL     1      -6.561   9.243  10.083  1.00  0.00     0.002 C 
HETATM   23  C13 UNL     1      -6.743   8.638  11.446  1.00  0.00     0.003 C 
HETATM   24  C14 UNL     1      -6.321   7.192  11.502  1.00  0.00     0.034 C 
HETATM   25  C15 UNL     1      -5.868   6.686  10.151  1.00  0.00     0.148 C 
BRANCH  25  26
HETATM   26  O1  UNL     1      -5.683   5.297  10.171  1.00  0.00    -0.393 OA
ATOM     27  H1  UNL     1      -5.651   5.051  11.088  1.00  0.00     0.210 HD
ENDBRANCH  25  26
ENDBRANCH  17  20
ENDBRANCH  16  17
ENDBRANCH  15  16
ENDBRANCH   1  15
TORSDOF 8
ENDMDL
