MODEL 1
REMARK VINA RESULT: -9.102596090      0.000      0.000
REMARK  9 active torsions:
REMARK  status: ('A' for Active; 'I' for Inactive)
REMARK    1  A    between atoms: C3_5  and  C4_6 
REMARK    2  A    between atoms: C4_6  and  O1_9 
REMARK    3  A    between atoms: C7_12  and  N3_13 
REMARK       I    between atoms: N3_13  and  C8_15 
REMARK    4  A    between atoms: C8_15  and  C9_17 
REMARK    5  A    between atoms: N5_23  and  C12_24 
REMARK    6  A    between atoms: C13_27  and  N7_28 
REMARK    7  A    between atoms: N7_28  and  C14_30 
REMARK    8  A    between atoms: C18_36  and  N9_37 
REMARK    9  A    between atoms: N9_37  and  C19_39 
ROOT
HETATM    1  C9  UNL     1      18.735  36.465  50.894  1.00  0.00     0.393 C 
HETATM    2  N4  UNL     1      18.155  35.089  50.616  1.00  0.00    -0.043 N 
ATOM      3  H41 UNL     1      18.206  34.711  49.670  1.00  0.00     0.280 HD
ATOM      4  H42 UNL     1      17.142  34.965  50.631  1.00  0.00     0.280 HD
HETATM    5  C10 UNL     1      18.986  34.460  51.703  1.00  0.00     0.255 C 
HETATM    6  C11 UNL     1      18.431  35.289  52.792  1.00  0.00     0.171 C 
HETATM    7  N5  UNL     1      18.160  36.667  52.107  1.00  0.00    -0.176 N 
ENDROOT
BRANCH   7   8
HETATM    8  C12 UNL     1      17.569  37.548  53.041  1.00  0.00     0.711 A 
HETATM    9  N6  UNL     1      18.156  38.526  53.697  1.00  0.00    -0.021 N 
HETATM   10  C13 UNL     1      17.578  39.292  54.688  1.00  0.00     0.707 A 
ATOM     11  H6  UNL     1      19.123  38.737  53.451  1.00  0.00     0.203 HD
HETATM   12  N8  UNL     1      16.311  39.005  55.020  1.00  0.00    -0.021 N 
HETATM   13  C18 UNL     1      15.620  37.990  54.389  1.00  0.00     0.707 A 
ATOM     14  H8  UNL     1      15.850  39.547  55.751  1.00  0.00     0.203 HD
HETATM   15  N10 UNL     1      16.263  37.309  53.426  1.00  0.00    -0.021 N 
ATOM     16  H10 UNL     1      15.755  36.565  52.948  1.00  0.00     0.203 HD
BRANCH  10  17
HETATM   17  N7  UNL     1      18.337  40.085  55.236  1.00  0.00    -0.217 N 
ATOM     18  H7  UNL     1      18.004  41.033  55.059  1.00  0.00     0.178 HD
BRANCH  17  19
HETATM   19  C14 UNL     1      19.479  40.150  56.006  1.00  0.00     0.036 C 
HETATM   20  C15 UNL     1      19.357  41.394  56.973  1.00  0.00     0.038 C 
HETATM   21  C16 UNL     1      20.770  40.283  55.274  1.00  0.00     0.038 C 
HETATM   22  C17 UNL     1      19.603  38.928  56.911  1.00  0.00     0.038 C 
ENDBRANCH  17  19
ENDBRANCH  10  17
BRANCH  13  23
HETATM   23  N9  UNL     1      14.459  37.679  54.818  1.00  0.00    -0.220 N 
ATOM     24  H9  UNL     1      14.296  36.682  54.685  1.00  0.00     0.178 HD
BRANCH  23  25
HETATM   25  C19 UNL     1      13.386  38.247  55.389  1.00  0.00     0.103 C 
HETATM   26  C20 UNL     1      12.130  37.446  54.783  1.00  0.00     0.052 C 
HETATM   27  C21 UNL     1      10.936  38.371  54.916  1.00  0.00     0.169 C 
HETATM   28  O3  UNL     1      10.727  38.664  56.247  1.00  0.00    -0.391 OA
HETATM   29  C22 UNL     1      11.768  39.171  56.950  1.00  0.00     0.169 C 
HETATM   30  C23 UNL     1      13.056  38.364  56.808  1.00  0.00     0.052 C 
ENDBRANCH  23  25
ENDBRANCH  13  23
ENDBRANCH   7   8
BRANCH   1  31
HETATM   31  C8  UNL     1      17.860  37.252  49.592  1.00  0.00     0.274 C 
HETATM   32  N3  UNL     1      18.818  38.190  49.463  1.00  0.00    -0.304 N 
ATOM     33  H3  UNL     1      18.811  39.067  49.984  1.00  0.00     0.171 HD
HETATM   34  O2  UNL     1      17.026  36.428  49.711  1.00  0.00    -0.269 OA
BRANCH  32  35
HETATM   35  C7  UNL     1      19.796  37.867  48.577  1.00  0.00     0.155 A 
HETATM   36  N1  UNL     1      21.095  38.060  48.572  1.00  0.00    -0.319 N 
HETATM   37  C1  UNL     1      21.737  38.669  49.768  1.00  0.00     0.159 C 
HETATM   38  C2  UNL     1      21.793  37.707  47.525  1.00  0.00     0.136 A 
HETATM   39  N2  UNL     1      23.262  37.761  47.498  1.00  0.00    -0.081 NA
HETATM   40  C3  UNL     1      21.123  37.132  46.439  1.00  0.00     0.061 A 
HETATM   41  S1  UNL     1      19.509  37.164  47.061  1.00  0.00    -0.052 SA
BRANCH  40  42
HETATM   42  C4  UNL     1      21.640  36.551  45.177  1.00  0.00     0.087 C 
HETATM   43  C5  UNL     1      20.317  36.496  44.282  1.00  0.00     0.051 C 
HETATM   44  C6  UNL     1      22.033  35.137  45.286  1.00  0.00     0.051 C 
BRANCH  42  45
HETATM   45  O1  UNL     1      22.497  37.420  44.524  1.00  0.00    -0.385 OA
ATOM     46  H1  UNL     1      22.260  37.529  43.611  1.00  0.00     0.211 HD
ENDBRANCH  42  45
ENDBRANCH  40  42
ENDBRANCH  32  35
ENDBRANCH   1  31
TORSDOF 9
ENDMDL
MODEL 2
REMARK VINA RESULT: -8.993791223      1.650      2.295
REMARK  9 active torsions:
REMARK  status: ('A' for Active; 'I' for Inactive)
REMARK    1  A    between atoms: C3_5  and  C4_6 
REMARK    2  A    between atoms: C4_6  and  O1_9 
REMARK    3  A    between atoms: C7_12  and  N3_13 
REMARK       I    between atoms: N3_13  and  C8_15 
REMARK    4  A    between atoms: C8_15  and  C9_17 
REMARK    5  A    between atoms: N5_23  and  C12_24 
REMARK    6  A    between atoms: C13_27  and  N7_28 
REMARK    7  A    between atoms: N7_28  and  C14_30 
REMARK    8  A    between atoms: C18_36  and  N9_37 
REMARK    9  A    between atoms: N9_37  and  C19_39 
ROOT
HETATM    1  C9  UNL     1      18.403  37.201  50.334  1.00  0.00     0.393 C 
HETATM    2  N4  UNL     1      18.023  37.928  49.056  1.00  0.00    -0.043 N 
ATOM      3  H41 UNL     1      18.655  37.888  48.256  1.00  0.00     0.280 HD
ATOM      4  H42 UNL     1      18.039  38.948  49.041  1.00  0.00     0.280 HD
HETATM    5  C10 UNL     1      16.699  37.214  48.979  1.00  0.00     0.255 C 
HETATM    6  C11 UNL     1      16.207  37.707  50.283  1.00  0.00     0.171 C 
HETATM    7  N5  UNL     1      17.499  37.791  51.158  1.00  0.00    -0.176 N 
ENDROOT
BRANCH   7   8
HETATM    8  C12 UNL     1      17.171  38.307  52.432  1.00  0.00     0.711 A 
HETATM    9  N6  UNL     1      17.901  39.104  53.182  1.00  0.00    -0.021 N 
HETATM   10  C13 UNL     1      17.601  39.496  54.470  1.00  0.00     0.707 A 
ATOM     11  H6  UNL     1      18.764  39.464  52.776  1.00  0.00     0.203 HD
HETATM   12  N8  UNL     1      16.473  39.012  55.008  1.00  0.00    -0.021 N 
HETATM   13  C18 UNL     1      15.649  38.163  54.296  1.00  0.00     0.707 A 
ATOM     14  H8  UNL     1      16.218  39.275  55.961  1.00  0.00     0.203 HD
HETATM   15  N10 UNL     1      16.019  37.849  53.043  1.00  0.00    -0.021 N 
ATOM     16  H10 UNL     1      15.409  37.232  52.507  1.00  0.00     0.203 HD
BRANCH  10  17
HETATM   17  N7  UNL     1      18.470  40.163  55.022  1.00  0.00    -0.217 N 
ATOM     18  H7  UNL     1      18.413  41.123  54.682  1.00  0.00     0.178 HD
BRANCH  17  19
HETATM   19  C14 UNL     1      19.498  40.077  55.939  1.00  0.00     0.036 C 
HETATM   20  C15 UNL     1      20.864  40.287  55.176  1.00  0.00     0.038 C 
HETATM   21  C16 UNL     1      19.606  38.802  56.700  1.00  0.00     0.038 C 
HETATM   22  C17 UNL     1      19.414  41.204  56.965  1.00  0.00     0.038 C 
ENDBRANCH  17  19
ENDBRANCH  10  17
BRANCH  13  23
HETATM   23  N9  UNL     1      14.650  37.637  54.890  1.00  0.00    -0.220 N 
ATOM     24  H9  UNL     1      14.802  36.636  55.005  1.00  0.00     0.178 HD
BRANCH  23  25
HETATM   25  C19 UNL     1      13.463  37.983  55.410  1.00  0.00     0.103 C 
HETATM   26  C20 UNL     1      12.505  36.726  55.109  1.00  0.00     0.052 C 
HETATM   27  C21 UNL     1      11.086  37.261  55.136  1.00  0.00     0.169 C 
HETATM   28  O3  UNL     1      10.817  37.790  56.381  1.00  0.00    -0.391 OA
HETATM   29  C22 UNL     1      11.662  38.734  56.860  1.00  0.00     0.169 C 
HETATM   30  C23 UNL     1      13.133  38.333  56.790  1.00  0.00     0.052 C 
ENDBRANCH  23  25
ENDBRANCH  13  23
ENDBRANCH   7   8
BRANCH   1  31
HETATM   31  C8  UNL     1      19.994  37.931  50.444  1.00  0.00     0.274 C 
HETATM   32  N3  UNL     1      20.596  36.733  50.315  1.00  0.00    -0.304 N 
ATOM     33  H3  UNL     1      20.825  36.139  51.113  1.00  0.00     0.171 HD
HETATM   34  O2  UNL     1      19.461  38.976  50.555  1.00  0.00    -0.269 OA
BRANCH  32  35
HETATM   35  C7  UNL     1      20.872  36.384  49.032  1.00  0.00     0.155 A 
HETATM   36  N1  UNL     1      20.634  35.299  48.331  1.00  0.00    -0.319 N 
HETATM   37  C1  UNL     1      19.832  34.207  48.946  1.00  0.00     0.159 C 
HETATM   38  C2  UNL     1      21.097  35.207  47.113  1.00  0.00     0.136 A 
HETATM   39  N2  UNL     1      20.757  34.090  46.220  1.00  0.00    -0.081 NA
HETATM   40  C3  UNL     1      21.836  36.277  46.598  1.00  0.00     0.061 A 
HETATM   41  S1  UNL     1      21.785  37.334  47.966  1.00  0.00    -0.052 SA
BRANCH  40  42
HETATM   42  C4  UNL     1      22.398  36.507  45.244  1.00  0.00     0.087 C 
HETATM   43  C5  UNL     1      23.567  37.551  45.554  1.00  0.00     0.051 C 
HETATM   44  C6  UNL     1      21.506  37.255  44.345  1.00  0.00     0.051 C 
BRANCH  42  45
HETATM   45  O1  UNL     1      23.026  35.376  44.751  1.00  0.00    -0.385 OA
ATOM     46  H1  UNL     1      22.684  35.126  43.901  1.00  0.00     0.211 HD
ENDBRANCH  42  45
ENDBRANCH  40  42
ENDBRANCH  32  35
ENDBRANCH   1  31
TORSDOF 9
ENDMDL
MODEL 3
REMARK VINA RESULT: -8.915080199      0.956      1.446
REMARK  9 active torsions:
REMARK  status: ('A' for Active; 'I' for Inactive)
REMARK    1  A    between atoms: C3_5  and  C4_6 
REMARK    2  A    between atoms: C4_6  and  O1_9 
REMARK    3  A    between atoms: C7_12  and  N3_13 
REMARK       I    between atoms: N3_13  and  C8_15 
REMARK    4  A    between atoms: C8_15  and  C9_17 
REMARK    5  A    between atoms: N5_23  and  C12_24 
REMARK    6  A    between atoms: C13_27  and  N7_28 
REMARK    7  A    between atoms: N7_28  and  C14_30 
REMARK    8  A    between atoms: C18_36  and  N9_37 
REMARK    9  A    between atoms: N9_37  and  C19_39 
ROOT
HETATM    1  C9  UNL     1      18.807  36.343  50.751  1.00  0.00     0.393 C 
HETATM    2  N4  UNL     1      18.027  35.052  50.573  1.00  0.00    -0.043 N 
ATOM      3  H41 UNL     1      17.965  34.634  49.644  1.00  0.00     0.280 HD
ATOM      4  H42 UNL     1      17.010  35.071  50.653  1.00  0.00     0.280 HD
HETATM    5  C10 UNL     1      18.833  34.355  51.637  1.00  0.00     0.255 C 
HETATM    6  C11 UNL     1      18.468  35.295  52.717  1.00  0.00     0.171 C 
HETATM    7  N5  UNL     1      18.345  36.670  51.984  1.00  0.00    -0.176 N 
ENDROOT
BRANCH   7   8
HETATM    8  C12 UNL     1      17.941  37.660  52.909  1.00  0.00     0.711 A 
HETATM    9  N6  UNL     1      18.701  38.562  53.493  1.00  0.00    -0.021 N 
HETATM   10  C13 UNL     1      18.297  39.439  54.479  1.00  0.00     0.707 A 
ATOM     11  H6  UNL     1      19.673  38.618  53.191  1.00  0.00     0.203 HD
HETATM   12  N8  UNL     1      17.022  39.355  54.884  1.00  0.00    -0.021 N 
HETATM   13  C18 UNL     1      16.156  38.433  54.332  1.00  0.00     0.707 A 
ATOM     14  H8  UNL     1      16.686  39.984  55.614  1.00  0.00     0.203 HD
HETATM   15  N10 UNL     1      16.639  37.631  53.368  1.00  0.00    -0.021 N 
ATOM     16  H10 UNL     1      16.001  36.956  52.947  1.00  0.00     0.203 HD
BRANCH  10  17
HETATM   17  N7  UNL     1      19.193  40.128  54.955  1.00  0.00    -0.217 N 
ATOM     18  H7  UNL     1      19.508  40.792  54.247  1.00  0.00     0.178 HD
BRANCH  17  19
HETATM   19  C14 UNL     1      19.927  40.325  56.107  1.00  0.00     0.036 C 
HETATM   20  C15 UNL     1      19.838  39.013  56.982  1.00  0.00     0.038 C 
HETATM   21  C16 UNL     1      19.515  41.465  56.972  1.00  0.00     0.038 C 
HETATM   22  C17 UNL     1      21.407  40.517  55.789  1.00  0.00     0.038 C 
ENDBRANCH  17  19
ENDBRANCH  10  17
BRANCH  13  23
HETATM   23  N9  UNL     1      14.988  38.313  54.831  1.00  0.00    -0.220 N 
ATOM     24  H9  UNL     1      14.801  39.085  55.470  1.00  0.00     0.178 HD
BRANCH  23  25
HETATM   25  C19 UNL     1      13.927  37.493  54.782  1.00  0.00     0.103 C 
HETATM   26  C20 UNL     1      14.288  36.299  55.797  1.00  0.00     0.052 C 
HETATM   27  C21 UNL     1      13.451  35.111  55.365  1.00  0.00     0.169 C 
HETATM   28  O3  UNL     1      12.113  35.434  55.452  1.00  0.00    -0.391 OA
HETATM   29  C22 UNL     1      11.690  36.542  54.799  1.00  0.00     0.169 C 
HETATM   30  C23 UNL     1      12.528  37.784  55.090  1.00  0.00     0.052 C 
ENDBRANCH  23  25
ENDBRANCH  13  23
ENDBRANCH   7   8
BRANCH   1  31
HETATM   31  C8  UNL     1      17.966  37.193  49.467  1.00  0.00     0.274 C 
HETATM   32  N3  UNL     1      18.926  38.137  49.409  1.00  0.00    -0.304 N 
ATOM     33  H3  UNL     1      18.903  38.987  49.973  1.00  0.00     0.171 HD
HETATM   34  O2  UNL     1      17.130  36.364  49.522  1.00  0.00    -0.269 OA
BRANCH  32  35
HETATM   35  C7  UNL     1      19.928  37.859  48.535  1.00  0.00     0.155 A 
HETATM   36  N1  UNL     1      21.220  38.087  48.557  1.00  0.00    -0.319 N 
HETATM   37  C1  UNL     1      21.824  38.688  49.777  1.00  0.00     0.159 C 
HETATM   38  C2  UNL     1      21.946  37.773  47.516  1.00  0.00     0.136 A 
HETATM   39  N2  UNL     1      23.413  37.868  47.517  1.00  0.00    -0.081 NA
HETATM   40  C3  UNL     1      21.311  37.204  46.408  1.00  0.00     0.061 A 
HETATM   41  S1  UNL     1      19.686  37.180  47.001  1.00  0.00    -0.052 SA
BRANCH  40  42
HETATM   42  C4  UNL     1      21.865  36.662  45.143  1.00  0.00     0.087 C 
HETATM   43  C5  UNL     1      20.618  36.810  44.155  1.00  0.00     0.051 C 
HETATM   44  C6  UNL     1      22.107  35.211  45.168  1.00  0.00     0.051 C 
BRANCH  42  45
HETATM   45  O1  UNL     1      22.853  37.481  44.624  1.00  0.00    -0.385 OA
ATOM     46  H1  UNL     1      22.619  37.816  43.766  1.00  0.00     0.211 HD
ENDBRANCH  42  45
ENDBRANCH  40  42
ENDBRANCH  32  35
ENDBRANCH   1  31
TORSDOF 9
ENDMDL
MODEL 4
REMARK VINA RESULT: -8.867988783      1.821      4.724
REMARK  9 active torsions:
REMARK  status: ('A' for Active; 'I' for Inactive)
REMARK    1  A    between atoms: C3_5  and  C4_6 
REMARK    2  A    between atoms: C4_6  and  O1_9 
REMARK    3  A    between atoms: C7_12  and  N3_13 
REMARK       I    between atoms: N3_13  and  C8_15 
REMARK    4  A    between atoms: C8_15  and  C9_17 
REMARK    5  A    between atoms: N5_23  and  C12_24 
REMARK    6  A    between atoms: C13_27  and  N7_28 
REMARK    7  A    between atoms: N7_28  and  C14_30 
REMARK    8  A    between atoms: C18_36  and  N9_37 
REMARK    9  A    between atoms: N9_37  and  C19_39 
ROOT
HETATM    1  C9  UNL     1      19.007  36.606  51.115  1.00  0.00     0.393 C 
HETATM    2  N4  UNL     1      18.570  35.228  50.650  1.00  0.00    -0.043 N 
ATOM      3  H41 UNL     1      18.689  34.974  49.669  1.00  0.00     0.280 HD
ATOM      4  H42 UNL     1      17.574  35.012  50.604  1.00  0.00     0.280 HD
HETATM    5  C10 UNL     1      19.419  34.547  51.690  1.00  0.00     0.255 C 
HETATM    6  C11 UNL     1      18.751  35.183  52.845  1.00  0.00     0.171 C 
HETATM    7  N5  UNL     1      18.374  36.605  52.316  1.00  0.00    -0.176 N 
ENDROOT
BRANCH   7   8
HETATM    8  C12 UNL     1      17.670  37.307  53.321  1.00  0.00     0.711 A 
HETATM    9  N6  UNL     1      16.397  37.191  53.633  1.00  0.00    -0.021 N 
HETATM   10  C13 UNL     1      15.715  37.975  54.540  1.00  0.00     0.707 A 
ATOM     11  H6  UNL     1      15.868  36.457  53.162  1.00  0.00     0.203 HD
HETATM   12  N8  UNL     1      16.408  38.948  55.147  1.00  0.00    -0.021 N 
HETATM   13  C18 UNL     1      17.747  39.147  54.876  1.00  0.00     0.707 A 
ATOM     14  H8  UNL     1      15.938  39.552  55.822  1.00  0.00     0.203 HD
HETATM   15  N10 UNL     1      18.327  38.324  53.987  1.00  0.00    -0.021 N 
ATOM     16  H10 UNL     1      19.319  38.458  53.790  1.00  0.00     0.203 HD
BRANCH  10  17
HETATM   17  N7  UNL     1      14.509  37.759  54.605  1.00  0.00    -0.217 N 
ATOM     18  H7  UNL     1      14.067  38.105  53.753  1.00  0.00     0.178 HD
BRANCH  17  19
HETATM   19  C14 UNL     1      13.538  37.214  55.420  1.00  0.00     0.036 C 
HETATM   20  C15 UNL     1      14.195  36.054  56.267  1.00  0.00     0.038 C 
HETATM   21  C16 UNL     1      12.340  36.646  54.742  1.00  0.00     0.038 C 
HETATM   22  C17 UNL     1      13.035  38.238  56.433  1.00  0.00     0.038 C 
ENDBRANCH  17  19
ENDBRANCH  10  17
BRANCH  13  23
HETATM   23  N9  UNL     1      18.334  40.157  55.390  1.00  0.00    -0.220 N 
ATOM     24  H9  UNL     1      17.644  40.851  55.676  1.00  0.00     0.178 HD
BRANCH  23  25
HETATM   25  C19 UNL     1      19.569  40.596  55.673  1.00  0.00     0.103 C 
HETATM   26  C20 UNL     1      19.349  41.765  56.754  1.00  0.00     0.052 C 
HETATM   27  C21 UNL     1      20.576  42.652  56.673  1.00  0.00     0.169 C 
HETATM   28  O3  UNL     1      21.699  41.913  56.981  1.00  0.00    -0.391 OA
HETATM   29  C22 UNL     1      21.918  40.778  56.274  1.00  0.00     0.169 C 
HETATM   30  C23 UNL     1      20.706  39.851  56.211  1.00  0.00     0.052 C 
ENDBRANCH  23  25
ENDBRANCH  13  23
ENDBRANCH   7   8
BRANCH   1  31
HETATM   31  C8  UNL     1      18.107  37.464  49.878  1.00  0.00     0.274 C 
HETATM   32  N3  UNL     1      19.106  38.352  49.712  1.00  0.00    -0.304 N 
ATOM     33  H3  UNL     1      19.175  39.217  50.248  1.00  0.00     0.171 HD
HETATM   34  O2  UNL     1      17.237  36.684  50.029  1.00  0.00    -0.269 OA
BRANCH  32  35
HETATM   35  C7  UNL     1      20.015  37.995  48.768  1.00  0.00     0.155 A 
HETATM   36  N1  UNL     1      21.311  38.176  48.664  1.00  0.00    -0.319 N 
HETATM   37  C1  UNL     1      22.042  38.812  49.793  1.00  0.00     0.159 C 
HETATM   38  C2  UNL     1      21.930  37.787  47.580  1.00  0.00     0.136 A 
HETATM   39  N2  UNL     1      23.393  37.827  47.446  1.00  0.00    -0.081 NA
HETATM   40  C3  UNL     1      21.179  37.189  46.562  1.00  0.00     0.061 A 
HETATM   41  S1  UNL     1      19.614  37.253  47.297  1.00  0.00    -0.052 SA
BRANCH  40  42
HETATM   42  C4  UNL     1      21.599  36.567  45.283  1.00  0.00     0.087 C 
HETATM   43  C5  UNL     1      20.205  36.444  44.511  1.00  0.00     0.051 C 
HETATM   44  C6  UNL     1      22.038  35.169  45.412  1.00  0.00     0.051 C 
BRANCH  42  45
HETATM   45  O1  UNL     1      22.373  37.428  44.524  1.00  0.00    -0.385 OA
ATOM     46  H1  UNL     1      22.432  37.144  43.619  1.00  0.00     0.211 HD
ENDBRANCH  42  45
ENDBRANCH  40  42
ENDBRANCH  32  35
ENDBRANCH   1  31
TORSDOF 9
ENDMDL
MODEL 5
REMARK VINA RESULT: -8.788347580      2.417      5.068
REMARK  9 active torsions:
REMARK  status: ('A' for Active; 'I' for Inactive)
REMARK    1  A    between atoms: C3_5  and  C4_6 
REMARK    2  A    between atoms: C4_6  and  O1_9 
REMARK    3  A    between atoms: C7_12  and  N3_13 
REMARK       I    between atoms: N3_13  and  C8_15 
REMARK    4  A    between atoms: C8_15  and  C9_17 
REMARK    5  A    between atoms: N5_23  and  C12_24 
REMARK    6  A    between atoms: C13_27  and  N7_28 
REMARK    7  A    between atoms: N7_28  and  C14_30 
REMARK    8  A    between atoms: C18_36  and  N9_37 
REMARK    9  A    between atoms: N9_37  and  C19_39 
ROOT
HETATM    1  C9  UNL     1      18.356  37.115  50.434  1.00  0.00     0.393 C 
HETATM    2  N4  UNL     1      17.827  38.032  49.346  1.00  0.00    -0.043 N 
ATOM      3  H41 UNL     1      18.373  38.158  48.493  1.00  0.00     0.280 HD
ATOM      4  H42 UNL     1      17.813  39.040  49.508  1.00  0.00     0.280 HD
HETATM    5  C10 UNL     1      16.521  37.285  49.275  1.00  0.00     0.255 C 
HETATM    6  C11 UNL     1      16.154  37.525  50.686  1.00  0.00     0.171 C 
HETATM    7  N5  UNL     1      17.528  37.515  51.432  1.00  0.00    -0.176 N 
ENDROOT
BRANCH   7   8
HETATM    8  C12 UNL     1      17.319  37.791  52.803  1.00  0.00     0.711 A 
HETATM    9  N6  UNL     1      16.167  37.871  53.434  1.00  0.00    -0.021 N 
HETATM   10  C13 UNL     1      15.993  38.256  54.746  1.00  0.00     0.707 A 
ATOM     11  H6  UNL     1      15.329  37.626  52.906  1.00  0.00     0.203 HD
HETATM   12  N8  UNL     1      17.093  38.590  55.435  1.00  0.00    -0.021 N 
HETATM   13  C18 UNL     1      18.343  38.542  54.851  1.00  0.00     0.707 A 
ATOM     14  H8  UNL     1      17.005  38.884  56.408  1.00  0.00     0.203 HD
HETATM   15  N10 UNL     1      18.412  38.142  53.570  1.00  0.00    -0.021 N 
ATOM     16  H10 UNL     1      19.334  38.093  53.136  1.00  0.00     0.203 HD
BRANCH  10  17
HETATM   17  N7  UNL     1      14.823  38.357  55.104  1.00  0.00    -0.217 N 
ATOM     18  H7  UNL     1      14.515  39.318  54.953  1.00  0.00     0.178 HD
BRANCH  17  19
HETATM   19  C14 UNL     1      13.777  37.633  55.638  1.00  0.00     0.036 C 
HETATM   20  C15 UNL     1      14.352  36.276  56.208  1.00  0.00     0.038 C 
HETATM   21  C16 UNL     1      12.663  37.289  54.712  1.00  0.00     0.038 C 
HETATM   22  C17 UNL     1      13.159  38.359  56.830  1.00  0.00     0.038 C 
ENDBRANCH  17  19
ENDBRANCH  10  17
BRANCH  13  23
HETATM   23  N9  UNL     1      19.345  38.980  55.509  1.00  0.00    -0.220 N 
ATOM     24  H9  UNL     1      20.073  38.267  55.549  1.00  0.00     0.178 HD
BRANCH  23  25
HETATM   25  C19 UNL     1      19.745  40.080  56.164  1.00  0.00     0.103 C 
HETATM   26  C20 UNL     1      21.155  40.464  55.494  1.00  0.00     0.052 C 
HETATM   27  C21 UNL     1      21.901  41.291  56.524  1.00  0.00     0.169 C 
HETATM   28  O3  UNL     1      21.176  42.428  56.813  1.00  0.00    -0.391 OA
HETATM   29  C22 UNL     1      19.890  42.270  57.209  1.00  0.00     0.169 C 
HETATM   30  C23 UNL     1      19.070  41.371  56.288  1.00  0.00     0.052 C 
ENDBRANCH  23  25
ENDBRANCH  13  23
ENDBRANCH   7   8
BRANCH   1  31
HETATM   31  C8  UNL     1      19.930  37.886  50.514  1.00  0.00     0.274 C 
HETATM   32  N3  UNL     1      20.560  36.702  50.378  1.00  0.00    -0.304 N 
ATOM     33  H3  UNL     1      20.818  36.117  51.172  1.00  0.00     0.171 HD
HETATM   34  O2  UNL     1      19.373  38.917  50.632  1.00  0.00    -0.269 OA
BRANCH  32  35
HETATM   35  C7  UNL     1      20.822  36.357  49.091  1.00  0.00     0.155 A 
HETATM   36  N1  UNL     1      20.571  35.277  48.388  1.00  0.00    -0.319 N 
HETATM   37  C1  UNL     1      19.766  34.188  49.005  1.00  0.00     0.159 C 
HETATM   38  C2  UNL     1      21.022  35.187  47.165  1.00  0.00     0.136 A 
HETATM   39  N2  UNL     1      20.667  34.076  46.270  1.00  0.00    -0.081 NA
HETATM   40  C3  UNL     1      21.765  36.253  46.648  1.00  0.00     0.061 A 
HETATM   41  S1  UNL     1      21.733  37.305  48.021  1.00  0.00    -0.052 SA
BRANCH  40  42
HETATM   42  C4  UNL     1      22.316  36.485  45.290  1.00  0.00     0.087 C 
HETATM   43  C5  UNL     1      23.504  37.510  45.595  1.00  0.00     0.051 C 
HETATM   44  C6  UNL     1      21.426  37.253  44.406  1.00  0.00     0.051 C 
BRANCH  42  45
HETATM   45  O1  UNL     1      22.923  35.349  44.782  1.00  0.00    -0.385 OA
ATOM     46  H1  UNL     1      23.601  35.564  44.153  1.00  0.00     0.211 HD
ENDBRANCH  42  45
ENDBRANCH  40  42
ENDBRANCH  32  35
ENDBRANCH   1  31
TORSDOF 9
ENDMDL
