MODEL 1
REMARK VINA RESULT: -9.096000634      0.000      0.000
REMARK  9 active torsions:
REMARK  status: ('A' for Active; 'I' for Inactive)
REMARK    1  A    between atoms: C2_2  and  C3_3 
REMARK    2  A    between atoms: C7_10  and  N2_11 
REMARK    3  A    between atoms: C10_14  and  N3_15 
REMARK    4  A    between atoms: C13_23  and  N5_24 
REMARK    5  A    between atoms: C15_30  and  N7_31 
REMARK    6  A    between atoms: N7_31  and  C16_33 
REMARK       I    between atoms: N8_36  and  C19_37 
REMARK    7  A    between atoms: C19_37  and  C20_39 
REMARK    8  A    between atoms: C20_39  and  N9_40 
REMARK    9  A    between atoms: C20_39  and  O3_44 
ROOT
HETATM    1  C3  UNL     1      18.761  38.232  52.488  1.00  0.00     0.052 C 
HETATM    2  C4  UNL     1      18.920  36.762  52.781  1.00  0.00     0.185 C 
HETATM    3  O1  UNL     1      19.013  35.980  51.612  1.00  0.00    -0.344 OA
HETATM    4  C5  UNL     1      19.770  36.157  50.483  1.00  0.00     0.142 A 
HETATM    5  C6  UNL     1      20.635  37.212  50.197  1.00  0.00     0.114 A 
HETATM    6  N1  UNL     1      21.277  37.191  49.032  1.00  0.00    -0.186 N 
ATOM      7  H1  UNL     1      21.913  37.955  48.806  1.00  0.00     0.184 HD
HETATM    8  C7  UNL     1      21.115  36.189  48.139  1.00  0.00     0.682 A 
HETATM    9  N4  UNL     1      20.289  35.177  48.412  1.00  0.00    -0.174 N 
ATOM     10  H4  UNL     1      20.174  34.426  47.733  1.00  0.00     0.186 HD
HETATM   11  C13 UNL     1      19.611  35.135  49.562  1.00  0.00     0.150 A 
HETATM   12  C14 UNL     1      20.964  38.384  51.057  1.00  0.00     0.078 A 
HETATM   13  N6  UNL     1      22.058  39.048  50.906  1.00  0.00    -0.334 N 
ATOM     14  H6  UNL     1      22.733  38.786  50.187  1.00  0.00     0.168 HD
HETATM   15  C15 UNL     1      22.292  40.104  51.727  1.00  0.00     0.145 A 
HETATM   16  S1  UNL     1      20.906  40.120  52.715  1.00  0.00    -0.056 SA
HETATM   17  C24 UNL     1      20.092  38.787  52.045  1.00  0.00     0.021 A 
ENDROOT
BRANCH  15  18
HETATM   18  N7  UNL     1      23.341  40.856  51.690  1.00  0.00    -0.366 N 
ATOM     19  H7  UNL     1      23.457  41.372  50.818  1.00  0.00     0.162 HD
BRANCH  18  20
HETATM   20  C16 UNL     1      24.341  41.087  52.629  1.00  0.00     0.086 C 
HETATM   21  C17 UNL     1      23.902  41.181  54.069  1.00  0.00     0.045 C 
HETATM   22  C18 UNL     1      25.136  41.265  54.978  1.00  0.00     0.128 C 
HETATM   23  N8  UNL     1      26.059  42.245  54.417  1.00  0.00    -0.348 N 
HETATM   24  C19 UNL     1      27.377  42.338  54.884  1.00  0.00     0.276 C 
HETATM   25  C22 UNL     1      25.545  43.090  53.388  1.00  0.00     0.128 C 
HETATM   26  O2  UNL     1      27.797  41.554  55.820  1.00  0.00    -0.268 OA
HETATM   27  C23 UNL     1      25.218  42.236  52.189  1.00  0.00     0.045 C 
BRANCH  24  28
HETATM   28  C20 UNL     1      28.356  43.312  54.360  1.00  0.00     0.411 C 
BRANCH  28  29
HETATM   29  N9  UNL     1      29.216  42.698  53.355  1.00  0.00    -0.044 N 
ATOM     30  H93 UNL     1      29.846  42.010  53.767  1.00  0.00     0.278 HD
ATOM     31  H92 UNL     1      28.690  42.078  52.739  1.00  0.00     0.278 HD
ATOM     32  H91 UNL     1      29.726  43.407  52.829  1.00  0.00     0.278 HD
ENDBRANCH  28  29
BRANCH  28  33
HETATM   33  O3  UNL     1      29.188  43.805  55.368  1.00  0.00    -0.357 OA
HETATM   34  C21 UNL     1      30.522  43.805  54.978  1.00  0.00     0.204 C 
ENDBRANCH  28  33
ENDBRANCH  24  28
ENDBRANCH  18  20
ENDBRANCH  15  18
BRANCH   1  35
HETATM   35  C2  UNL     1      18.411  38.911  53.801  1.00  0.00     0.007 C 
HETATM   36  C1  UNL     1      18.379  37.851  54.869  1.00  0.00     0.006 C 
ENDBRANCH   1  35
BRANCH  11  37
HETATM   37  N5  UNL     1      18.803  34.185  49.860  1.00  0.00    -0.383 N 
ATOM     38  H52 UNL     1      18.681  33.838  50.811  1.00  0.00     0.157 HD
ATOM     39  H51 UNL     1      18.266  33.764  49.101  1.00  0.00     0.157 HD
ENDBRANCH  11  37
BRANCH   8  40
HETATM   40  N2  UNL     1      21.829  36.218  46.921  1.00  0.00    -0.217 N 
HETATM   41  C8  UNL     1      21.776  35.079  46.038  1.00  0.00     0.143 C 
HETATM   42  C9  UNL     1      21.405  35.537  44.663  1.00  0.00     0.053 C 
HETATM   43  C10 UNL     1      22.278  36.662  44.217  1.00  0.00     0.186 C 
HETATM   44  C11 UNL     1      23.243  37.175  45.233  1.00  0.00     0.053 C 
HETATM   45  C12 UNL     1      22.594  37.387  46.586  1.00  0.00     0.143 C 
BRANCH  43  46
HETATM   46  N3  UNL     1      21.382  37.728  43.739  1.00  0.00    -0.075 N 
ATOM     47  H33 UNL     1      20.451  37.392  43.491  1.00  0.00     0.274 HD
ATOM     48  H32 UNL     1      21.092  38.372  44.475  1.00  0.00     0.274 HD
ATOM     49  H31 UNL     1      21.861  38.190  42.966  1.00  0.00     0.274 HD
ENDBRANCH  43  46
ENDBRANCH   8  40
TORSDOF 9
ENDMDL
MODEL 2
REMARK VINA RESULT: -9.092468689      3.362     10.501
REMARK  9 active torsions:
REMARK  status: ('A' for Active; 'I' for Inactive)
REMARK    1  A    between atoms: C2_2  and  C3_3 
REMARK    2  A    between atoms: C7_10  and  N2_11 
REMARK    3  A    between atoms: C10_14  and  N3_15 
REMARK    4  A    between atoms: C13_23  and  N5_24 
REMARK    5  A    between atoms: C15_30  and  N7_31 
REMARK    6  A    between atoms: N7_31  and  C16_33 
REMARK       I    between atoms: N8_36  and  C19_37 
REMARK    7  A    between atoms: C19_37  and  C20_39 
REMARK    8  A    between atoms: C20_39  and  N9_40 
REMARK    9  A    between atoms: C20_39  and  O3_44 
ROOT
HETATM    1  C3  UNL     1      27.295  43.103  52.537  1.00  0.00     0.052 C 
HETATM    2  C4  UNL     1      28.071  42.470  53.665  1.00  0.00     0.185 C 
HETATM    3  O1  UNL     1      27.503  42.729  54.929  1.00  0.00    -0.344 OA
HETATM    4  C5  UNL     1      26.204  42.638  55.355  1.00  0.00     0.142 A 
HETATM    5  C6  UNL     1      25.085  42.289  54.599  1.00  0.00     0.114 A 
HETATM    6  N1  UNL     1      23.905  42.263  55.213  1.00  0.00    -0.186 N 
ATOM      7  H1  UNL     1      23.075  42.011  54.675  1.00  0.00     0.184 HD
HETATM    8  C7  UNL     1      23.769  42.560  56.525  1.00  0.00     0.682 A 
HETATM    9  N4  UNL     1      24.839  42.893  57.249  1.00  0.00    -0.174 N 
ATOM     10  H4  UNL     1      24.727  43.114  58.238  1.00  0.00     0.186 HD
HETATM   11  C13 UNL     1      26.054  42.940  56.698  1.00  0.00     0.150 A 
HETATM   12  C14 UNL     1      25.036  41.907  53.161  1.00  0.00     0.078 A 
HETATM   13  N6  UNL     1      24.068  41.203  52.680  1.00  0.00    -0.334 N 
ATOM     14  H6  UNL     1      23.305  40.888  53.278  1.00  0.00     0.168 HD
HETATM   15  C15 UNL     1      24.091  40.892  51.358  1.00  0.00     0.145 A 
HETATM   16  S1  UNL     1      25.528  41.632  50.826  1.00  0.00    -0.056 SA
HETATM   17  C24 UNL     1      26.038  42.303  52.301  1.00  0.00     0.021 A 
ENDROOT
BRANCH  15  18
HETATM   18  N7  UNL     1      23.192  40.196  50.743  1.00  0.00    -0.366 N 
ATOM     19  H7  UNL     1      23.236  40.261  49.726  1.00  0.00     0.162 HD
BRANCH  18  20
HETATM   20  C16 UNL     1      22.177  39.375  51.222  1.00  0.00     0.086 C 
HETATM   21  C17 UNL     1      21.383  38.617  50.188  1.00  0.00     0.045 C 
HETATM   22  C18 UNL     1      20.428  37.639  50.889  1.00  0.00     0.128 C 
HETATM   23  N8  UNL     1      19.755  38.346  51.972  1.00  0.00    -0.348 N 
HETATM   24  C19 UNL     1      19.031  37.643  52.945  1.00  0.00     0.276 C 
HETATM   25  C22 UNL     1      19.873  39.768  51.978  1.00  0.00     0.128 C 
HETATM   26  O2  UNL     1      18.950  36.355  52.898  1.00  0.00    -0.268 OA
HETATM   27  C23 UNL     1      21.319  40.126  52.212  1.00  0.00     0.045 C 
BRANCH  24  28
HETATM   28  C20 UNL     1      18.325  38.301  54.063  1.00  0.00     0.411 C 
BRANCH  28  29
HETATM   29  N9  UNL     1      19.122  38.255  55.283  1.00  0.00    -0.044 N 
ATOM     30  H93 UNL     1      19.506  37.325  55.447  1.00  0.00     0.278 HD
ATOM     31  H92 UNL     1      19.997  38.769  55.180  1.00  0.00     0.278 HD
ATOM     32  H91 UNL     1      18.584  38.586  56.084  1.00  0.00     0.278 HD
ENDBRANCH  28  29
BRANCH  28  33
HETATM   33  O3  UNL     1      17.106  37.680  54.345  1.00  0.00    -0.357 OA
HETATM   34  C21 UNL     1      16.066  38.229  53.607  1.00  0.00     0.204 C 
ENDBRANCH  28  33
ENDBRANCH  24  28
ENDBRANCH  18  20
ENDBRANCH  15  18
BRANCH   1  35
HETATM   35  C2  UNL     1      28.146  42.974  51.286  1.00  0.00     0.007 C 
HETATM   36  C1  UNL     1      29.550  43.377  51.645  1.00  0.00     0.006 C 
ENDBRANCH   1  35
BRANCH  11  37
HETATM   37  N5  UNL     1      27.107  43.261  57.357  1.00  0.00    -0.383 N 
ATOM     38  H52 UNL     1      27.932  43.669  56.919  1.00  0.00     0.157 HD
ATOM     39  H51 UNL     1      27.107  43.090  58.362  1.00  0.00     0.157 HD
ENDBRANCH  11  37
BRANCH   8  40
HETATM   40  N2  UNL     1      22.490  42.511  57.123  1.00  0.00    -0.217 N 
HETATM   41  C8  UNL     1      22.233  43.278  58.316  1.00  0.00     0.143 C 
HETATM   42  C9  UNL     1      20.996  44.096  58.120  1.00  0.00     0.053 C 
HETATM   43  C10 UNL     1      19.864  43.252  57.635  1.00  0.00     0.186 C 
HETATM   44  C11 UNL     1      20.199  41.828  57.339  1.00  0.00     0.053 C 
HETATM   45  C12 UNL     1      21.470  41.695  56.525  1.00  0.00     0.143 C 
BRANCH  43  46
HETATM   46  N3  UNL     1      19.306  43.931  56.454  1.00  0.00    -0.075 N 
ATOM     47  H33 UNL     1      18.344  43.661  56.251  1.00  0.00     0.274 HD
ATOM     48  H32 UNL     1      19.129  44.925  56.607  1.00  0.00     0.274 HD
ATOM     49  H31 UNL     1      19.947  43.751  55.682  1.00  0.00     0.274 HD
ENDBRANCH  43  46
ENDBRANCH   8  40
TORSDOF 9
ENDMDL
MODEL 3
REMARK VINA RESULT: -9.077229756      1.168      1.571
REMARK  9 active torsions:
REMARK  status: ('A' for Active; 'I' for Inactive)
REMARK    1  A    between atoms: C2_2  and  C3_3 
REMARK    2  A    between atoms: C7_10  and  N2_11 
REMARK    3  A    between atoms: C10_14  and  N3_15 
REMARK    4  A    between atoms: C13_23  and  N5_24 
REMARK    5  A    between atoms: C15_30  and  N7_31 
REMARK    6  A    between atoms: N7_31  and  C16_33 
REMARK       I    between atoms: N8_36  and  C19_37 
REMARK    7  A    between atoms: C19_37  and  C20_39 
REMARK    8  A    between atoms: C20_39  and  N9_40 
REMARK    9  A    between atoms: C20_39  and  O3_44 
ROOT
HETATM    1  C3  UNL     1      19.320  37.770  51.537  1.00  0.00     0.052 C 
HETATM    2  C4  UNL     1      19.616  36.292  51.605  1.00  0.00     0.185 C 
HETATM    3  O1  UNL     1      19.754  35.706  50.331  1.00  0.00    -0.344 OA
HETATM    4  C5  UNL     1      20.469  36.117  49.237  1.00  0.00     0.142 A 
HETATM    5  C6  UNL     1      21.230  37.278  49.106  1.00  0.00     0.114 A 
HETATM    6  N1  UNL     1      21.847  37.489  47.946  1.00  0.00    -0.186 N 
ATOM      7  H1  UNL     1      22.407  38.334  47.833  1.00  0.00     0.184 HD
HETATM    8  C7  UNL     1      21.757  36.620  46.914  1.00  0.00     0.682 A 
HETATM    9  N4  UNL     1      21.031  35.508  47.038  1.00  0.00    -0.174 N 
ATOM     10  H4  UNL     1      20.969  34.858  46.255  1.00  0.00     0.186 HD
HETATM   11  C13 UNL     1      20.383  35.233  48.173  1.00  0.00     0.150 A 
HETATM   12  C14 UNL     1      21.470  38.334  50.129  1.00  0.00     0.078 A 
HETATM   13  N6  UNL     1      22.498  39.110  50.071  1.00  0.00    -0.334 N 
ATOM     14  H6  UNL     1      23.178  39.021  49.317  1.00  0.00     0.168 HD
HETATM   15  C15 UNL     1      22.652  40.050  51.040  1.00  0.00     0.145 A 
HETATM   16  S1  UNL     1      21.292  39.791  52.029  1.00  0.00    -0.056 SA
HETATM   17  C24 UNL     1      20.587  38.504  51.173  1.00  0.00     0.021 A 
ENDROOT
BRANCH  15  18
HETATM   18  N7  UNL     1      23.630  40.892  51.109  1.00  0.00    -0.366 N 
ATOM     19  H7  UNL     1      23.765  41.446  50.264  1.00  0.00     0.162 HD
BRANCH  18  20
HETATM   20  C16 UNL     1      24.529  41.177  52.132  1.00  0.00     0.086 C 
HETATM   21  C17 UNL     1      23.936  41.433  53.494  1.00  0.00     0.045 C 
HETATM   22  C18 UNL     1      25.064  41.559  54.529  1.00  0.00     0.128 C 
HETATM   23  N8  UNL     1      26.092  42.440  53.988  1.00  0.00    -0.348 N 
HETATM   24  C19 UNL     1      27.352  42.527  54.594  1.00  0.00     0.276 C 
HETATM   25  C22 UNL     1      25.741  43.196  52.829  1.00  0.00     0.128 C 
HETATM   26  O2  UNL     1      27.625  41.825  55.644  1.00  0.00    -0.268 OA
HETATM   27  C23 UNL     1      25.507  42.239  51.689  1.00  0.00     0.045 C 
BRANCH  24  28
HETATM   28  C20 UNL     1      28.433  43.404  54.097  1.00  0.00     0.411 C 
BRANCH  28  29
HETATM   29  N9  UNL     1      29.309  42.683  53.181  1.00  0.00    -0.044 N 
ATOM     30  H93 UNL     1      30.108  42.275  53.666  1.00  0.00     0.278 HD
ATOM     31  H92 UNL     1      28.877  41.823  52.845  1.00  0.00     0.278 HD
ATOM     32  H91 UNL     1      29.604  43.282  52.410  1.00  0.00     0.278 HD
ENDBRANCH  28  29
BRANCH  28  33
HETATM   33  O3  UNL     1      29.231  43.885  55.137  1.00  0.00    -0.357 OA
HETATM   34  C21 UNL     1      30.580  43.844  54.810  1.00  0.00     0.204 C 
ENDBRANCH  28  33
ENDBRANCH  24  28
ENDBRANCH  18  20
ENDBRANCH  15  18
BRANCH   1  35
HETATM   35  C2  UNL     1      18.938  38.210  52.940  1.00  0.00     0.007 C 
HETATM   36  C1  UNL     1      17.645  38.972  52.843  1.00  0.00     0.006 C 
ENDBRANCH   1  35
BRANCH  11  37
HETATM   37  N5  UNL     1      19.669  34.179  48.332  1.00  0.00    -0.383 N 
ATOM     38  H52 UNL     1      18.889  34.131  48.986  1.00  0.00     0.157 HD
ATOM     39  H51 UNL     1      19.908  33.358  47.775  1.00  0.00     0.157 HD
ENDBRANCH  11  37
BRANCH   8  40
HETATM   40  N2  UNL     1      22.439  36.896  45.709  1.00  0.00    -0.217 N 
HETATM   41  C8  UNL     1      23.705  37.585  45.751  1.00  0.00     0.143 C 
HETATM   42  C9  UNL     1      24.715  36.811  44.965  1.00  0.00     0.053 C 
HETATM   43  C10 UNL     1      24.201  36.483  43.603  1.00  0.00     0.186 C 
HETATM   44  C11 UNL     1      22.786  36.874  43.333  1.00  0.00     0.053 C 
HETATM   45  C12 UNL     1      21.857  36.480  44.463  1.00  0.00     0.143 C 
BRANCH  43  46
HETATM   46  N3  UNL     1      24.407  35.037  43.410  1.00  0.00    -0.075 N 
ATOM     47  H33 UNL     1      25.153  34.656  43.991  1.00  0.00     0.274 HD
ATOM     48  H32 UNL     1      23.648  34.468  43.788  1.00  0.00     0.274 HD
ATOM     49  H31 UNL     1      24.560  34.893  42.413  1.00  0.00     0.274 HD
ENDBRANCH  43  46
ENDBRANCH   8  40
TORSDOF 9
ENDMDL
MODEL 4
REMARK VINA RESULT: -8.914653971      4.347     10.364
REMARK  9 active torsions:
REMARK  status: ('A' for Active; 'I' for Inactive)
REMARK    1  A    between atoms: C2_2  and  C3_3 
REMARK    2  A    between atoms: C7_10  and  N2_11 
REMARK    3  A    between atoms: C10_14  and  N3_15 
REMARK    4  A    between atoms: C13_23  and  N5_24 
REMARK    5  A    between atoms: C15_30  and  N7_31 
REMARK    6  A    between atoms: N7_31  and  C16_33 
REMARK       I    between atoms: N8_36  and  C19_37 
REMARK    7  A    between atoms: C19_37  and  C20_39 
REMARK    8  A    between atoms: C20_39  and  N9_40 
REMARK    9  A    between atoms: C20_39  and  O3_44 
ROOT
HETATM    1  C3  UNL     1      20.667  37.990  48.562  1.00  0.00     0.052 C 
HETATM    2  C4  UNL     1      22.155  38.027  48.802  1.00  0.00     0.185 C 
HETATM    3  O1  UNL     1      22.525  38.970  49.782  1.00  0.00    -0.344 OA
HETATM    4  C5  UNL     1      22.003  39.211  51.026  1.00  0.00     0.142 A 
HETATM    5  C6  UNL     1      20.915  38.580  51.626  1.00  0.00     0.114 A 
HETATM    6  N1  UNL     1      20.568  38.970  52.851  1.00  0.00    -0.186 N 
ATOM      7  H1  UNL     1      19.773  38.520  53.305  1.00  0.00     0.184 HD
HETATM    8  C7  UNL     1      21.234  39.944  53.512  1.00  0.00     0.682 A 
HETATM    9  N4  UNL     1      22.277  40.547  52.938  1.00  0.00    -0.174 N 
ATOM     10  H4  UNL     1      22.774  41.279  53.445  1.00  0.00     0.186 HD
HETATM   11  C13 UNL     1      22.679  40.206  51.712  1.00  0.00     0.150 A 
HETATM   12  C14 UNL     1      20.077  37.478  51.075  1.00  0.00     0.078 A 
HETATM   13  N6  UNL     1      19.404  36.691  51.842  1.00  0.00    -0.334 N 
ATOM     14  H6  UNL     1      19.427  36.804  52.856  1.00  0.00     0.168 HD
HETATM   15  C15 UNL     1      18.663  35.708  51.268  1.00  0.00     0.145 A 
HETATM   16  S1  UNL     1      18.956  35.942  49.608  1.00  0.00    -0.056 SA
HETATM   17  C24 UNL     1      20.005  37.275  49.714  1.00  0.00     0.021 A 
ENDROOT
BRANCH  15  18
HETATM   18  N7  UNL     1      17.942  34.849  51.911  1.00  0.00    -0.366 N 
ATOM     19  H7  UNL     1      17.986  33.902  51.536  1.00  0.00     0.162 HD
BRANCH  18  20
HETATM   20  C16 UNL     1      17.117  34.989  53.022  1.00  0.00     0.086 C 
HETATM   21  C17 UNL     1      16.373  33.754  53.464  1.00  0.00     0.045 C 
HETATM   22  C18 UNL     1      15.652  34.036  54.791  1.00  0.00     0.128 C 
HETATM   23  N8  UNL     1      14.966  35.319  54.681  1.00  0.00    -0.348 N 
HETATM   24  C19 UNL     1      14.450  35.955  55.818  1.00  0.00     0.276 C 
HETATM   25  C22 UNL     1      14.851  35.872  53.370  1.00  0.00     0.128 C 
HETATM   26  O2  UNL     1      14.575  35.415  56.985  1.00  0.00    -0.268 OA
HETATM   27  C23 UNL     1      16.234  36.205  52.870  1.00  0.00     0.045 C 
BRANCH  24  28
HETATM   28  C20 UNL     1      13.742  37.250  55.771  1.00  0.00     0.411 C 
BRANCH  28  29
HETATM   29  N9  UNL     1      14.666  38.339  55.475  1.00  0.00    -0.044 N 
ATOM     30  H93 UNL     1      14.341  39.225  55.862  1.00  0.00     0.278 HD
ATOM     31  H92 UNL     1      15.535  38.249  56.001  1.00  0.00     0.278 HD
ATOM     32  H91 UNL     1      14.839  38.409  54.472  1.00  0.00     0.278 HD
ENDBRANCH  28  29
BRANCH  28  33
HETATM   33  O3  UNL     1      13.129  37.552  56.989  1.00  0.00    -0.357 OA
HETATM   34  C21 UNL     1      12.496  38.787  56.954  1.00  0.00     0.204 C 
ENDBRANCH  28  33
ENDBRANCH  24  28
ENDBRANCH  18  20
ENDBRANCH  15  18
BRANCH   1  35
HETATM   35  C2  UNL     1      20.439  37.144  47.322  1.00  0.00     0.007 C 
HETATM   36  C1  UNL     1      21.748  36.494  46.965  1.00  0.00     0.006 C 
ENDBRANCH   1  35
BRANCH  11  37
HETATM   37  N5  UNL     1      23.672  40.765  51.122  1.00  0.00    -0.383 N 
ATOM     38  H52 UNL     1      23.947  40.542  50.166  1.00  0.00     0.157 HD
ATOM     39  H51 UNL     1      24.204  41.460  51.648  1.00  0.00     0.157 HD
ENDBRANCH  11  37
BRANCH   8  40
HETATM   40  N2  UNL     1      20.823  40.311  54.811  1.00  0.00    -0.217 N 
HETATM   41  C8  UNL     1      21.816  40.567  55.826  1.00  0.00     0.143 C 
HETATM   42  C9  UNL     1      21.544  41.894  56.459  1.00  0.00     0.053 C 
HETATM   43  C10 UNL     1      20.122  41.998  56.903  1.00  0.00     0.186 C 
HETATM   44  C11 UNL     1      19.246  40.846  56.541  1.00  0.00     0.053 C 
HETATM   45  C12 UNL     1      19.419  40.425  55.095  1.00  0.00     0.143 C 
BRANCH  43  46
HETATM   46  N3  UNL     1      19.601  43.264  56.360  1.00  0.00    -0.075 N 
ATOM     47  H33 UNL     1      20.261  44.037  56.437  1.00  0.00     0.274 HD
ATOM     48  H32 UNL     1      19.523  43.264  55.342  1.00  0.00     0.274 HD
ATOM     49  H31 UNL     1      18.715  43.442  56.832  1.00  0.00     0.274 HD
ENDBRANCH  43  46
ENDBRANCH   8  40
TORSDOF 9
ENDMDL
MODEL 5
REMARK VINA RESULT: -8.867763315      4.360     10.532
REMARK  9 active torsions:
REMARK  status: ('A' for Active; 'I' for Inactive)
REMARK    1  A    between atoms: C2_2  and  C3_3 
REMARK    2  A    between atoms: C7_10  and  N2_11 
REMARK    3  A    between atoms: C10_14  and  N3_15 
REMARK    4  A    between atoms: C13_23  and  N5_24 
REMARK    5  A    between atoms: C15_30  and  N7_31 
REMARK    6  A    between atoms: N7_31  and  C16_33 
REMARK       I    between atoms: N8_36  and  C19_37 
REMARK    7  A    between atoms: C19_37  and  C20_39 
REMARK    8  A    between atoms: C20_39  and  N9_40 
REMARK    9  A    between atoms: C20_39  and  O3_44 
ROOT
HETATM    1  C3  UNL     1      21.308  37.767  47.825  1.00  0.00     0.052 C 
HETATM    2  C4  UNL     1      22.703  38.001  48.350  1.00  0.00     0.185 C 
HETATM    3  O1  UNL     1      22.737  38.932  49.408  1.00  0.00    -0.344 OA
HETATM    4  C5  UNL     1      21.961  39.028  50.533  1.00  0.00     0.142 A 
HETATM    5  C6  UNL     1      20.886  38.217  50.894  1.00  0.00     0.114 A 
HETATM    6  N1  UNL     1      20.261  38.487  52.038  1.00  0.00    -0.186 N 
ATOM      7  H1  UNL     1      19.471  37.905  52.317  1.00  0.00     0.184 HD
HETATM    8  C7  UNL     1      20.638  39.508  52.841  1.00  0.00     0.682 A 
HETATM    9  N4  UNL     1      21.668  40.283  52.497  1.00  0.00    -0.174 N 
ATOM     10  H4  UNL     1      21.946  41.049  53.110  1.00  0.00     0.186 HD
HETATM   11  C13 UNL     1      22.340  40.070  51.363  1.00  0.00     0.150 A 
HETATM   12  C14 UNL     1      20.341  37.040  50.162  1.00  0.00     0.078 A 
HETATM   13  N6  UNL     1      19.660  36.125  50.763  1.00  0.00    -0.334 N 
ATOM     14  H6  UNL     1      19.475  36.184  51.764  1.00  0.00     0.168 HD
HETATM   15  C15 UNL     1      19.196  35.079  50.030  1.00  0.00     0.145 A 
HETATM   16  S1  UNL     1      19.757  35.443  48.466  1.00  0.00    -0.056 SA
HETATM   17  C24 UNL     1      20.556  36.903  48.808  1.00  0.00     0.021 A 
ENDROOT
BRANCH  15  18
HETATM   18  N7  UNL     1      18.503  34.094  50.498  1.00  0.00    -0.366 N 
ATOM     19  H7  UNL     1      18.890  33.174  50.289  1.00  0.00     0.162 HD
BRANCH  18  20
HETATM   20  C16 UNL     1      17.325  34.066  51.236  1.00  0.00     0.086 C 
HETATM   21  C17 UNL     1      16.294  35.112  50.894  1.00  0.00     0.045 C 
HETATM   22  C18 UNL     1      15.001  34.833  51.675  1.00  0.00     0.128 C 
HETATM   23  N8  UNL     1      15.349  34.559  53.064  1.00  0.00    -0.348 N 
HETATM   24  C19 UNL     1      14.406  34.014  53.945  1.00  0.00     0.276 C 
HETATM   25  C22 UNL     1      16.682  34.877  53.464  1.00  0.00     0.128 C 
HETATM   26  O2  UNL     1      13.210  33.743  53.540  1.00  0.00    -0.268 OA
HETATM   27  C23 UNL     1      17.632  33.980  52.712  1.00  0.00     0.045 C 
BRANCH  24  28
HETATM   28  C20 UNL     1      14.696  33.718  55.363  1.00  0.00     0.411 C 
BRANCH  28  29
HETATM   29  N9  UNL     1      14.344  32.341  55.691  1.00  0.00    -0.044 N 
ATOM     30  H93 UNL     1      14.452  32.152  56.688  1.00  0.00     0.278 HD
ATOM     31  H92 UNL     1      13.341  32.180  55.610  1.00  0.00     0.278 HD
ATOM     32  H91 UNL     1      14.878  31.683  55.124  1.00  0.00     0.278 HD
ENDBRANCH  28  29
BRANCH  28  33
HETATM   33  O3  UNL     1      13.972  34.544  56.225  1.00  0.00    -0.357 OA
HETATM   34  C21 UNL     1      14.424  35.856  56.180  1.00  0.00     0.204 C 
ENDBRANCH  28  33
ENDBRANCH  24  28
ENDBRANCH  18  20
ENDBRANCH  15  18
BRANCH   1  35
HETATM   35  C2  UNL     1      21.446  36.966  46.542  1.00  0.00     0.007 C 
HETATM   36  C1  UNL     1      22.890  37.020  46.123  1.00  0.00     0.006 C 
ENDBRANCH   1  35
BRANCH  11  37
HETATM   37  N5  UNL     1      23.330  40.795  50.992  1.00  0.00    -0.383 N 
ATOM     38  H52 UNL     1      23.418  41.175  50.050  1.00  0.00     0.157 HD
ATOM     39  H51 UNL     1      24.059  40.990  51.680  1.00  0.00     0.157 HD
ENDBRANCH  11  37
BRANCH   8  40
HETATM   40  N2  UNL     1      19.940  39.742  54.046  1.00  0.00    -0.217 N 
HETATM   41  C8  UNL     1      18.557  39.350  54.153  1.00  0.00     0.143 C 
HETATM   42  C9  UNL     1      18.372  38.525  55.388  1.00  0.00     0.053 C 
HETATM   43  C10 UNL     1      18.946  39.210  56.583  1.00  0.00     0.186 C 
HETATM   44  C11 UNL     1      19.670  40.487  56.313  1.00  0.00     0.053 C 
HETATM   45  C12 UNL     1      20.626  40.366  55.143  1.00  0.00     0.143 C 
BRANCH  43  46
HETATM   46  N3  UNL     1      19.815  38.229  57.256  1.00  0.00    -0.075 N 
ATOM     47  H33 UNL     1      20.268  38.599  58.091  1.00  0.00     0.274 HD
ATOM     48  H32 UNL     1      19.296  37.480  57.714  1.00  0.00     0.274 HD
ATOM     49  H31 UNL     1      20.474  37.892  56.555  1.00  0.00     0.274 HD
ENDBRANCH  43  46
ENDBRANCH   8  40
TORSDOF 9
ENDMDL
