MODEL 1
REMARK VINA RESULT: -9.557003738      0.000      0.000
REMARK  7 active torsions:
REMARK  status: ('A' for Active; 'I' for Inactive)
REMARK       I    between atoms: C1_2  and  N3_4 
REMARK       I    between atoms: N3_4  and  C2_6 
REMARK    1  A    between atoms: C2_6  and  C3_8 
REMARK    2  A    between atoms: C3_8  and  N4_9 
REMARK    3  A    between atoms: C10_18  and  N5_19 
REMARK    4  A    between atoms: N5_19  and  C11_21 
REMARK    5  A    between atoms: C17_30  and  O4_31 
REMARK    6  A    between atoms: N7_33  and  C18_34 
REMARK    7  A    between atoms: C18_34  and  C19_35 
ROOT
HETATM    1  N4  UNL     1      23.084  35.522  44.029  1.00  0.00    -0.317 N 
HETATM    2  C4  UNL     1      22.858  34.242  44.665  1.00  0.00     0.154 C 
HETATM    3  C5  UNL     1      21.575  33.577  44.180  1.00  0.00     0.187 C 
HETATM    4  O2  UNL     1      21.171  32.709  45.218  1.00  0.00    -0.387 OA
HETATM    5  C6  UNL     1      20.032  33.164  45.863  1.00  0.00     0.193 C 
HETATM    6  C7  UNL     1      20.308  33.349  47.340  1.00  0.00     0.193 C 
HETATM    7  O3  UNL     1      19.481  34.270  47.932  1.00  0.00    -0.389 OA
HETATM    8  C8  UNL     1      19.732  35.574  47.603  1.00  0.00     0.169 C 
HETATM    9  C9  UNL     1      20.895  36.140  48.368  1.00  0.00     0.053 C 
HETATM   10  C10 UNL     1      21.383  37.442  47.822  1.00  0.00     0.109 C 
HETATM   11  C22 UNL     1      22.437  37.196  46.733  1.00  0.00     0.205 C 
HETATM   12  O5  UNL     1      21.784  36.980  45.518  1.00  0.00    -0.302 OA
HETATM   13  C23 UNL     1      22.310  36.684  44.298  1.00  0.00     0.363 C 
HETATM   14  O6  UNL     1      22.144  37.447  43.277  1.00  0.00    -0.238 OA
ENDROOT
BRANCH  10  15
HETATM   15  N5  UNL     1      21.959  38.234  48.869  1.00  0.00    -0.369 N 
ATOM     16  H5  UNL     1      22.918  38.552  48.727  1.00  0.00     0.161 HD
BRANCH  15  17
HETATM   17  C11 UNL     1      21.400  38.580  49.952  1.00  0.00     0.103 A 
HETATM   18  C12 UNL     1      20.019  38.514  50.026  1.00  0.00     0.078 A 
HETATM   19  C13 UNL     1      19.348  38.883  51.194  1.00  0.00     0.053 A 
HETATM   20  C14 UNL     1      20.126  39.313  52.262  1.00  0.00     0.028 A 
HETATM   21  N7  UNL     1      18.041  38.906  51.508  1.00  0.00    -0.325 N 
HETATM   22  C15 UNL     1      21.496  39.375  52.174  1.00  0.00     0.105 A 
HETATM   23  C16 UNL     1      19.208  39.610  53.273  1.00  0.00     0.076 A 
HETATM   24  N6  UNL     1      22.084  39.009  51.032  1.00  0.00    -0.352 N 
ATOM     25  H6  UNL     1      23.101  39.058  50.973  1.00  0.00     0.166 HD
HETATM   26  S1  UNL     1      19.664  40.212  54.888  1.00  0.00    -0.047 SA
HETATM   27  C17 UNL     1      17.947  39.348  52.775  1.00  0.00     0.161 A 
BRANCH  27  28
HETATM   28  O4  UNL     1      16.778  39.528  53.503  1.00  0.00    -0.345 OA
ATOM     29  H4  UNL     1      16.102  40.155  53.271  1.00  0.00     0.219 HD
ENDBRANCH  27  28
BRANCH  21  30
HETATM   30  C18 UNL     1      16.949  38.523  50.634  1.00  0.00     0.136 C 
BRANCH  30  31
HETATM   31  C19 UNL     1      16.510  37.122  50.929  1.00  0.00     0.004 A 
HETATM   32  C20 UNL     1      16.117  36.328  49.671  1.00  0.00     0.007 A 
HETATM   33  C21 UNL     1      17.302  35.953  50.487  1.00  0.00     0.007 A 
ENDBRANCH  30  31
ENDBRANCH  21  30
ENDBRANCH  15  17
ENDBRANCH  10  15
BRANCH   1  34
HETATM   34  C3  UNL     1      24.165  35.595  43.066  1.00  0.00     0.231 C 
BRANCH  34  35
HETATM   35  C2  UNL     1      23.916  34.763  41.877  1.00  0.00     0.241 C 
HETATM   36  N3  UNL     1      22.843  35.082  41.013  1.00  0.00    -0.302 N 
HETATM   37  C1  UNL     1      22.993  36.047  40.169  1.00  0.00     0.203 C 
ATOM     38  H3  UNL     1      21.968  34.559  41.056  1.00  0.00     0.171 HD
HETATM   39  N1  UNL     1      21.919  36.363  39.309  1.00  0.00    -0.066 NA
HETATM   40  N2  UNL     1      24.188  36.810  40.063  1.00  0.00    -0.066 NA
HETATM   41  O1  UNL     1      24.632  33.775  41.607  1.00  0.00    -0.271 OA
ENDBRANCH  34  35
ENDBRANCH   1  34
TORSDOF 7
ENDMDL
MODEL 2
REMARK VINA RESULT: -9.313689077      6.176     10.915
REMARK  7 active torsions:
REMARK  status: ('A' for Active; 'I' for Inactive)
REMARK       I    between atoms: C1_2  and  N3_4 
REMARK       I    between atoms: N3_4  and  C2_6 
REMARK    1  A    between atoms: C2_6  and  C3_8 
REMARK    2  A    between atoms: C3_8  and  N4_9 
REMARK    3  A    between atoms: C10_18  and  N5_19 
REMARK    4  A    between atoms: N5_19  and  C11_21 
REMARK    5  A    between atoms: C17_30  and  O4_31 
REMARK    6  A    between atoms: N7_33  and  C18_34 
REMARK    7  A    between atoms: C18_34  and  C19_35 
ROOT
HETATM    1  N4  UNL     1      27.059  43.217  53.713  1.00  0.00    -0.317 N 
HETATM    2  C4  UNL     1      27.960  42.326  53.016  1.00  0.00     0.154 C 
HETATM    3  C5  UNL     1      28.477  42.931  51.717  1.00  0.00     0.187 C 
HETATM    4  O2  UNL     1      28.825  41.840  50.890  1.00  0.00    -0.387 OA
HETATM    5  C6  UNL     1      27.951  41.696  49.824  1.00  0.00     0.193 C 
HETATM    6  C7  UNL     1      27.320  40.320  49.850  1.00  0.00     0.193 C 
HETATM    7  O3  UNL     1      26.104  40.273  49.219  1.00  0.00    -0.389 OA
HETATM    8  C8  UNL     1      25.077  40.884  49.887  1.00  0.00     0.169 C 
HETATM    9  C9  UNL     1      24.528  40.025  50.992  1.00  0.00     0.053 C 
HETATM   10  C10 UNL     1      23.628  40.768  51.924  1.00  0.00     0.109 C 
HETATM   11  C22 UNL     1      24.449  41.403  53.056  1.00  0.00     0.205 C 
HETATM   12  O5  UNL     1      24.940  42.635  52.616  1.00  0.00    -0.302 OA
HETATM   13  C23 UNL     1      25.744  43.522  53.263  1.00  0.00     0.363 C 
HETATM   14  O6  UNL     1      25.371  44.724  53.521  1.00  0.00    -0.238 OA
ENDROOT
BRANCH  10  15
HETATM   15  N5  UNL     1      22.654  39.880  52.486  1.00  0.00    -0.369 N 
ATOM     16  H5  UNL     1      22.856  39.507  53.414  1.00  0.00     0.161 HD
BRANCH  15  17
HETATM   17  C11 UNL     1      21.567  39.510  51.950  1.00  0.00     0.103 A 
HETATM   18  C12 UNL     1      21.632  38.650  50.867  1.00  0.00     0.078 A 
HETATM   19  C13 UNL     1      20.467  38.208  50.234  1.00  0.00     0.053 A 
HETATM   20  C14 UNL     1      19.258  38.669  50.741  1.00  0.00     0.028 A 
HETATM   21  N7  UNL     1      20.271  37.389  49.186  1.00  0.00    -0.325 N 
HETATM   22  C15 UNL     1      19.209  39.524  51.817  1.00  0.00     0.105 A 
HETATM   23  C16 UNL     1      18.286  38.078  49.931  1.00  0.00     0.076 A 
HETATM   24  N6  UNL     1      20.356  39.913  52.382  1.00  0.00    -0.352 N 
ATOM     25  H6  UNL     1      20.312  40.547  53.179  1.00  0.00     0.166 HD
HETATM   26  S1  UNL     1      16.532  38.327  50.137  1.00  0.00    -0.047 SA
HETATM   27  C17 UNL     1      18.942  37.304  48.995  1.00  0.00     0.161 A 
BRANCH  27  28
HETATM   28  O4  UNL     1      18.294  36.562  48.016  1.00  0.00    -0.345 OA
ATOM     29  H4  UNL     1      18.636  35.754  47.653  1.00  0.00     0.219 HD
ENDBRANCH  27  28
BRANCH  21  30
HETATM   30  C18 UNL     1      21.308  36.728  48.417  1.00  0.00     0.136 C 
BRANCH  30  31
HETATM   31  C19 UNL     1      21.721  37.579  47.257  1.00  0.00     0.004 A 
HETATM   32  C20 UNL     1      23.213  37.955  47.276  1.00  0.00     0.007 A 
HETATM   33  C21 UNL     1      22.646  37.078  46.218  1.00  0.00     0.007 A 
ENDBRANCH  30  31
ENDBRANCH  21  30
ENDBRANCH  15  17
ENDBRANCH  10  15
BRANCH   1  34
HETATM   34  C3  UNL     1      27.549  43.822  54.936  1.00  0.00     0.231 C 
BRANCH  34  35
HETATM   35  C2  UNL     1      27.432  42.921  56.095  1.00  0.00     0.241 C 
HETATM   36  N3  UNL     1      28.431  42.937  57.096  1.00  0.00    -0.302 N 
HETATM   37  C1  UNL     1      28.415  43.885  57.972  1.00  0.00     0.203 C 
ATOM     38  H3  UNL     1      29.150  42.214  57.125  1.00  0.00     0.171 HD
HETATM   39  N1  UNL     1      29.413  43.898  58.970  1.00  0.00    -0.066 NA
HETATM   40  N2  UNL     1      27.438  44.918  57.983  1.00  0.00    -0.066 NA
HETATM   41  O1  UNL     1      26.468  42.135  56.220  1.00  0.00    -0.271 OA
ENDBRANCH  34  35
ENDBRANCH   1  34
TORSDOF 7
ENDMDL
MODEL 3
REMARK VINA RESULT: -8.877822700      1.224      1.506
REMARK  7 active torsions:
REMARK  status: ('A' for Active; 'I' for Inactive)
REMARK       I    between atoms: C1_2  and  N3_4 
REMARK       I    between atoms: N3_4  and  C2_6 
REMARK    1  A    between atoms: C2_6  and  C3_8 
REMARK    2  A    between atoms: C3_8  and  N4_9 
REMARK    3  A    between atoms: C10_18  and  N5_19 
REMARK    4  A    between atoms: N5_19  and  C11_21 
REMARK    5  A    between atoms: C17_30  and  O4_31 
REMARK    6  A    between atoms: N7_33  and  C18_34 
REMARK    7  A    between atoms: C18_34  and  C19_35 
ROOT
HETATM    1  N4  UNL     1      23.556  35.328  44.048  1.00  0.00    -0.317 N 
HETATM    2  C4  UNL     1      23.227  34.042  44.623  1.00  0.00     0.154 C 
HETATM    3  C5  UNL     1      22.051  33.378  43.915  1.00  0.00     0.187 C 
HETATM    4  O2  UNL     1      21.474  32.500  44.858  1.00  0.00    -0.387 OA
HETATM    5  C6  UNL     1      20.239  32.947  45.297  1.00  0.00     0.193 C 
HETATM    6  C7  UNL     1      20.250  33.119  46.801  1.00  0.00     0.193 C 
HETATM    7  O3  UNL     1      19.329  34.031  47.246  1.00  0.00    -0.389 OA
HETATM    8  C8  UNL     1      19.628  35.340  46.978  1.00  0.00     0.169 C 
HETATM    9  C9  UNL     1      20.637  35.900  47.940  1.00  0.00     0.053 C 
HETATM   10  C10 UNL     1      21.208  37.208  47.500  1.00  0.00     0.109 C 
HETATM   11  C22 UNL     1      22.438  36.975  46.611  1.00  0.00     0.205 C 
HETATM   12  O5  UNL     1      22.009  36.769  45.298  1.00  0.00    -0.302 OA
HETATM   13  C23 UNL     1      22.743  36.486  44.187  1.00  0.00     0.363 C 
HETATM   14  O6  UNL     1      22.755  37.258  43.160  1.00  0.00    -0.238 OA
ENDROOT
BRANCH  10  15
HETATM   15  N5  UNL     1      21.588  37.992  48.639  1.00  0.00    -0.369 N 
ATOM     16  H5  UNL     1      22.512  38.425  48.608  1.00  0.00     0.161 HD
BRANCH  15  17
HETATM   17  C11 UNL     1      20.896  38.203  49.679  1.00  0.00     0.103 A 
HETATM   18  C12 UNL     1      19.568  37.813  49.671  1.00  0.00     0.078 A 
HETATM   19  C13 UNL     1      18.755  38.021  50.788  1.00  0.00     0.053 A 
HETATM   20  C14 UNL     1      19.341  38.628  51.892  1.00  0.00     0.028 A 
HETATM   21  N7  UNL     1      17.462  37.737  51.022  1.00  0.00    -0.325 N 
HETATM   22  C15 UNL     1      20.662  39.011  51.886  1.00  0.00     0.105 A 
HETATM   23  C16 UNL     1      18.317  38.706  52.839  1.00  0.00     0.076 A 
HETATM   24  N6  UNL     1      21.390  38.788  50.789  1.00  0.00    -0.352 N 
ATOM     25  H6  UNL     1      22.368  39.075  50.790  1.00  0.00     0.166 HD
HETATM   26  S1  UNL     1      18.515  39.408  54.466  1.00  0.00    -0.047 SA
HETATM   27  C17 UNL     1      17.186  38.151  52.272  1.00  0.00     0.161 A 
BRANCH  27  28
HETATM   28  O4  UNL     1      15.964  38.055  52.924  1.00  0.00    -0.345 OA
ATOM     29  H4  UNL     1      15.189  37.664  52.537  1.00  0.00     0.219 HD
ENDBRANCH  27  28
BRANCH  21  30
HETATM   30  C18 UNL     1      16.549  37.101  50.091  1.00  0.00     0.136 C 
BRANCH  30  31
HETATM   31  C19 UNL     1      16.056  38.093  49.084  1.00  0.00     0.004 A 
HETATM   32  C20 UNL     1      16.219  37.619  47.630  1.00  0.00     0.007 A 
HETATM   33  C21 UNL     1      14.876  37.816  48.236  1.00  0.00     0.007 A 
ENDBRANCH  30  31
ENDBRANCH  21  30
ENDBRANCH  15  17
ENDBRANCH  10  15
BRANCH   1  34
HETATM   34  C3  UNL     1      24.789  35.413  43.291  1.00  0.00     0.231 C 
BRANCH  34  35
HETATM   35  C2  UNL     1      24.600  35.078  41.869  1.00  0.00     0.241 C 
HETATM   36  N3  UNL     1      24.515  36.116  40.912  1.00  0.00    -0.302 N 
HETATM   37  C1  UNL     1      25.604  36.686  40.518  1.00  0.00     0.203 C 
ATOM     38  H3  UNL     1      23.611  36.408  40.540  1.00  0.00     0.171 HD
HETATM   39  N1  UNL     1      25.516  37.721  39.563  1.00  0.00    -0.066 NA
HETATM   40  N2  UNL     1      26.891  36.321  40.999  1.00  0.00    -0.066 NA
HETATM   41  O1  UNL     1      24.511  33.893  41.481  1.00  0.00    -0.271 OA
ENDBRANCH  34  35
ENDBRANCH   1  34
TORSDOF 7
ENDMDL
MODEL 4
REMARK VINA RESULT: -8.717700541      6.379     10.817
REMARK  7 active torsions:
REMARK  status: ('A' for Active; 'I' for Inactive)
REMARK       I    between atoms: C1_2  and  N3_4 
REMARK       I    between atoms: N3_4  and  C2_6 
REMARK    1  A    between atoms: C2_6  and  C3_8 
REMARK    2  A    between atoms: C3_8  and  N4_9 
REMARK    3  A    between atoms: C10_18  and  N5_19 
REMARK    4  A    between atoms: N5_19  and  C11_21 
REMARK    5  A    between atoms: C17_30  and  O4_31 
REMARK    6  A    between atoms: N7_33  and  C18_34 
REMARK    7  A    between atoms: C18_34  and  C19_35 
ROOT
HETATM    1  N4  UNL     1      26.904  43.230  53.837  1.00  0.00    -0.317 N 
HETATM    2  C4  UNL     1      27.916  42.414  53.203  1.00  0.00     0.154 C 
HETATM    3  C5  UNL     1      28.532  43.100  51.990  1.00  0.00     0.187 C 
HETATM    4  O2  UNL     1      29.017  42.064  51.161  1.00  0.00    -0.387 OA
HETATM    5  C6  UNL     1      28.265  41.928  50.005  1.00  0.00     0.193 C 
HETATM    6  C7  UNL     1      27.705  40.525  49.909  1.00  0.00     0.193 C 
HETATM    7  O3  UNL     1      26.563  40.451  49.153  1.00  0.00    -0.389 OA
HETATM    8  C8  UNL     1      25.444  40.983  49.735  1.00  0.00     0.169 C 
HETATM    9  C9  UNL     1      24.829  40.051  50.741  1.00  0.00     0.053 C 
HETATM   10  C10 UNL     1      23.802  40.709  51.603  1.00  0.00     0.109 C 
HETATM   11  C22 UNL     1      24.470  41.330  52.839  1.00  0.00     0.205 C 
HETATM   12  O5  UNL     1      24.941  42.601  52.503  1.00  0.00    -0.302 OA
HETATM   13  C23 UNL     1      25.629  43.494  53.265  1.00  0.00     0.363 C 
HETATM   14  O6  UNL     1      25.172  44.665  53.530  1.00  0.00    -0.238 OA
ENDROOT
BRANCH  10  15
HETATM   15  N5  UNL     1      22.821  39.753  52.025  1.00  0.00    -0.369 N 
ATOM     16  H5  UNL     1      22.900  39.409  52.982  1.00  0.00     0.161 HD
BRANCH  15  17
HETATM   17  C11 UNL     1      21.867  39.291  51.331  1.00  0.00     0.103 A 
HETATM   18  C12 UNL     1      20.591  39.328  51.868  1.00  0.00     0.078 A 
HETATM   19  C13 UNL     1      19.499  38.833  51.150  1.00  0.00     0.053 A 
HETATM   20  C14 UNL     1      19.757  38.310  49.888  1.00  0.00     0.028 A 
HETATM   21  N7  UNL     1      18.190  38.758  51.446  1.00  0.00    -0.325 N 
HETATM   22  C15 UNL     1      21.029  38.279  49.369  1.00  0.00     0.105 A 
HETATM   23  C16 UNL     1      18.509  37.898  49.414  1.00  0.00     0.076 A 
HETATM   24  N6  UNL     1      22.034  38.766  50.101  1.00  0.00    -0.352 N 
ATOM     25  H6  UNL     1      22.976  38.740  49.710  1.00  0.00     0.166 HD
HETATM   26  S1  UNL     1      18.248  37.144  47.820  1.00  0.00    -0.047 SA
HETATM   27  C17 UNL     1      17.578  38.189  50.392  1.00  0.00     0.161 A 
BRANCH  27  28
HETATM   28  O4  UNL     1      16.222  37.919  50.271  1.00  0.00    -0.345 OA
ATOM     29  H4  UNL     1      15.615  38.467  49.788  1.00  0.00     0.219 HD
ENDBRANCH  27  28
BRANCH  21  30
HETATM   30  C18 UNL     1      17.569  39.210  52.677  1.00  0.00     0.136 C 
BRANCH  30  31
HETATM   31  C19 UNL     1      17.530  38.101  53.681  1.00  0.00     0.004 A 
HETATM   32  C20 UNL     1      18.394  38.372  54.925  1.00  0.00     0.007 A 
HETATM   33  C21 UNL     1      16.913  38.282  55.013  1.00  0.00     0.007 A 
ENDBRANCH  30  31
ENDBRANCH  21  30
ENDBRANCH  15  17
ENDBRANCH  10  15
BRANCH   1  34
HETATM   34  C3  UNL     1      27.236  43.801  55.128  1.00  0.00     0.231 C 
BRANCH  34  35
HETATM   35  C2  UNL     1      27.864  42.823  56.031  1.00  0.00     0.241 C 
HETATM   36  N3  UNL     1      29.041  43.174  56.732  1.00  0.00    -0.302 N 
HETATM   37  C1  UNL     1      28.938  43.913  57.785  1.00  0.00     0.203 C 
ATOM     38  H3  UNL     1      29.953  42.848  56.412  1.00  0.00     0.171 HD
HETATM   39  N1  UNL     1      30.115  44.261  58.482  1.00  0.00    -0.066 NA
HETATM   40  N2  UNL     1      27.695  44.394  58.279  1.00  0.00    -0.066 NA
HETATM   41  O1  UNL     1      27.383  41.681  56.197  1.00  0.00    -0.271 OA
ENDBRANCH  34  35
ENDBRANCH   1  34
TORSDOF 7
ENDMDL
MODEL 5
REMARK VINA RESULT: -8.631253620      3.746      9.770
REMARK  7 active torsions:
REMARK  status: ('A' for Active; 'I' for Inactive)
REMARK       I    between atoms: C1_2  and  N3_4 
REMARK       I    between atoms: N3_4  and  C2_6 
REMARK    1  A    between atoms: C2_6  and  C3_8 
REMARK    2  A    between atoms: C3_8  and  N4_9 
REMARK    3  A    between atoms: C10_18  and  N5_19 
REMARK    4  A    between atoms: N5_19  and  C11_21 
REMARK    5  A    between atoms: C17_30  and  O4_31 
REMARK    6  A    between atoms: N7_33  and  C18_34 
REMARK    7  A    between atoms: C18_34  and  C19_35 
ROOT
HETATM    1  N4  UNL     1      16.733  36.333  51.991  1.00  0.00    -0.317 N 
HETATM    2  C4  UNL     1      17.264  36.555  53.318  1.00  0.00     0.154 C 
HETATM    3  C5  UNL     1      16.577  37.715  54.027  1.00  0.00     0.187 C 
HETATM    4  O2  UNL     1      17.504  38.194  54.979  1.00  0.00    -0.387 OA
HETATM    5  C6  UNL     1      18.012  39.435  54.632  1.00  0.00     0.193 C 
HETATM    6  C7  UNL     1      19.520  39.369  54.520  1.00  0.00     0.193 C 
HETATM    7  O3  UNL     1      20.042  40.327  53.688  1.00  0.00    -0.389 OA
HETATM    8  C8  UNL     1      19.818  40.123  52.354  1.00  0.00     0.169 C 
HETATM    9  C9  UNL     1      20.762  39.111  51.767  1.00  0.00     0.053 C 
HETATM   10  C10 UNL     1      20.356  38.644  50.408  1.00  0.00     0.109 C 
HETATM   11  C22 UNL     1      19.408  37.441  50.524  1.00  0.00     0.205 C 
HETATM   12  O5  UNL     1      18.106  37.913  50.705  1.00  0.00    -0.302 OA
HETATM   13  C23 UNL     1      16.955  37.212  50.894  1.00  0.00     0.363 C 
HETATM   14  O6  UNL     1      15.962  37.293  50.082  1.00  0.00    -0.238 OA
ENDROOT
BRANCH  10  15
HETATM   15  N5  UNL     1      21.511  38.265  49.648  1.00  0.00    -0.369 N 
ATOM     16  H5  UNL     1      22.406  38.284  50.136  1.00  0.00     0.161 HD
BRANCH  15  17
HETATM   17  C11 UNL     1      21.534  37.910  48.432  1.00  0.00     0.103 A 
HETATM   18  C12 UNL     1      22.754  37.892  47.779  1.00  0.00     0.078 A 
HETATM   19  C13 UNL     1      22.841  37.510  46.437  1.00  0.00     0.053 A 
HETATM   20  C14 UNL     1      21.657  37.154  45.803  1.00  0.00     0.028 A 
HETATM   21  N7  UNL     1      23.887  37.412  45.599  1.00  0.00    -0.325 N 
HETATM   22  C15 UNL     1      20.452  37.177  46.464  1.00  0.00     0.105 A 
HETATM   23  C16 UNL     1      22.038  36.825  44.500  1.00  0.00     0.076 A 
HETATM   24  N6  UNL     1      20.430  37.551  47.746  1.00  0.00    -0.352 N 
ATOM     25  H6  UNL     1      19.532  37.567  48.231  1.00  0.00     0.166 HD
HETATM   26  S1  UNL     1      20.903  36.289  43.234  1.00  0.00    -0.047 SA
HETATM   27  C17 UNL     1      23.406  36.994  44.414  1.00  0.00     0.161 A 
BRANCH  27  28
HETATM   28  O4  UNL     1      24.142  36.760  43.260  1.00  0.00    -0.345 OA
ATOM     29  H4  UNL     1      24.838  36.116  43.199  1.00  0.00     0.219 HD
ENDBRANCH  27  28
BRANCH  21  30
HETATM   30  C18 UNL     1      25.270  37.706  45.926  1.00  0.00     0.136 C 
BRANCH  30  31
HETATM   31  C19 UNL     1      25.404  39.114  46.415  1.00  0.00     0.004 A 
HETATM   32  C20 UNL     1      26.255  39.239  47.691  1.00  0.00     0.007 A 
HETATM   33  C21 UNL     1      26.703  39.821  46.398  1.00  0.00     0.007 A 
ENDBRANCH  30  31
ENDBRANCH  21  30
ENDBRANCH  15  17
ENDBRANCH  10  15
BRANCH   1  34
HETATM   34  C3  UNL     1      15.930  35.142  51.795  1.00  0.00     0.231 C 
BRANCH  34  35
HETATM   35  C2  UNL     1      16.715  34.016  51.264  1.00  0.00     0.241 C 
HETATM   36  N3  UNL     1      17.095  32.960  52.126  1.00  0.00    -0.302 N 
HETATM   37  C1  UNL     1      16.218  32.062  52.427  1.00  0.00     0.203 C 
ATOM     38  H3  UNL     1      18.042  32.910  52.501  1.00  0.00     0.171 HD
HETATM   39  N1  UNL     1      16.600  31.010  53.287  1.00  0.00    -0.066 NA
HETATM   40  N2  UNL     1      14.885  32.079  51.935  1.00  0.00    -0.066 NA
HETATM   41  O1  UNL     1      17.060  33.966  50.064  1.00  0.00    -0.271 OA
ENDBRANCH  34  35
ENDBRANCH   1  34
TORSDOF 7
ENDMDL
