MODEL 1
REMARK VINA RESULT: -10.740598937      0.000      0.000
REMARK  6 active torsions:
REMARK  status: ('A' for Active; 'I' for Inactive)
REMARK    1  A    between atoms: C4_7  and  C5_8 
REMARK    2  A    between atoms: N6_22  and  C13_24 
REMARK    3  A    between atoms: C14_27  and  N8_28 
REMARK    4  A    between atoms: N8_28  and  C15_30 
REMARK    5  A    between atoms: C20_36  and  N9_37 
REMARK    6  A    between atoms: C25_45  and  N11_46 
ROOT
HETATM    1  N1  UNL     1      20.174  35.911  46.336  1.00  0.00    -0.191 NA
HETATM    2  C1  UNL     1      21.153  36.486  46.490  1.00  0.00     0.104 C 
HETATM    3  C2  UNL     1      22.382  37.205  46.671  1.00  0.00     0.104 A 
HETATM    4  C3  UNL     1      23.363  37.110  45.684  1.00  0.00     0.116 A 
HETATM    5  N2  UNL     1      24.514  37.787  45.853  1.00  0.00    -0.349 N 
ATOM      6  H2  UNL     1      25.240  37.727  45.139  1.00  0.00     0.167 HD
HETATM    7  C4  UNL     1      24.724  38.541  46.947  1.00  0.00     0.134 A 
HETATM    8  N5  UNL     1      23.772  38.629  47.899  1.00  0.00    -0.325 N 
ATOM      9  H5  UNL     1      23.943  39.204  48.723  1.00  0.00     0.169 HD
HETATM   10  C12 UNL     1      22.607  37.981  47.786  1.00  0.00     0.144 A 
HETATM   11  N6  UNL     1      21.672  38.044  48.664  1.00  0.00    -0.174 N 
ATOM     12  H6  UNL     1      20.809  37.525  48.504  1.00  0.00     0.186 HD
ENDROOT
BRANCH  11  13
HETATM   13  C13 UNL     1      21.801  38.820  49.860  1.00  0.00     0.713 A 
HETATM   14  N7  UNL     1      20.664  38.974  50.601  1.00  0.00    -0.021 N 
HETATM   15  C14 UNL     1      20.679  39.683  51.727  1.00  0.00     0.707 A 
ATOM     16  H7  UNL     1      19.795  38.540  50.289  1.00  0.00     0.203 HD
HETATM   17  N10 UNL     1      21.848  40.256  52.133  1.00  0.00    -0.022 N 
HETATM   18  C25 UNL     1      22.961  40.107  51.411  1.00  0.00     0.705 A 
ATOM     19  H10 UNL     1      21.872  40.802  52.994  1.00  0.00     0.203 HD
HETATM   20  N12 UNL     1      22.953  39.386  50.262  1.00  0.00    -0.021 N 
ATOM     21  H12 UNL     1      23.805  39.275  49.713  1.00  0.00     0.203 HD
BRANCH  15  22
HETATM   22  N8  UNL     1      19.691  39.913  52.502  1.00  0.00    -0.218 N 
ATOM     23  H8  UNL     1      18.984  40.550  52.133  1.00  0.00     0.178 HD
BRANCH  22  24
HETATM   24  C15 UNL     1      19.438  39.405  53.810  1.00  0.00     0.124 C 
HETATM   25  C16 UNL     1      19.975  40.399  54.827  1.00  0.00     0.054 C 
HETATM   26  C17 UNL     1      20.627  39.687  55.993  1.00  0.00     0.169 C 
HETATM   27  O1  UNL     1      19.625  39.363  56.895  1.00  0.00    -0.391 OA
HETATM   28  C18 UNL     1      18.790  38.434  56.324  1.00  0.00     0.169 C 
HETATM   29  C19 UNL     1      17.686  39.026  55.479  1.00  0.00     0.053 C 
HETATM   30  C20 UNL     1      18.013  39.039  53.997  1.00  0.00     0.108 C 
BRANCH  30  31
HETATM   31  N9  UNL     1      17.610  37.920  53.297  1.00  0.00    -0.383 N 
HETATM   32  C21 UNL     1      16.474  37.902  52.457  1.00  0.00     0.148 C 
HETATM   33  C22 UNL     1      16.930  37.705  51.000  1.00  0.00     0.187 C 
HETATM   34  O2  UNL     1      18.250  37.337  50.929  1.00  0.00    -0.385 OA
HETATM   35  C23 UNL     1      18.614  36.338  51.833  1.00  0.00     0.212 C 
HETATM   36  C24 UNL     1      18.322  36.717  53.276  1.00  0.00     0.084 C 
ENDBRANCH  30  31
ENDBRANCH  22  24
ENDBRANCH  15  22
BRANCH  18  37
HETATM   37  N11 UNL     1      24.067  40.640  51.776  1.00  0.00    -0.234 N 
ATOM     38 2H11 UNL     1      24.346  41.513  51.327  1.00  0.00     0.174 HD
ATOM     39 1H11 UNL     1      24.650  40.209  52.493  1.00  0.00     0.174 HD
ENDBRANCH  18  37
ENDBRANCH  11  13
BRANCH   7  40
HETATM   40  C5  UNL     1      25.985  39.256  47.073  1.00  0.00     0.079 A 
HETATM   41  C6  UNL     1      26.693  39.465  48.221  1.00  0.00     0.065 A 
HETATM   42  C7  UNL     1      27.839  40.195  47.900  1.00  0.00     0.061 A 
HETATM   43  N3  UNL     1      28.875  40.673  48.632  1.00  0.00    -0.364 N 
HETATM   44  C11 UNL     1      27.786  40.410  46.544  1.00  0.00     0.059 A 
HETATM   45  C8  UNL     1      29.865  41.363  48.043  1.00  0.00     0.088 A 
ATOM     46  H3  UNL     1      28.903  40.506  49.638  1.00  0.00     0.165 HD
HETATM   47  C9  UNL     1      29.866  41.608  46.692  1.00  0.00     0.019 A 
HETATM   48  C10 UNL     1      28.794  41.114  45.933  1.00  0.00     0.033 A 
HETATM   49  N4  UNL     1      26.668  39.841  46.051  1.00  0.00    -0.351 N 
ATOM     50  H4  UNL     1      26.381  39.847  45.072  1.00  0.00     0.166 HD
ENDBRANCH   7  40
TORSDOF 6
ENDMDL
MODEL 2
REMARK VINA RESULT: -10.538888241      3.550      6.831
REMARK  6 active torsions:
REMARK  status: ('A' for Active; 'I' for Inactive)
REMARK    1  A    between atoms: C4_7  and  C5_8 
REMARK    2  A    between atoms: N6_22  and  C13_24 
REMARK    3  A    between atoms: C14_27  and  N8_28 
REMARK    4  A    between atoms: N8_28  and  C15_30 
REMARK    5  A    between atoms: C20_36  and  N9_37 
REMARK    6  A    between atoms: C25_45  and  N11_46 
ROOT
HETATM    1  N1  UNL     1      17.287  39.381  52.887  1.00  0.00    -0.191 NA
HETATM    2  C1  UNL     1      17.992  39.037  52.053  1.00  0.00     0.104 C 
HETATM    3  C2  UNL     1      18.867  38.604  51.000  1.00  0.00     0.104 A 
HETATM    4  C3  UNL     1      18.336  37.834  49.965  1.00  0.00     0.116 A 
HETATM    5  N2  UNL     1      19.156  37.430  48.977  1.00  0.00    -0.349 N 
ATOM      6  H2  UNL     1      18.781  36.868  48.213  1.00  0.00     0.167 HD
HETATM    7  C4  UNL     1      20.461  37.756  48.979  1.00  0.00     0.134 A 
HETATM    8  N5  UNL     1      20.969  38.501  49.983  1.00  0.00    -0.325 N 
ATOM      9  H5  UNL     1      21.960  38.740  49.973  1.00  0.00     0.169 HD
HETATM   10  C12 UNL     1      20.204  38.932  50.991  1.00  0.00     0.144 A 
HETATM   11  N6  UNL     1      20.646  39.649  51.962  1.00  0.00    -0.174 N 
ATOM     12  H6  UNL     1      19.998  39.945  52.691  1.00  0.00     0.186 HD
ENDROOT
BRANCH  11  13
HETATM   13  C13 UNL     1      22.017  40.047  52.050  1.00  0.00     0.713 A 
HETATM   14  N7  UNL     1      22.498  40.265  53.310  1.00  0.00    -0.021 N 
HETATM   15  C14 UNL     1      23.760  40.644  53.500  1.00  0.00     0.707 A 
ATOM     16  H7  UNL     1      21.884  40.135  54.115  1.00  0.00     0.203 HD
HETATM   17  N10 UNL     1      24.570  40.812  52.415  1.00  0.00    -0.022 N 
HETATM   18  C25 UNL     1      24.103  40.599  51.183  1.00  0.00     0.705 A 
ATOM     19  H10 UNL     1      25.539  41.102  52.547  1.00  0.00     0.203 HD
HETATM   20  N12 UNL     1      22.818  40.213  50.982  1.00  0.00    -0.021 N 
ATOM     21  H12 UNL     1      22.465  40.053  50.039  1.00  0.00     0.203 HD
BRANCH  15  22
HETATM   22  N8  UNL     1      24.328  40.891  54.616  1.00  0.00    -0.218 N 
ATOM     23  H8  UNL     1      25.089  40.262  54.869  1.00  0.00     0.178 HD
BRANCH  22  24
HETATM   24  C15 UNL     1      24.045  41.924  55.557  1.00  0.00     0.124 C 
HETATM   25  C16 UNL     1      23.092  41.375  56.606  1.00  0.00     0.054 C 
HETATM   26  C17 UNL     1      22.053  42.407  56.992  1.00  0.00     0.169 C 
HETATM   27  O1  UNL     1      22.611  43.210  57.974  1.00  0.00    -0.391 OA
HETATM   28  C18 UNL     1      23.649  43.928  57.432  1.00  0.00     0.169 C 
HETATM   29  C19 UNL     1      24.974  43.200  57.431  1.00  0.00     0.053 C 
HETATM   30  C20 UNL     1      25.283  42.530  56.105  1.00  0.00     0.108 C 
BRANCH  30  31
HETATM   31  N9  UNL     1      25.991  43.304  55.207  1.00  0.00    -0.383 N 
HETATM   32  C21 UNL     1      27.400  43.280  55.109  1.00  0.00     0.148 C 
HETATM   33  C22 UNL     1      27.799  42.696  53.742  1.00  0.00     0.187 C 
HETATM   34  O2  UNL     1      26.722  42.608  52.897  1.00  0.00    -0.385 OA
HETATM   35  C23 UNL     1      25.920  43.749  52.872  1.00  0.00     0.212 C 
HETATM   36  C24 UNL     1      25.391  44.126  54.247  1.00  0.00     0.084 C 
ENDBRANCH  30  31
ENDBRANCH  22  24
ENDBRANCH  15  22
BRANCH  18  37
HETATM   37  N11 UNL     1      24.848  40.755  50.153  1.00  0.00    -0.234 N 
ATOM     38 2H11 UNL     1      24.960  41.699  49.784  1.00  0.00     0.174 HD
ATOM     39 1H11 UNL     1      25.319  39.962  49.716  1.00  0.00     0.174 HD
ENDBRANCH  18  37
ENDBRANCH  11  13
BRANCH   7  40
HETATM   40  C5  UNL     1      21.299  37.298  47.881  1.00  0.00     0.079 A 
HETATM   41  C6  UNL     1      21.123  36.166  47.138  1.00  0.00     0.065 A 
HETATM   42  C7  UNL     1      22.147  36.102  46.191  1.00  0.00     0.061 A 
HETATM   43  N3  UNL     1      22.460  35.215  45.216  1.00  0.00    -0.364 N 
HETATM   44  C11 UNL     1      22.924  37.218  46.395  1.00  0.00     0.059 A 
HETATM   45  C8  UNL     1      23.535  35.413  44.434  1.00  0.00     0.088 A 
ATOM     46  H3  UNL     1      21.875  34.392  45.074  1.00  0.00     0.165 HD
HETATM   47  C9  UNL     1      24.347  36.507  44.592  1.00  0.00     0.019 A 
HETATM   48  C10 UNL     1      24.024  37.428  45.601  1.00  0.00     0.033 A 
HETATM   49  N4  UNL     1      22.407  37.935  47.413  1.00  0.00    -0.351 N 
ATOM     50  H4  UNL     1      22.785  38.810  47.774  1.00  0.00     0.166 HD
ENDBRANCH   7  40
TORSDOF 6
ENDMDL
MODEL 3
REMARK VINA RESULT: -10.399597140      4.024      9.264
REMARK  6 active torsions:
REMARK  status: ('A' for Active; 'I' for Inactive)
REMARK    1  A    between atoms: C4_7  and  C5_8 
REMARK    2  A    between atoms: N6_22  and  C13_24 
REMARK    3  A    between atoms: C14_27  and  N8_28 
REMARK    4  A    between atoms: N8_28  and  C15_30 
REMARK    5  A    between atoms: C20_36  and  N9_37 
REMARK    6  A    between atoms: C25_45  and  N11_46 
ROOT
HETATM    1  N1  UNL     1      18.686  36.161  47.767  1.00  0.00    -0.191 NA
HETATM    2  C1  UNL     1      19.461  36.826  48.285  1.00  0.00     0.104 C 
HETATM    3  C2  UNL     1      20.426  37.658  48.946  1.00  0.00     0.104 A 
HETATM    4  C3  UNL     1      20.084  38.238  50.168  1.00  0.00     0.116 A 
HETATM    5  N2  UNL     1      20.991  39.015  50.789  1.00  0.00    -0.349 N 
ATOM      6  H2  UNL     1      20.754  39.444  51.683  1.00  0.00     0.167 HD
HETATM    7  C4  UNL     1      22.203  39.237  50.249  1.00  0.00     0.134 A 
HETATM    8  N5  UNL     1      22.528  38.674  49.067  1.00  0.00    -0.325 N 
ATOM      9  H5  UNL     1      23.451  38.850  48.669  1.00  0.00     0.169 HD
HETATM   10  C12 UNL     1      21.671  37.891  48.404  1.00  0.00     0.144 A 
HETATM   11  N6  UNL     1      21.943  37.329  47.281  1.00  0.00    -0.174 N 
ATOM     12  H6  UNL     1      21.238  36.740  46.840  1.00  0.00     0.186 HD
ENDROOT
BRANCH  11  13
HETATM   13  C13 UNL     1      23.205  37.504  46.630  1.00  0.00     0.713 A 
HETATM   14  N7  UNL     1      23.466  36.657  45.591  1.00  0.00    -0.021 N 
HETATM   15  C14 UNL     1      24.616  36.734  44.924  1.00  0.00     0.707 A 
ATOM     16  H7  UNL     1      22.773  35.958  45.323  1.00  0.00     0.203 HD
HETATM   17  N10 UNL     1      25.533  37.674  45.293  1.00  0.00    -0.022 N 
HETATM   18  C25 UNL     1      25.280  38.503  46.308  1.00  0.00     0.705 A 
ATOM     19  H10 UNL     1      26.417  37.743  44.790  1.00  0.00     0.203 HD
HETATM   20  N12 UNL     1      24.111  38.430  46.992  1.00  0.00    -0.021 N 
ATOM     21  H12 UNL     1      23.923  39.065  47.768  1.00  0.00     0.203 HD
BRANCH  15  22
HETATM   22  N8  UNL     1      24.987  36.000  43.948  1.00  0.00    -0.218 N 
ATOM     23  H8  UNL     1      25.306  35.064  44.200  1.00  0.00     0.178 HD
BRANCH  22  24
HETATM   24  C15 UNL     1      25.019  36.305  42.556  1.00  0.00     0.124 C 
HETATM   25  C16 UNL     1      26.428  36.741  42.189  1.00  0.00     0.054 C 
HETATM   26  C17 UNL     1      26.404  37.891  41.203  1.00  0.00     0.169 C 
HETATM   27  O1  UNL     1      26.282  37.347  39.934  1.00  0.00    -0.391 OA
HETATM   28  C18 UNL     1      25.052  36.746  39.819  1.00  0.00     0.169 C 
HETATM   29  C19 UNL     1      25.010  35.319  40.314  1.00  0.00     0.053 C 
HETATM   30  C20 UNL     1      24.482  35.196  41.732  1.00  0.00     0.108 C 
BRANCH  30  31
HETATM   31  N9  UNL     1      23.118  35.010  41.836  1.00  0.00    -0.383 N 
HETATM   32  C21 UNL     1      22.529  33.765  42.152  1.00  0.00     0.148 C 
HETATM   33  C22 UNL     1      21.846  33.866  43.527  1.00  0.00     0.187 C 
HETATM   34  O2  UNL     1      21.753  35.168  43.950  1.00  0.00    -0.385 OA
HETATM   35  C23 UNL     1      21.309  36.058  42.970  1.00  0.00     0.212 C 
HETATM   36  C24 UNL     1      22.181  36.043  41.725  1.00  0.00     0.084 C 
ENDBRANCH  30  31
ENDBRANCH  22  24
ENDBRANCH  15  22
BRANCH  18  37
HETATM   37  N11 UNL     1      26.131  39.390  46.669  1.00  0.00    -0.234 N 
ATOM     38 2H11 UNL     1      27.107  39.247  46.410  1.00  0.00     0.174 HD
ATOM     39 1H11 UNL     1      25.844  40.214  47.197  1.00  0.00     0.174 HD
ENDBRANCH  18  37
ENDBRANCH  11  13
BRANCH   7  40
HETATM   40  C5  UNL     1      23.146  40.081  50.968  1.00  0.00     0.079 A 
HETATM   41  C6  UNL     1      23.235  40.234  52.321  1.00  0.00     0.065 A 
HETATM   42  C7  UNL     1      24.270  41.132  52.592  1.00  0.00     0.061 A 
HETATM   43  N3  UNL     1      24.787  41.640  53.736  1.00  0.00    -0.364 N 
HETATM   44  C11 UNL     1      24.782  41.500  51.370  1.00  0.00     0.059 A 
HETATM   45  C8  UNL     1      25.809  42.513  53.694  1.00  0.00     0.088 A 
ATOM     46  H3  UNL     1      24.398  41.359  54.636  1.00  0.00     0.165 HD
HETATM   47  C9  UNL     1      26.360  42.917  52.504  1.00  0.00     0.019 A 
HETATM   48  C10 UNL     1      25.826  42.391  51.318  1.00  0.00     0.033 A 
HETATM   49  N4  UNL     1      24.102  40.863  50.397  1.00  0.00    -0.351 N 
ATOM     50  H4  UNL     1      24.275  40.952  49.396  1.00  0.00     0.166 HD
ENDBRANCH   7  40
TORSDOF 6
ENDMDL
MODEL 4
REMARK VINA RESULT: -10.122135161      3.773      7.659
REMARK  6 active torsions:
REMARK  status: ('A' for Active; 'I' for Inactive)
REMARK    1  A    between atoms: C4_7  and  C5_8 
REMARK    2  A    between atoms: N6_22  and  C13_24 
REMARK    3  A    between atoms: C14_27  and  N8_28 
REMARK    4  A    between atoms: N8_28  and  C15_30 
REMARK    5  A    between atoms: C20_36  and  N9_37 
REMARK    6  A    between atoms: C25_45  and  N11_46 
ROOT
HETATM    1  N1  UNL     1      22.540  37.006  46.159  1.00  0.00    -0.191 NA
HETATM    2  C1  UNL     1      21.871  36.627  47.008  1.00  0.00     0.104 C 
HETATM    3  C2  UNL     1      21.033  36.139  48.066  1.00  0.00     0.104 A 
HETATM    4  C3  UNL     1      20.344  34.941  47.875  1.00  0.00     0.116 A 
HETATM    5  N2  UNL     1      19.560  34.483  48.869  1.00  0.00    -0.349 N 
ATOM      6  H2  UNL     1      19.052  33.608  48.743  1.00  0.00     0.167 HD
HETATM    7  C4  UNL     1      19.436  35.159  50.025  1.00  0.00     0.134 A 
HETATM    8  N5  UNL     1      20.105  36.318  50.205  1.00  0.00    -0.325 N 
ATOM      9  H5  UNL     1      20.002  36.821  51.086  1.00  0.00     0.169 HD
HETATM   10  C12 UNL     1      20.899  36.822  49.255  1.00  0.00     0.144 A 
HETATM   11  N6  UNL     1      21.559  37.916  49.388  1.00  0.00    -0.174 N 
ATOM     12  H6  UNL     1      22.149  38.233  48.619  1.00  0.00     0.186 HD
ENDROOT
BRANCH  11  13
HETATM   13  C13 UNL     1      21.492  38.705  50.580  1.00  0.00     0.713 A 
HETATM   14  N7  UNL     1      20.245  38.903  51.099  1.00  0.00    -0.021 N 
HETATM   15  C14 UNL     1      20.075  39.627  52.203  1.00  0.00     0.707 A 
ATOM     16  H7  UNL     1      19.434  38.491  50.636  1.00  0.00     0.203 HD
HETATM   17  N10 UNL     1      21.168  40.170  52.812  1.00  0.00    -0.022 N 
HETATM   18  C25 UNL     1      22.389  39.978  52.307  1.00  0.00     0.705 A 
ATOM     19  H10 UNL     1      21.052  40.727  53.658  1.00  0.00     0.203 HD
HETATM   20  N12 UNL     1      22.569  39.241  51.182  1.00  0.00    -0.021 N 
ATOM     21  H12 UNL     1      23.503  39.097  50.800  1.00  0.00     0.203 HD
BRANCH  15  22
HETATM   22  N8  UNL     1      18.970  39.898  52.781  1.00  0.00    -0.218 N 
ATOM     23  H8  UNL     1      18.650  40.862  52.687  1.00  0.00     0.178 HD
BRANCH  22  24
HETATM   24  C15 UNL     1      18.120  39.040  53.540  1.00  0.00     0.124 C 
HETATM   25  C16 UNL     1      17.457  38.054  52.591  1.00  0.00     0.054 C 
HETATM   26  C17 UNL     1      16.011  37.817  52.975  1.00  0.00     0.169 C 
HETATM   27  O1  UNL     1      15.996  36.832  53.949  1.00  0.00    -0.391 OA
HETATM   28  C18 UNL     1      16.597  37.315  55.086  1.00  0.00     0.169 C 
HETATM   29  C19 UNL     1      18.100  37.160  55.109  1.00  0.00     0.053 C 
HETATM   30  C20 UNL     1      18.835  38.416  54.679  1.00  0.00     0.108 C 
BRANCH  30  31
HETATM   31  N9  UNL     1      19.158  39.285  55.701  1.00  0.00    -0.383 N 
HETATM   32  C21 UNL     1      20.191  39.033  56.631  1.00  0.00     0.148 C 
HETATM   33  C22 UNL     1      21.313  40.068  56.431  1.00  0.00     0.187 C 
HETATM   34  O2  UNL     1      20.912  41.095  55.614  1.00  0.00    -0.385 OA
HETATM   35  C23 UNL     1      19.647  41.603  55.914  1.00  0.00     0.212 C 
HETATM   36  C24 UNL     1      18.563  40.539  55.875  1.00  0.00     0.084 C 
ENDBRANCH  30  31
ENDBRANCH  22  24
ENDBRANCH  15  22
BRANCH  18  37
HETATM   37  N11 UNL     1      23.426  40.482  52.864  1.00  0.00    -0.234 N 
ATOM     38 2H11 UNL     1      23.321  40.873  53.801  1.00  0.00     0.174 HD
ATOM     39 1H11 UNL     1      24.329  40.492  52.391  1.00  0.00     0.174 HD
ENDBRANCH  18  37
ENDBRANCH  11  13
BRANCH   7  40
HETATM   40  C5  UNL     1      18.580  34.613  51.068  1.00  0.00     0.079 A 
HETATM   41  C6  UNL     1      18.743  34.757  52.415  1.00  0.00     0.065 A 
HETATM   42  C7  UNL     1      17.706  34.077  53.056  1.00  0.00     0.061 A 
HETATM   43  N3  UNL     1      17.378  33.889  54.357  1.00  0.00    -0.364 N 
HETATM   44  C11 UNL     1      16.935  33.532  52.057  1.00  0.00     0.059 A 
HETATM   45  C8  UNL     1      16.295  33.167  54.690  1.00  0.00     0.088 A 
ATOM     46  H3  UNL     1      17.958  34.299  55.089  1.00  0.00     0.165 HD
HETATM   47  C9  UNL     1      15.489  32.599  53.736  1.00  0.00     0.019 A 
HETATM   48  C10 UNL     1      15.826  32.793  52.388  1.00  0.00     0.033 A 
HETATM   49  N4  UNL     1      17.466  33.859  50.862  1.00  0.00    -0.351 N 
ATOM     50  H4  UNL     1      17.094  33.587  49.952  1.00  0.00     0.166 HD
ENDBRANCH   7  40
TORSDOF 6
ENDMDL
MODEL 5
REMARK VINA RESULT: -10.110243371      3.675     10.059
REMARK  6 active torsions:
REMARK  status: ('A' for Active; 'I' for Inactive)
REMARK    1  A    between atoms: C4_7  and  C5_8 
REMARK    2  A    between atoms: N6_22  and  C13_24 
REMARK    3  A    between atoms: C14_27  and  N8_28 
REMARK    4  A    between atoms: N8_28  and  C15_30 
REMARK    5  A    between atoms: C20_36  and  N9_37 
REMARK    6  A    between atoms: C25_45  and  N11_46 
ROOT
HETATM    1  N1  UNL     1      25.138  40.398  49.905  1.00  0.00    -0.191 NA
HETATM    2  C1  UNL     1      24.129  40.106  50.362  1.00  0.00     0.104 C 
HETATM    3  C2  UNL     1      22.866  39.749  50.943  1.00  0.00     0.104 A 
HETATM    4  C3  UNL     1      22.569  40.202  52.229  1.00  0.00     0.116 A 
HETATM    5  N2  UNL     1      21.384  39.870  52.772  1.00  0.00    -0.349 N 
ATOM      6  H2  UNL     1      21.154  40.196  53.711  1.00  0.00     0.167 HD
HETATM    7  C4  UNL     1      20.497  39.116  52.099  1.00  0.00     0.134 A 
HETATM    8  N5  UNL     1      20.788  38.680  50.855  1.00  0.00    -0.325 N 
ATOM      9  H5  UNL     1      20.107  38.108  50.355  1.00  0.00     0.169 HD
HETATM   10  C12 UNL     1      21.949  38.979  50.263  1.00  0.00     0.144 A 
HETATM   11  N6  UNL     1      22.263  38.591  49.079  1.00  0.00    -0.174 N 
ATOM     12  H6  UNL     1      23.166  38.865  48.693  1.00  0.00     0.186 HD
ENDROOT
BRANCH  11  13
HETATM   13  C13 UNL     1      21.385  37.787  48.284  1.00  0.00     0.713 A 
HETATM   14  N7  UNL     1      21.979  36.809  47.538  1.00  0.00    -0.021 N 
HETATM   15  C14 UNL     1      21.250  36.011  46.760  1.00  0.00     0.707 A 
ATOM     16  H7  UNL     1      22.991  36.688  47.577  1.00  0.00     0.203 HD
HETATM   17  N10 UNL     1      19.898  36.184  46.719  1.00  0.00    -0.022 N 
HETATM   18  C25 UNL     1      19.315  37.138  47.447  1.00  0.00     0.705 A 
ATOM     19  H10 UNL     1      19.328  35.578  46.127  1.00  0.00     0.203 HD
HETATM   20  N12 UNL     1      20.052  37.955  48.241  1.00  0.00    -0.021 N 
ATOM     21  H12 UNL     1      19.602  38.684  48.796  1.00  0.00     0.203 HD
BRANCH  15  22
HETATM   22  N8  UNL     1      21.678  35.073  46.009  1.00  0.00    -0.218 N 
ATOM     23  H8  UNL     1      21.805  34.169  46.465  1.00  0.00     0.178 HD
BRANCH  22  24
HETATM   24  C15 UNL     1      22.004  35.112  44.621  1.00  0.00     0.124 C 
HETATM   25  C16 UNL     1      23.421  35.638  44.472  1.00  0.00     0.054 C 
HETATM   26  C17 UNL     1      23.535  36.569  43.282  1.00  0.00     0.169 C 
HETATM   27  O1  UNL     1      23.748  35.786  42.160  1.00  0.00    -0.391 OA
HETATM   28  C18 UNL     1      22.627  35.029  41.921  1.00  0.00     0.169 C 
HETATM   29  C19 UNL     1      22.582  33.726  42.686  1.00  0.00     0.053 C 
HETATM   30  C20 UNL     1      21.755  33.810  43.956  1.00  0.00     0.108 C 
BRANCH  30  31
HETATM   31  N9  UNL     1      20.422  33.483  43.810  1.00  0.00    -0.383 N 
HETATM   32  C21 UNL     1      19.840  32.335  44.391  1.00  0.00     0.148 C 
HETATM   33  C22 UNL     1      18.824  32.771  45.461  1.00  0.00     0.187 C 
HETATM   34  O2  UNL     1      18.556  34.115  45.384  1.00  0.00    -0.385 OA
HETATM   35  C23 UNL     1      18.330  34.580  44.088  1.00  0.00     0.212 C 
HETATM   36  C24 UNL     1      19.490  34.291  43.150  1.00  0.00     0.084 C 
ENDBRANCH  30  31
ENDBRANCH  22  24
ENDBRANCH  15  22
BRANCH  18  37
HETATM   37  N11 UNL     1      18.047  37.316  47.418  1.00  0.00    -0.234 N 
ATOM     38 2H11 UNL     1      17.546  37.315  48.307  1.00  0.00     0.174 HD
ATOM     39 1H11 UNL     1      17.552  37.456  46.538  1.00  0.00     0.174 HD
ENDBRANCH  18  37
ENDBRANCH  11  13
BRANCH   7  40
HETATM   40  C5  UNL     1      19.227  38.793  52.733  1.00  0.00     0.079 A 
HETATM   41  C6  UNL     1      18.730  39.335  53.882  1.00  0.00     0.065 A 
HETATM   42  C7  UNL     1      17.488  38.748  54.139  1.00  0.00     0.061 A 
HETATM   43  N3  UNL     1      16.571  38.903  55.124  1.00  0.00    -0.364 N 
HETATM   44  C11 UNL     1      17.272  37.854  53.118  1.00  0.00     0.059 A 
HETATM   45  C8  UNL     1      15.436  38.184  55.118  1.00  0.00     0.088 A 
ATOM     46  H3  UNL     1      16.743  39.571  55.876  1.00  0.00     0.165 HD
HETATM   47  C9  UNL     1      15.166  37.276  54.125  1.00  0.00     0.019 A 
HETATM   48  C10 UNL     1      16.115  37.115  53.103  1.00  0.00     0.033 A 
HETATM   49  N4  UNL     1      18.322  37.886  52.274  1.00  0.00    -0.351 N 
ATOM     50  H4  UNL     1      18.422  37.324  51.429  1.00  0.00     0.166 HD
ENDBRANCH   7  40
TORSDOF 6
ENDMDL
