MODEL 1
REMARK VINA RESULT: -10.453688655      0.000      0.000
REMARK  11 active torsions:
REMARK  status: ('A' for Active; 'I' for Inactive)
REMARK    1  A    between atoms: C6_6  and  C7_7 
REMARK    2  A    between atoms: C8_11  and  C9_12 
REMARK    3  A    between atoms: C9_12  and  C10_13 
REMARK    4  A    between atoms: C10_13  and  C11_14 
REMARK    5  A    between atoms: C11_14  and  C12_15 
REMARK    6  A    between atoms: C12_15  and  C13_17 
REMARK    7  A    between atoms: C12_15  and  C14_20 
REMARK    8  A    between atoms: C14_20  and  C15_21 
REMARK    9  A    between atoms: C14_20  and  N1_30 
REMARK   10  A    between atoms: C15_21  and  C16_22 
REMARK   11  A    between atoms: C18_24  and  C19_25 
ROOT
HETATM    1  C12 UNL     1      61.481  41.945  23.038  1.00  0.00     0.151 C 
HETATM    2 CL1  UNL     1      61.138  43.639  23.439  1.00  0.00    -0.105 Cl
ENDROOT
BRANCH   1   3
HETATM    3  C11 UNL     1      62.693  41.754  22.210  1.00  0.00     0.039 C 
BRANCH   3   4
HETATM    4  C10 UNL     1      63.610  42.938  22.123  1.00  0.00     0.003 C 
BRANCH   4   5
HETATM    5  C9  UNL     1      63.859  43.336  20.657  1.00  0.00     0.006 C 
BRANCH   5   6
HETATM    6  C8  UNL     1      62.643  44.022  20.114  1.00  0.00     0.002 C 
HETATM    7  C2  UNL     1      62.923  45.403  19.575  1.00  0.00    -0.014 C 
HETATM    8  C1  UNL     1      64.158  45.536  18.754  1.00  0.00     0.010 C 
HETATM    9  C3  UNL     1      61.781  46.035  18.842  1.00  0.00     0.005 C 
HETATM   10  C4  UNL     1      60.503  45.364  19.255  1.00  0.00     0.001 C 
HETATM   11  C5  UNL     1      60.492  43.894  18.925  1.00  0.00     0.014 C 
HETATM   12  C6  UNL     1      61.737  43.173  19.318  1.00  0.00     0.098 C 
BRANCH  12  13
HETATM   13  C7  UNL     1      62.295  42.452  18.143  1.00  0.00     0.391 C 
HETATM   14  F1  UNL     1      61.490  42.554  17.026  1.00  0.00    -0.171 F 
HETATM   15  F2  UNL     1      62.380  41.087  18.396  1.00  0.00    -0.171 F 
HETATM   16  F3  UNL     1      63.555  42.837  17.764  1.00  0.00    -0.171 F 
ENDBRANCH  12  13
ENDBRANCH   5   6
ENDBRANCH   4   5
ENDBRANCH   3   4
ENDBRANCH   1   3
BRANCH   1  17
HETATM   17  C13 UNL     1      60.255  41.479  22.285  1.00  0.00     0.200 C 
HETATM   18  O1  UNL     1      59.097  41.844  22.575  1.00  0.00    -0.646 OA
HETATM   19  O2  UNL     1      60.399  40.602  21.222  1.00  0.00    -0.646 OA
ENDBRANCH   1  17
BRANCH   1  20
HETATM   20  C14 UNL     1      61.571  41.171  24.327  1.00  0.00     0.196 C 
BRANCH  20  21
HETATM   21  C15 UNL     1      61.130  39.750  24.215  1.00  0.00     0.099 C 
BRANCH  21  22
HETATM   22  C16 UNL     1      62.286  38.798  24.335  1.00  0.00     0.055 A 
HETATM   23  C17 UNL     1      63.373  38.756  23.461  1.00  0.00     0.047 A 
HETATM   24  C18 UNL     1      64.210  37.760  23.895  1.00  0.00     0.030 A 
HETATM   25  C20 UNL     1      63.613  37.225  25.016  1.00  0.00     0.154 A 
HETATM   26  O3  UNL     1      62.493  37.870  25.224  1.00  0.00    -0.326 OA
BRANCH  24  27
HETATM   27  C19 UNL     1      65.505  37.358  23.264  1.00  0.00     0.388 C 
HETATM   28  F4  UNL     1      65.588  35.976  23.160  1.00  0.00    -0.209 F 
HETATM   29  F5  UNL     1      65.624  37.910  21.998  1.00  0.00    -0.209 F 
ENDBRANCH  24  27
ENDBRANCH  21  22
ENDBRANCH  20  21
BRANCH  20  30
HETATM   30  N1  UNL     1      61.046  41.881  25.469  1.00  0.00    -0.148 N 
HETATM   31  O4  UNL     1      61.674  42.725  26.142  1.00  0.00    -0.536 OA
HETATM   32  O5  UNL     1      59.750  41.650  25.936  1.00  0.00    -0.536 OA
ENDBRANCH  20  30
ENDBRANCH   1  20
TORSDOF 11
ENDMDL
MODEL 2
REMARK VINA RESULT: -10.359243001      1.569      2.415
REMARK  11 active torsions:
REMARK  status: ('A' for Active; 'I' for Inactive)
REMARK    1  A    between atoms: C6_6  and  C7_7 
REMARK    2  A    between atoms: C8_11  and  C9_12 
REMARK    3  A    between atoms: C9_12  and  C10_13 
REMARK    4  A    between atoms: C10_13  and  C11_14 
REMARK    5  A    between atoms: C11_14  and  C12_15 
REMARK    6  A    between atoms: C12_15  and  C13_17 
REMARK    7  A    between atoms: C12_15  and  C14_20 
REMARK    8  A    between atoms: C14_20  and  C15_21 
REMARK    9  A    between atoms: C14_20  and  N1_30 
REMARK   10  A    between atoms: C15_21  and  C16_22 
REMARK   11  A    between atoms: C18_24  and  C19_25 
ROOT
HETATM    1  C12 UNL     1      61.294  41.971  22.894  1.00  0.00     0.151 C 
HETATM    2 CL1  UNL     1      59.550  42.102  22.593  1.00  0.00    -0.105 Cl
ENDROOT
BRANCH   1   3
HETATM    3  C11 UNL     1      61.987  43.273  23.003  1.00  0.00     0.039 C 
BRANCH   3   4
HETATM    4  C10 UNL     1      61.269  44.441  22.395  1.00  0.00     0.003 C 
BRANCH   4   5
HETATM    5  C9  UNL     1      62.117  45.096  21.290  1.00  0.00     0.006 C 
BRANCH   5   6
HETATM    6  C8  UNL     1      62.271  44.139  20.148  1.00  0.00     0.002 C 
HETATM    7  C2  UNL     1      61.057  44.068  19.255  1.00  0.00    -0.014 C 
HETATM    8  C1  UNL     1      60.427  45.375  18.919  1.00  0.00     0.010 C 
HETATM    9  C3  UNL     1      61.249  43.282  17.996  1.00  0.00     0.005 C 
HETATM   10  C4  UNL     1      62.415  42.354  18.171  1.00  0.00     0.001 C 
HETATM   11  C5  UNL     1      63.701  43.090  18.441  1.00  0.00     0.014 C 
HETATM   12  C6  UNL     1      63.584  44.157  19.477  1.00  0.00     0.098 C 
BRANCH  12  13
HETATM   13  C7  UNL     1      64.081  45.448  18.931  1.00  0.00     0.391 C 
HETATM   14  F1  UNL     1      63.855  45.572  17.574  1.00  0.00    -0.171 F 
HETATM   15  F2  UNL     1      65.461  45.545  19.071  1.00  0.00    -0.171 F 
HETATM   16  F3  UNL     1      63.569  46.571  19.526  1.00  0.00    -0.171 F 
ENDBRANCH  12  13
ENDBRANCH   5   6
ENDBRANCH   4   5
ENDBRANCH   3   4
ENDBRANCH   1   3
BRANCH   1  17
HETATM   17  C13 UNL     1      61.825  41.193  21.710  1.00  0.00     0.200 C 
HETATM   18  O1  UNL     1      63.041  41.097  21.447  1.00  0.00    -0.646 OA
HETATM   19  O2  UNL     1      60.937  40.552  20.862  1.00  0.00    -0.646 OA
ENDBRANCH   1  17
BRANCH   1  20
HETATM   20  C14 UNL     1      61.490  41.140  24.135  1.00  0.00     0.196 C 
BRANCH  20  21
HETATM   21  C15 UNL     1      61.083  39.713  23.981  1.00  0.00     0.099 C 
BRANCH  21  22
HETATM   22  C16 UNL     1      62.227  38.776  24.247  1.00  0.00     0.055 A 
HETATM   23  C17 UNL     1      63.355  38.650  23.435  1.00  0.00     0.047 A 
HETATM   24  C18 UNL     1      64.165  37.700  24.003  1.00  0.00     0.030 A 
HETATM   25  C20 UNL     1      63.511  37.274  25.139  1.00  0.00     0.154 A 
HETATM   26  O3  UNL     1      62.386  37.937  25.230  1.00  0.00    -0.326 OA
BRANCH  24  27
HETATM   27  C19 UNL     1      65.487  37.239  23.476  1.00  0.00     0.388 C 
HETATM   28  F4  UNL     1      65.683  37.700  22.182  1.00  0.00    -0.209 F 
HETATM   29  F5  UNL     1      66.520  37.698  24.277  1.00  0.00    -0.209 F 
ENDBRANCH  24  27
ENDBRANCH  21  22
ENDBRANCH  20  21
BRANCH  20  30
HETATM   30  N1  UNL     1      61.022  41.777  25.343  1.00  0.00    -0.148 N 
HETATM   31  O4  UNL     1      61.653  42.636  25.993  1.00  0.00    -0.536 OA
HETATM   32  O5  UNL     1      59.786  41.451  25.905  1.00  0.00    -0.536 OA
ENDBRANCH  20  30
ENDBRANCH   1  20
TORSDOF 11
ENDMDL
MODEL 3
REMARK VINA RESULT: -10.278508809      0.717      1.274
REMARK  11 active torsions:
REMARK  status: ('A' for Active; 'I' for Inactive)
REMARK    1  A    between atoms: C6_6  and  C7_7 
REMARK    2  A    between atoms: C8_11  and  C9_12 
REMARK    3  A    between atoms: C9_12  and  C10_13 
REMARK    4  A    between atoms: C10_13  and  C11_14 
REMARK    5  A    between atoms: C11_14  and  C12_15 
REMARK    6  A    between atoms: C12_15  and  C13_17 
REMARK    7  A    between atoms: C12_15  and  C14_20 
REMARK    8  A    between atoms: C14_20  and  C15_21 
REMARK    9  A    between atoms: C14_20  and  N1_30 
REMARK   10  A    between atoms: C15_21  and  C16_22 
REMARK   11  A    between atoms: C18_24  and  C19_25 
ROOT
HETATM    1  C12 UNL     1      60.869  41.325  22.871  1.00  0.00     0.151 C 
HETATM    2 CL1  UNL     1      60.497  43.056  23.003  1.00  0.00    -0.105 Cl
ENDROOT
BRANCH   1   3
HETATM    3  C11 UNL     1      61.785  40.988  21.760  1.00  0.00     0.039 C 
BRANCH   3   4
HETATM    4  C10 UNL     1      63.173  41.545  21.873  1.00  0.00     0.003 C 
BRANCH   4   5
HETATM    5  C9  UNL     1      63.622  42.181  20.546  1.00  0.00     0.006 C 
BRANCH   5   6
HETATM    6  C8  UNL     1      62.652  43.254  20.155  1.00  0.00     0.002 C 
HETATM    7  C2  UNL     1      63.286  44.617  20.022  1.00  0.00    -0.014 C 
HETATM    8  C1  UNL     1      64.600  44.651  19.322  1.00  0.00     0.010 C 
HETATM    9  C3  UNL     1      62.396  45.669  19.437  1.00  0.00     0.005 C 
HETATM   10  C4  UNL     1      60.965  45.244  19.597  1.00  0.00     0.001 C 
HETATM   11  C5  UNL     1      60.665  43.953  18.882  1.00  0.00     0.014 C 
HETATM   12  C6  UNL     1      61.671  42.877  19.120  1.00  0.00     0.098 C 
BRANCH  12  13
HETATM   13  C7  UNL     1      62.178  42.364  17.820  1.00  0.00     0.391 C 
HETATM   14  F1  UNL     1      63.345  42.985  17.422  1.00  0.00    -0.171 F 
HETATM   15  F2  UNL     1      61.271  42.625  16.799  1.00  0.00    -0.171 F 
HETATM   16  F3  UNL     1      62.407  41.014  17.774  1.00  0.00    -0.171 F 
ENDBRANCH  12  13
ENDBRANCH   5   6
ENDBRANCH   4   5
ENDBRANCH   3   4
ENDBRANCH   1   3
BRANCH   1  17
HETATM   17  C13 UNL     1      59.524  40.666  22.659  1.00  0.00     0.200 C 
HETATM   18  O1  UNL     1      59.348  39.712  21.874  1.00  0.00    -0.646 OA
HETATM   19  O2  UNL     1      58.420  41.127  23.358  1.00  0.00    -0.646 OA
ENDBRANCH   1  17
BRANCH   1  20
HETATM   20  C14 UNL     1      61.420  40.866  24.195  1.00  0.00     0.196 C 
BRANCH  20  21
HETATM   21  C15 UNL     1      61.091  39.451  24.533  1.00  0.00     0.099 C 
BRANCH  21  22
HETATM   22  C16 UNL     1      62.319  38.586  24.564  1.00  0.00     0.055 A 
HETATM   23  C17 UNL     1      63.323  38.598  23.594  1.00  0.00     0.047 A 
HETATM   24  C18 UNL     1      64.266  37.675  23.969  1.00  0.00     0.030 A 
HETATM   25  C20 UNL     1      63.813  37.128  25.151  1.00  0.00     0.154 A 
HETATM   26  O3  UNL     1      62.673  37.698  25.449  1.00  0.00    -0.326 OA
BRANCH  24  27
HETATM   27  C19 UNL     1      65.524  37.349  23.229  1.00  0.00     0.388 C 
HETATM   28  F4  UNL     1      65.659  35.976  23.078  1.00  0.00    -0.209 F 
HETATM   29  F5  UNL     1      65.521  37.939  21.975  1.00  0.00    -0.209 F 
ENDBRANCH  24  27
ENDBRANCH  21  22
ENDBRANCH  20  21
BRANCH  20  30
HETATM   30  N1  UNL     1      61.217  41.809  25.269  1.00  0.00    -0.148 N 
HETATM   31  O4  UNL     1      60.232  41.822  26.037  1.00  0.00    -0.536 OA
HETATM   32  O5  UNL     1      62.136  42.829  25.526  1.00  0.00    -0.536 OA
ENDBRANCH  20  30
ENDBRANCH   1  20
TORSDOF 11
ENDMDL
MODEL 4
REMARK VINA RESULT: -10.184673918      1.587      2.968
REMARK  11 active torsions:
REMARK  status: ('A' for Active; 'I' for Inactive)
REMARK    1  A    between atoms: C6_6  and  C7_7 
REMARK    2  A    between atoms: C8_11  and  C9_12 
REMARK    3  A    between atoms: C9_12  and  C10_13 
REMARK    4  A    between atoms: C10_13  and  C11_14 
REMARK    5  A    between atoms: C11_14  and  C12_15 
REMARK    6  A    between atoms: C12_15  and  C13_17 
REMARK    7  A    between atoms: C12_15  and  C14_20 
REMARK    8  A    between atoms: C14_20  and  C15_21 
REMARK    9  A    between atoms: C14_20  and  N1_30 
REMARK   10  A    between atoms: C15_21  and  C16_22 
REMARK   11  A    between atoms: C18_24  and  C19_25 
ROOT
HETATM    1  C12 UNL     1      61.434  42.322  24.100  1.00  0.00     0.151 C 
HETATM    2 CL1  UNL     1      63.207  42.288  24.008  1.00  0.00    -0.105 Cl
ENDROOT
BRANCH   1   3
HETATM    3  C11 UNL     1      60.824  43.541  23.525  1.00  0.00     0.039 C 
BRANCH   3   4
HETATM    4  C10 UNL     1      61.762  44.448  22.785  1.00  0.00     0.003 C 
BRANCH   4   5
HETATM    5  C9  UNL     1      61.628  44.256  21.263  1.00  0.00     0.006 C 
BRANCH   5   6
HETATM    6  C8  UNL     1      62.941  44.554  20.607  1.00  0.00     0.002 C 
HETATM    7  C2  UNL     1      63.861  43.360  20.532  1.00  0.00    -0.014 C 
HETATM    8  C1  UNL     1      63.218  42.077  20.135  1.00  0.00     0.010 C 
HETATM    9  C3  UNL     1      65.091  43.565  19.705  1.00  0.00     0.005 C 
HETATM   10  C4  UNL     1      65.354  45.037  19.575  1.00  0.00     0.001 C 
HETATM   11  C5  UNL     1      64.225  45.765  18.892  1.00  0.00     0.014 C 
HETATM   12  C6  UNL     1      62.872  45.410  19.408  1.00  0.00     0.098 C 
BRANCH  12  13
HETATM   13  C7  UNL     1      61.999  44.982  18.283  1.00  0.00     0.391 C 
HETATM   14  F1  UNL     1      62.346  45.575  17.085  1.00  0.00    -0.171 F 
HETATM   15  F2  UNL     1      60.682  45.372  18.504  1.00  0.00    -0.171 F 
HETATM   16  F3  UNL     1      61.952  43.631  18.061  1.00  0.00    -0.171 F 
ENDBRANCH  12  13
ENDBRANCH   5   6
ENDBRANCH   4   5
ENDBRANCH   3   4
ENDBRANCH   1   3
BRANCH   1  17
HETATM   17  C13 UNL     1      61.132  42.233  25.579  1.00  0.00     0.200 C 
HETATM   18  O1  UNL     1      60.359  41.383  26.066  1.00  0.00    -0.646 OA
HETATM   19  O2  UNL     1      61.726  43.129  26.452  1.00  0.00    -0.646 OA
ENDBRANCH   1  17
BRANCH   1  20
HETATM   20  C14 UNL     1      60.910  41.079  23.431  1.00  0.00     0.196 C 
BRANCH  20  21
HETATM   21  C15 UNL     1      61.922  40.365  22.598  1.00  0.00     0.099 C 
BRANCH  21  22
HETATM   22  C16 UNL     1      62.631  39.295  23.380  1.00  0.00     0.055 A 
HETATM   23  C17 UNL     1      63.907  38.812  23.086  1.00  0.00     0.047 A 
HETATM   24  C18 UNL     1      64.204  37.848  24.016  1.00  0.00     0.030 A 
HETATM   25  C20 UNL     1      63.106  37.770  24.845  1.00  0.00     0.154 A 
HETATM   26  O3  UNL     1      62.220  38.638  24.426  1.00  0.00    -0.326 OA
BRANCH  24  27
HETATM   27  C19 UNL     1      65.471  37.057  24.092  1.00  0.00     0.388 C 
HETATM   28  F4  UNL     1      65.561  36.175  23.024  1.00  0.00    -0.209 F 
HETATM   29  F5  UNL     1      66.574  37.897  24.073  1.00  0.00    -0.209 F 
ENDBRANCH  24  27
ENDBRANCH  21  22
ENDBRANCH  20  21
BRANCH  20  30
HETATM   30  N1  UNL     1      59.623  41.254  22.803  1.00  0.00    -0.148 N 
HETATM   31  O4  UNL     1      58.525  41.238  23.398  1.00  0.00    -0.536 OA
HETATM   32  O5  UNL     1      59.505  41.442  21.424  1.00  0.00    -0.536 OA
ENDBRANCH  20  30
ENDBRANCH   1  20
TORSDOF 11
ENDMDL
MODEL 5
REMARK VINA RESULT: -10.135098770      1.723      3.030
REMARK  11 active torsions:
REMARK  status: ('A' for Active; 'I' for Inactive)
REMARK    1  A    between atoms: C6_6  and  C7_7 
REMARK    2  A    between atoms: C8_11  and  C9_12 
REMARK    3  A    between atoms: C9_12  and  C10_13 
REMARK    4  A    between atoms: C10_13  and  C11_14 
REMARK    5  A    between atoms: C11_14  and  C12_15 
REMARK    6  A    between atoms: C12_15  and  C13_17 
REMARK    7  A    between atoms: C12_15  and  C14_20 
REMARK    8  A    between atoms: C14_20  and  C15_21 
REMARK    9  A    between atoms: C14_20  and  N1_30 
REMARK   10  A    between atoms: C15_21  and  C16_22 
REMARK   11  A    between atoms: C18_24  and  C19_25 
ROOT
HETATM    1  C12 UNL     1      61.475  42.263  23.776  1.00  0.00     0.151 C 
HETATM    2 CL1  UNL     1      63.248  42.197  23.841  1.00  0.00    -0.105 Cl
ENDROOT
BRANCH   1   3
HETATM    3  C11 UNL     1      60.939  43.500  23.166  1.00  0.00     0.039 C 
BRANCH   3   4
HETATM    4  C10 UNL     1      61.965  44.508  22.740  1.00  0.00     0.003 C 
BRANCH   4   5
HETATM    5  C9  UNL     1      61.662  45.041  21.329  1.00  0.00     0.006 C 
BRANCH   5   6
HETATM    6  C8  UNL     1      62.045  44.009  20.314  1.00  0.00     0.002 C 
HETATM    7  C2  UNL     1      60.998  43.794  19.249  1.00  0.00    -0.014 C 
HETATM    8  C1  UNL     1      60.370  45.030  18.705  1.00  0.00     0.010 C 
HETATM    9  C3  UNL     1      61.429  42.925  18.109  1.00  0.00     0.005 C 
HETATM   10  C4  UNL     1      62.595  42.086  18.547  1.00  0.00     0.001 C 
HETATM   11  C5  UNL     1      63.782  42.919  18.953  1.00  0.00     0.014 C 
HETATM   12  C6  UNL     1      63.448  44.054  19.860  1.00  0.00     0.098 C 
BRANCH  12  13
HETATM   13  C7  UNL     1      63.965  45.326  19.289  1.00  0.00     0.391 C 
HETATM   14  F1  UNL     1      63.853  45.375  17.913  1.00  0.00    -0.171 F 
HETATM   15  F2  UNL     1      65.327  45.462  19.538  1.00  0.00    -0.171 F 
HETATM   16  F3  UNL     1      63.385  46.466  19.779  1.00  0.00    -0.171 F 
ENDBRANCH  12  13
ENDBRANCH   5   6
ENDBRANCH   4   5
ENDBRANCH   3   4
ENDBRANCH   1   3
BRANCH   1  17
HETATM   17  C13 UNL     1      61.041  42.163  25.222  1.00  0.00     0.200 C 
HETATM   18  O1  UNL     1      60.190  41.343  25.623  1.00  0.00    -0.646 OA
HETATM   19  O2  UNL     1      61.599  43.014  26.162  1.00  0.00    -0.646 OA
ENDBRANCH   1  17
BRANCH   1  20
HETATM   20  C14 UNL     1      60.991  41.037  23.048  1.00  0.00     0.196 C 
BRANCH  20  21
HETATM   21  C15 UNL     1      62.062  40.305  22.311  1.00  0.00     0.099 C 
BRANCH  21  22
HETATM   22  C16 UNL     1      62.733  39.280  23.179  1.00  0.00     0.055 A 
HETATM   23  C17 UNL     1      63.994  38.733  22.931  1.00  0.00     0.047 A 
HETATM   24  C18 UNL     1      64.256  37.837  23.936  1.00  0.00     0.030 A 
HETATM   25  C20 UNL     1      63.155  37.862  24.764  1.00  0.00     0.154 A 
HETATM   26  O3  UNL     1      62.299  38.721  24.272  1.00  0.00    -0.326 OA
BRANCH  24  27
HETATM   27  C19 UNL     1      65.497  37.014  24.082  1.00  0.00     0.388 C 
HETATM   28  F4  UNL     1      65.618  36.123  23.025  1.00  0.00    -0.209 F 
HETATM   29  F5  UNL     1      66.621  37.825  24.115  1.00  0.00    -0.209 F 
ENDBRANCH  24  27
ENDBRANCH  21  22
ENDBRANCH  20  21
BRANCH  20  30
HETATM   30  N1  UNL     1      59.774  41.247  22.300  1.00  0.00    -0.148 N 
HETATM   31  O4  UNL     1      58.647  41.443  22.800  1.00  0.00    -0.536 OA
HETATM   32  O5  UNL     1      59.766  41.224  20.903  1.00  0.00    -0.536 OA
ENDBRANCH  20  30
ENDBRANCH   1  20
TORSDOF 11
ENDMDL
