MODEL 1
REMARK VINA RESULT: -10.370260114      0.000      0.000
REMARK  9 active torsions:
REMARK  status: ('A' for Active; 'I' for Inactive)
REMARK    1  A    between atoms: C3_3  and  C4_4 
REMARK    2  A    between atoms: C6_6  and  O1_7 
REMARK    3  A    between atoms: O1_7  and  C7_8 
REMARK    4  A    between atoms: C7_8  and  C8_9 
REMARK    5  A    between atoms: C11_12  and  N1_13 
REMARK    6  A    between atoms: N1_13  and  C12_15 
REMARK    7  A    between atoms: C20_26  and  O3_27 
REMARK    8  A    between atoms: O3_27  and  C21_28 
REMARK    9  A    between atoms: C21_28  and  C22_31 
ROOT
HETATM    1  O1  UNL     1      60.246  41.471  26.198  1.00  0.00    -0.351 OA
ENDROOT
BRANCH   1   2
HETATM    2  C6  UNL     1      58.918  41.460  25.724  1.00  0.00     0.072 A 
HETATM    3  C5  UNL     1      58.623  41.154  24.430  1.00  0.00     0.048 A 
HETATM    4  C4  UNL     1      57.313  41.126  23.893  1.00  0.00    -0.031 A 
HETATM    5  C23 UNL     1      56.305  41.430  24.760  1.00  0.00     0.048 A 
HETATM    6  C20 UNL     1      56.575  41.750  26.101  1.00  0.00     0.079 A 
HETATM    7  C19 UNL     1      57.866  41.759  26.556  1.00  0.00     0.073 A 
BRANCH   4   8
HETATM    8  C3  UNL     1      57.156  40.785  22.493  1.00  0.00     0.007 C 
HETATM    9  C2  UNL     1      57.906  41.048  21.492  1.00  0.00    -0.030 C 
HETATM   10  C1  UNL     1      59.169  41.766  21.352  1.00  0.00     0.036 C 
ENDBRANCH   4   8
BRANCH   6  11
HETATM   11  O3  UNL     1      55.491  42.054  26.942  1.00  0.00    -0.279 OA
BRANCH  11  12
HETATM   12  C21 UNL     1      54.621  41.088  27.439  1.00  0.00     0.418 C 
HETATM   13  F2  UNL     1      53.956  40.399  26.444  1.00  0.00    -0.169 F 
HETATM   14  F3  UNL     1      55.413  40.137  28.097  1.00  0.00    -0.169 F 
BRANCH  12  15
HETATM   15  C22 UNL     1      53.614  41.560  28.432  1.00  0.00     0.455 C 
HETATM   16  F4  UNL     1      52.451  40.817  28.446  1.00  0.00    -0.205 F 
HETATM   17  F5  UNL     1      53.241  42.851  28.048  1.00  0.00    -0.205 F 
ENDBRANCH  12  15
ENDBRANCH  11  12
ENDBRANCH   6  11
ENDBRANCH   1   2
BRANCH   1  18
HETATM   18  C7  UNL     1      61.202  40.756  25.443  1.00  0.00     0.184 C 
BRANCH  18  19
HETATM   19  C8  UNL     1      61.579  41.519  24.177  1.00  0.00     0.065 C 
HETATM   20  C9  UNL     1      62.393  42.709  24.553  1.00  0.00     0.013 C 
HETATM   21  C10 UNL     1      63.450  43.045  23.507  1.00  0.00     0.025 C 
HETATM   22  C11 UNL     1      62.977  42.662  22.130  1.00  0.00     0.083 C 
HETATM   23  C17 UNL     1      62.800  41.158  22.020  1.00  0.00     0.085 C 
HETATM   24  C18 UNL     1      62.324  40.534  23.308  1.00  0.00     0.186 C 
HETATM   25  F1  UNL     1      61.446  39.517  22.987  1.00  0.00    -0.225 F 
HETATM   26 CL1  UNL     1      63.658  39.785  24.214  1.00  0.00    -0.082 Cl
BRANCH  22  27
HETATM   27  N1  UNL     1      63.665  43.272  21.115  1.00  0.00    -0.392 N 
ATOM     28  H1  UNL     1      64.681  43.222  21.183  1.00  0.00     0.156 HD
BRANCH  27  29
HETATM   29  C12 UNL     1      63.179  43.942  20.016  1.00  0.00     0.216 C 
HETATM   30  C13 UNL     1      62.364  45.152  20.371  1.00  0.00     0.053 C 
HETATM   31  C14 UNL     1      61.331  45.384  19.255  1.00  0.00     0.006 C 
HETATM   32  C15 UNL     1      62.026  45.040  17.934  1.00  0.00     0.026 C 
HETATM   33  C16 UNL     1      62.181  43.515  17.981  1.00  0.00     0.170 C 
HETATM   34  O2  UNL     1      62.274  43.093  19.309  1.00  0.00    -0.367 OA
ENDBRANCH  27  29
ENDBRANCH  22  27
ENDBRANCH  18  19
ENDBRANCH   1  18
TORSDOF 9
ENDMDL
MODEL 2
REMARK VINA RESULT: -9.522702022      1.651      2.445
REMARK  9 active torsions:
REMARK  status: ('A' for Active; 'I' for Inactive)
REMARK    1  A    between atoms: C3_3  and  C4_4 
REMARK    2  A    between atoms: C6_6  and  O1_7 
REMARK    3  A    between atoms: O1_7  and  C7_8 
REMARK    4  A    between atoms: C7_8  and  C8_9 
REMARK    5  A    between atoms: C11_12  and  N1_13 
REMARK    6  A    between atoms: N1_13  and  C12_15 
REMARK    7  A    between atoms: C20_26  and  O3_27 
REMARK    8  A    between atoms: O3_27  and  C21_28 
REMARK    9  A    between atoms: C21_28  and  C22_31 
ROOT
HETATM    1  O1  UNL     1      59.025  41.845  26.199  1.00  0.00    -0.351 OA
ENDROOT
BRANCH   1   2
HETATM    2  C6  UNL     1      57.633  41.619  26.163  1.00  0.00     0.072 A 
HETATM    3  C5  UNL     1      56.992  41.289  25.007  1.00  0.00     0.048 A 
HETATM    4  C4  UNL     1      55.600  41.050  24.905  1.00  0.00    -0.031 A 
HETATM    5  C23 UNL     1      54.887  41.166  26.061  1.00  0.00     0.048 A 
HETATM    6  C20 UNL     1      55.518  41.505  27.270  1.00  0.00     0.079 A 
HETATM    7  C19 UNL     1      56.869  41.723  27.300  1.00  0.00     0.073 A 
BRANCH   4   8
HETATM    8  C3  UNL     1      55.060  40.710  23.603  1.00  0.00     0.007 C 
HETATM    9  C2  UNL     1      53.853  40.487  23.245  1.00  0.00    -0.030 C 
HETATM   10  C1  UNL     1      52.583  40.484  23.963  1.00  0.00     0.036 C 
ENDBRANCH   4   8
BRANCH   6  11
HETATM   11  O3  UNL     1      54.725  41.609  28.426  1.00  0.00    -0.279 OA
BRANCH  11  12
HETATM   12  C21 UNL     1      53.600  42.425  28.504  1.00  0.00     0.418 C 
HETATM   13  F2  UNL     1      52.726  42.239  27.451  1.00  0.00    -0.169 F 
HETATM   14  F3  UNL     1      52.902  42.034  29.653  1.00  0.00    -0.169 F 
BRANCH  12  15
HETATM   15  C22 UNL     1      53.859  43.887  28.642  1.00  0.00     0.455 C 
HETATM   16  F4  UNL     1      55.199  44.215  28.699  1.00  0.00    -0.205 F 
HETATM   17  F5  UNL     1      53.315  44.281  29.867  1.00  0.00    -0.205 F 
ENDBRANCH  12  15
ENDBRANCH  11  12
ENDBRANCH   6  11
ENDBRANCH   1   2
BRANCH   1  18
HETATM   18  C7  UNL     1      59.838  40.959  25.458  1.00  0.00     0.184 C 
BRANCH  18  19
HETATM   19  C8  UNL     1      60.617  41.705  24.380  1.00  0.00     0.065 C 
HETATM   20  C9  UNL     1      61.735  42.454  25.020  1.00  0.00     0.013 C 
HETATM   21  C10 UNL     1      62.970  42.530  24.130  1.00  0.00     0.025 C 
HETATM   22  C11 UNL     1      62.579  42.543  22.676  1.00  0.00     0.083 C 
HETATM   23  C17 UNL     1      61.909  41.237  22.286  1.00  0.00     0.085 C 
HETATM   24  C18 UNL     1      61.083  40.651  23.404  1.00  0.00     0.186 C 
HETATM   25  F1  UNL     1      59.959  40.077  22.844  1.00  0.00    -0.225 F 
HETATM   26 CL1  UNL     1      61.946  39.349  24.254  1.00  0.00    -0.082 Cl
BRANCH  22  27
HETATM   27  N1  UNL     1      63.561  43.000  21.839  1.00  0.00    -0.392 N 
ATOM     28  H1  UNL     1      64.517  42.825  22.149  1.00  0.00     0.156 HD
BRANCH  27  29
HETATM   29  C12 UNL     1      63.442  43.661  20.638  1.00  0.00     0.216 C 
HETATM   30  C13 UNL     1      64.764  43.980  20.002  1.00  0.00     0.053 C 
HETATM   31  C14 UNL     1      64.597  45.250  19.150  1.00  0.00     0.006 C 
HETATM   32  C15 UNL     1      63.210  45.167  18.506  1.00  0.00     0.026 C 
HETATM   33  C16 UNL     1      62.243  45.381  19.677  1.00  0.00     0.170 C 
HETATM   34  O2  UNL     1      62.833  44.934  20.861  1.00  0.00    -0.367 OA
ENDBRANCH  27  29
ENDBRANCH  22  27
ENDBRANCH  18  19
ENDBRANCH   1  18
TORSDOF 9
ENDMDL
MODEL 3
REMARK VINA RESULT: -9.455279221      2.891      4.287
REMARK  9 active torsions:
REMARK  status: ('A' for Active; 'I' for Inactive)
REMARK    1  A    between atoms: C3_3  and  C4_4 
REMARK    2  A    between atoms: C6_6  and  O1_7 
REMARK    3  A    between atoms: O1_7  and  C7_8 
REMARK    4  A    between atoms: C7_8  and  C8_9 
REMARK    5  A    between atoms: C11_12  and  N1_13 
REMARK    6  A    between atoms: N1_13  and  C12_15 
REMARK    7  A    between atoms: C20_26  and  O3_27 
REMARK    8  A    between atoms: O3_27  and  C21_28 
REMARK    9  A    between atoms: C21_28  and  C22_31 
ROOT
HETATM    1  O1  UNL     1      60.327  41.519  26.326  1.00  0.00    -0.351 OA
ENDROOT
BRANCH   1   2
HETATM    2  C6  UNL     1      59.017  41.490  25.803  1.00  0.00     0.072 A 
HETATM    3  C5  UNL     1      57.923  41.508  26.616  1.00  0.00     0.048 A 
HETATM    4  C4  UNL     1      56.584  41.480  26.154  1.00  0.00    -0.031 A 
HETATM    5  C23 UNL     1      56.419  41.435  24.802  1.00  0.00     0.048 A 
HETATM    6  C20 UNL     1      57.526  41.416  23.937  1.00  0.00     0.079 A 
HETATM    7  C19 UNL     1      58.795  41.444  24.449  1.00  0.00     0.073 A 
BRANCH   4   8
HETATM    8  C3  UNL     1      55.522  41.501  27.141  1.00  0.00     0.007 C 
HETATM    9  C2  UNL     1      54.334  41.032  27.081  1.00  0.00    -0.030 C 
HETATM   10  C1  UNL     1      53.593  40.318  26.047  1.00  0.00     0.036 C 
ENDBRANCH   4   8
BRANCH   6  11
HETATM   11  O3  UNL     1      57.287  41.369  22.553  1.00  0.00    -0.279 OA
BRANCH  11  12
HETATM   12  C21 UNL     1      58.155  40.758  21.653  1.00  0.00     0.418 C 
HETATM   13  F2  UNL     1      58.890  39.737  22.221  1.00  0.00    -0.169 F 
HETATM   14  F3  UNL     1      57.357  40.154  20.673  1.00  0.00    -0.169 F 
BRANCH  12  15
HETATM   15  C22 UNL     1      59.097  41.664  20.933  1.00  0.00     0.455 C 
HETATM   16  F4  UNL     1      60.236  41.035  20.472  1.00  0.00    -0.205 F 
HETATM   17  F5  UNL     1      59.531  42.615  21.859  1.00  0.00    -0.205 F 
ENDBRANCH  12  15
ENDBRANCH  11  12
ENDBRANCH   6  11
ENDBRANCH   1   2
BRANCH   1  18
HETATM   18  C7  UNL     1      61.315  40.796  25.621  1.00  0.00     0.184 C 
BRANCH  18  19
HETATM   19  C8  UNL     1      61.618  41.454  24.278  1.00  0.00     0.065 C 
HETATM   20  C9  UNL     1      62.370  42.718  24.515  1.00  0.00     0.013 C 
HETATM   21  C10 UNL     1      63.381  43.008  23.411  1.00  0.00     0.025 C 
HETATM   22  C11 UNL     1      62.900  42.468  22.091  1.00  0.00     0.083 C 
HETATM   23  C17 UNL     1      62.807  40.953  22.130  1.00  0.00     0.085 C 
HETATM   24  C18 UNL     1      62.398  40.431  23.486  1.00  0.00     0.186 C 
HETATM   25  F1  UNL     1      61.573  39.341  23.288  1.00  0.00    -0.225 F 
HETATM   26 CL1  UNL     1      63.793  39.848  24.420  1.00  0.00    -0.082 Cl
BRANCH  22  27
HETATM   27  N1  UNL     1      63.528  43.014  21.004  1.00  0.00    -0.392 N 
ATOM     28  H1  UNL     1      64.513  42.773  20.900  1.00  0.00     0.156 HD
BRANCH  27  29
HETATM   29  C12 UNL     1      63.017  43.841  20.030  1.00  0.00     0.216 C 
HETATM   30  C13 UNL     1      62.084  44.887  20.569  1.00  0.00     0.053 C 
HETATM   31  C14 UNL     1      61.070  45.242  19.468  1.00  0.00     0.006 C 
HETATM   32  C15 UNL     1      61.834  45.221  18.142  1.00  0.00     0.026 C 
HETATM   33  C16 UNL     1      62.127  43.734  17.905  1.00  0.00     0.170 C 
HETATM   34  O2  UNL     1      62.217  43.072  19.131  1.00  0.00    -0.367 OA
ENDBRANCH  27  29
ENDBRANCH  22  27
ENDBRANCH  18  19
ENDBRANCH   1  18
TORSDOF 9
ENDMDL
MODEL 4
REMARK VINA RESULT: -9.285897480      1.978      3.345
REMARK  9 active torsions:
REMARK  status: ('A' for Active; 'I' for Inactive)
REMARK    1  A    between atoms: C3_3  and  C4_4 
REMARK    2  A    between atoms: C6_6  and  O1_7 
REMARK    3  A    between atoms: O1_7  and  C7_8 
REMARK    4  A    between atoms: C7_8  and  C8_9 
REMARK    5  A    between atoms: C11_12  and  N1_13 
REMARK    6  A    between atoms: N1_13  and  C12_15 
REMARK    7  A    between atoms: C20_26  and  O3_27 
REMARK    8  A    between atoms: O3_27  and  C21_28 
REMARK    9  A    between atoms: C21_28  and  C22_31 
ROOT
HETATM    1  O1  UNL     1      58.547  40.353  22.130  1.00  0.00    -0.351 OA
ENDROOT
BRANCH   1   2
HETATM    2  C6  UNL     1      58.534  40.862  23.446  1.00  0.00     0.072 A 
HETATM    3  C5  UNL     1      59.687  41.118  24.125  1.00  0.00     0.048 A 
HETATM    4  C4  UNL     1      59.740  41.628  25.445  1.00  0.00    -0.031 A 
HETATM    5  C23 UNL     1      58.539  41.868  26.043  1.00  0.00     0.048 A 
HETATM    6  C20 UNL     1      57.332  41.615  25.369  1.00  0.00     0.079 A 
HETATM    7  C19 UNL     1      57.350  41.120  24.093  1.00  0.00     0.073 A 
BRANCH   4   8
HETATM    8  C3  UNL     1      61.044  41.847  26.040  1.00  0.00     0.007 C 
HETATM    9  C2  UNL     1      62.073  42.444  25.571  1.00  0.00    -0.030 C 
HETATM   10  C1  UNL     1      62.348  43.117  24.306  1.00  0.00     0.036 C 
ENDBRANCH   4   8
BRANCH   6  11
HETATM   11  O3  UNL     1      56.127  41.883  26.042  1.00  0.00    -0.279 OA
BRANCH  11  12
HETATM   12  C21 UNL     1      55.906  41.534  27.372  1.00  0.00     0.418 C 
HETATM   13  F2  UNL     1      56.866  40.675  27.870  1.00  0.00    -0.169 F 
HETATM   14  F3  UNL     1      56.025  42.713  28.119  1.00  0.00    -0.169 F 
BRANCH  12  15
HETATM   15  C22 UNL     1      54.564  40.966  27.687  1.00  0.00     0.455 C 
HETATM   16  F4  UNL     1      53.819  41.740  28.554  1.00  0.00    -0.205 F 
HETATM   17  F5  UNL     1      54.781  39.753  28.344  1.00  0.00    -0.205 F 
ENDBRANCH  12  15
ENDBRANCH  11  12
ENDBRANCH   6  11
ENDBRANCH   1   2
BRANCH   1  18
HETATM   18  C7  UNL     1      59.809  40.044  21.575  1.00  0.00     0.184 C 
BRANCH  18  19
HETATM   19  C8  UNL     1      60.155  41.001  20.439  1.00  0.00     0.065 C 
HETATM   20  C9  UNL     1      59.837  42.393  20.863  1.00  0.00     0.013 C 
HETATM   21  C10 UNL     1      60.804  43.415  20.277  1.00  0.00     0.025 C 
HETATM   22  C11 UNL     1      61.305  42.964  18.930  1.00  0.00     0.083 C 
HETATM   23  C17 UNL     1      62.127  41.695  19.058  1.00  0.00     0.085 C 
HETATM   24  C18 UNL     1      61.621  40.783  20.149  1.00  0.00     0.186 C 
HETATM   25  F1  UNL     1      61.770  39.480  19.714  1.00  0.00    -0.225 F 
HETATM   26 CL1  UNL     1      62.582  40.933  21.638  1.00  0.00    -0.082 Cl
BRANCH  22  27
HETATM   27  N1  UNL     1      61.845  43.968  18.172  1.00  0.00    -0.392 N 
ATOM     28  H1  UNL     1      61.296  44.247  17.360  1.00  0.00     0.156 HD
BRANCH  27  29
HETATM   29  C12 UNL     1      63.024  44.654  18.351  1.00  0.00     0.216 C 
HETATM   30  C13 UNL     1      64.158  43.779  18.801  1.00  0.00     0.053 C 
HETATM   31  C14 UNL     1      65.131  44.636  19.629  1.00  0.00     0.006 C 
HETATM   32  C15 UNL     1      65.180  46.014  18.962  1.00  0.00     0.026 C 
HETATM   33  C16 UNL     1      63.805  46.623  19.265  1.00  0.00     0.170 C 
HETATM   34  O2  UNL     1      62.861  45.603  19.406  1.00  0.00    -0.367 OA
ENDBRANCH  27  29
ENDBRANCH  22  27
ENDBRANCH  18  19
ENDBRANCH   1  18
TORSDOF 9
ENDMDL
MODEL 5
REMARK VINA RESULT: -9.210064610      1.773      2.227
REMARK  9 active torsions:
REMARK  status: ('A' for Active; 'I' for Inactive)
REMARK    1  A    between atoms: C3_3  and  C4_4 
REMARK    2  A    between atoms: C6_6  and  O1_7 
REMARK    3  A    between atoms: O1_7  and  C7_8 
REMARK    4  A    between atoms: C7_8  and  C8_9 
REMARK    5  A    between atoms: C11_12  and  N1_13 
REMARK    6  A    between atoms: N1_13  and  C12_15 
REMARK    7  A    between atoms: C20_26  and  O3_27 
REMARK    8  A    between atoms: O3_27  and  C21_28 
REMARK    9  A    between atoms: C21_28  and  C22_31 
ROOT
HETATM    1  O1  UNL     1      59.112  41.759  26.025  1.00  0.00    -0.351 OA
ENDROOT
BRANCH   1   2
HETATM    2  C6  UNL     1      58.042  41.436  25.166  1.00  0.00     0.072 A 
HETATM    3  C5  UNL     1      58.242  41.163  23.846  1.00  0.00     0.048 A 
HETATM    4  C4  UNL     1      57.211  40.833  22.933  1.00  0.00    -0.031 A 
HETATM    5  C23 UNL     1      55.948  40.795  23.444  1.00  0.00     0.048 A 
HETATM    6  C20 UNL     1      55.708  41.070  24.801  1.00  0.00     0.079 A 
HETATM    7  C19 UNL     1      56.750  41.384  25.631  1.00  0.00     0.073 A 
BRANCH   4   8
HETATM    8  C3  UNL     1      57.578  40.570  21.555  1.00  0.00     0.007 C 
HETATM    9  C2  UNL     1      58.524  41.059  20.847  1.00  0.00    -0.030 C 
HETATM   10  C1  UNL     1      59.573  42.036  21.120  1.00  0.00     0.036 C 
ENDBRANCH   4   8
BRANCH   6  11
HETATM   11  O3  UNL     1      54.383  41.014  25.266  1.00  0.00    -0.279 OA
BRANCH  11  12
HETATM   12  C21 UNL     1      53.319  40.584  24.477  1.00  0.00     0.418 C 
HETATM   13  F2  UNL     1      53.724  39.849  23.380  1.00  0.00    -0.169 F 
HETATM   14  F3  UNL     1      52.565  39.707  25.266  1.00  0.00    -0.169 F 
BRANCH  12  15
HETATM   15  C22 UNL     1      52.382  41.644  24.006  1.00  0.00     0.455 C 
HETATM   16  F4  UNL     1      51.364  41.926  24.895  1.00  0.00    -0.205 F 
HETATM   17  F5  UNL     1      51.761  41.154  22.855  1.00  0.00    -0.205 F 
ENDBRANCH  12  15
ENDBRANCH  11  12
ENDBRANCH   6  11
ENDBRANCH   1   2
BRANCH   1  18
HETATM   18  C7  UNL     1      60.342  41.104  25.791  1.00  0.00     0.184 C 
BRANCH  18  19
HETATM   19  C8  UNL     1      60.987  41.600  24.501  1.00  0.00     0.065 C 
HETATM   20  C9  UNL     1      61.792  42.818  24.798  1.00  0.00     0.013 C 
HETATM   21  C10 UNL     1      63.039  42.918  23.926  1.00  0.00     0.025 C 
HETATM   22  C11 UNL     1      62.799  42.290  22.579  1.00  0.00     0.083 C 
HETATM   23  C17 UNL     1      62.551  40.798  22.716  1.00  0.00     0.085 C 
HETATM   24  C18 UNL     1      61.814  40.446  23.984  1.00  0.00     0.186 C 
HETATM   25  F1  UNL     1      60.947  39.410  23.696  1.00  0.00    -0.225 F 
HETATM   26 CL1  UNL     1      62.914  39.850  25.247  1.00  0.00    -0.082 Cl
BRANCH  22  27
HETATM   27  N1  UNL     1      63.695  42.675  21.617  1.00  0.00    -0.392 N 
ATOM     28  H1  UNL     1      64.640  42.310  21.728  1.00  0.00     0.156 HD
BRANCH  27  29
HETATM   29  C12 UNL     1      63.500  43.484  20.522  1.00  0.00     0.216 C 
HETATM   30  C13 UNL     1      64.778  43.883  19.843  1.00  0.00     0.053 C 
HETATM   31  C14 UNL     1      64.563  45.251  19.173  1.00  0.00     0.006 C 
HETATM   32  C15 UNL     1      63.136  45.250  18.620  1.00  0.00     0.026 C 
HETATM   33  C16 UNL     1      62.251  45.312  19.872  1.00  0.00     0.170 C 
HETATM   34  O2  UNL     1      62.917  44.717  20.946  1.00  0.00    -0.367 OA
ENDBRANCH  27  29
ENDBRANCH  22  27
ENDBRANCH  18  19
ENDBRANCH   1  18
TORSDOF 9
ENDMDL
