MODEL 1
REMARK VINA RESULT: -8.429936386      0.000      0.000
REMARK  8 active torsions:
REMARK  status: ('A' for Active; 'I' for Inactive)
REMARK    1  A    between atoms: C1_2  and  C2_3 
REMARK       I    between atoms: C1_2  and  N1_11 
REMARK    2  A    between atoms: C10_14  and  N2_15 
REMARK    3  A    between atoms: N2_15  and  C11_17 
REMARK    4  A    between atoms: C13_19  and  O2_20 
REMARK    5  A    between atoms: O2_20  and  C14_21 
REMARK    6  A    between atoms: C17_26  and  O3_27 
REMARK    7  A    between atoms: O3_27  and  C18_28 
REMARK    8  A    between atoms: C18_28  and  C19_29 
ROOT
HETATM    1  N2  UNL     1      60.429  41.330  23.201  1.00  0.00    -0.381 N 
ATOM      2  H2  UNL     1      61.164  42.031  23.295  1.00  0.00     0.160 HD
ENDROOT
BRANCH   1   3
HETATM    3  C10 UNL     1      60.599  40.267  22.264  1.00  0.00     0.101 C 
HETATM    4  C9  UNL     1      62.080  40.136  21.944  1.00  0.00     0.046 C 
HETATM    5  C8  UNL     1      62.341  41.458  21.256  1.00  0.00     0.128 C 
HETATM    6  N1  UNL     1      61.114  41.738  20.563  1.00  0.00    -0.346 N 
HETATM    7  C1  UNL     1      60.857  42.805  19.682  1.00  0.00     0.255 C 
HETATM    8  C20 UNL     1      60.097  40.735  20.891  1.00  0.00     0.151 C 
HETATM    9  O1  UNL     1      59.761  42.993  19.108  1.00  0.00    -0.267 OA
BRANCH   7  10
HETATM   10  C2  UNL     1      61.915  43.764  19.402  1.00  0.00     0.053 A 
HETATM   11  C3  UNL     1      61.951  44.966  20.053  1.00  0.00     0.020 A 
HETATM   12  C4  UNL     1      62.952  45.875  19.788  1.00  0.00     0.025 A 
HETATM   13  C5  UNL     1      63.906  45.555  18.867  1.00  0.00     0.035 A 
HETATM   14 CL1  UNL     1      65.167  46.749  18.562  1.00  0.00    -0.084 Cl
HETATM   15  C6  UNL     1      63.904  44.359  18.192  1.00  0.00     0.048 A 
HETATM   16  C7  UNL     1      62.882  43.451  18.473  1.00  0.00     0.051 A 
HETATM   17 CL2  UNL     1      62.843  41.911  17.634  1.00  0.00    -0.083 Cl
ENDBRANCH   7  10
ENDBRANCH   1   3
BRANCH   1  18
HETATM   18  C11 UNL     1      59.270  41.439  24.003  1.00  0.00     0.064 A 
HETATM   19  C12 UNL     1      58.045  41.541  23.406  1.00  0.00     0.069 A 
HETATM   20  C13 UNL     1      56.893  41.640  24.190  1.00  0.00     0.077 A 
HETATM   21  C15 UNL     1      56.992  41.633  25.556  1.00  0.00     0.040 A 
HETATM   22  C16 UNL     1      58.243  41.529  26.125  1.00  0.00     0.042 A 
HETATM   23  C17 UNL     1      59.405  41.429  25.397  1.00  0.00     0.095 A 
BRANCH  20  24
HETATM   24  O2  UNL     1      55.675  41.742  23.576  1.00  0.00    -0.290 OA
BRANCH  24  25
HETATM   25  C14 UNL     1      54.710  40.754  23.429  1.00  0.00     0.505 C 
HETATM   26  F1  UNL     1      54.211  40.334  24.665  1.00  0.00    -0.184 F 
HETATM   27  F2  UNL     1      55.359  39.636  22.883  1.00  0.00    -0.184 F 
ENDBRANCH  24  25
ENDBRANCH  20  24
BRANCH  23  28
HETATM   28  O3  UNL     1      60.664  41.323  25.982  1.00  0.00    -0.344 OA
BRANCH  28  29
HETATM   29  C18 UNL     1      61.466  42.472  26.040  1.00  0.00     0.246 C 
BRANCH  29  30
HETATM   30  C19 UNL     1      62.824  42.227  25.428  1.00  0.00     0.377 C 
HETATM   31  F3  UNL     1      62.924  40.881  25.110  1.00  0.00    -0.212 F 
HETATM   32  F4  UNL     1      62.946  42.942  24.253  1.00  0.00    -0.212 F 
ENDBRANCH  29  30
ENDBRANCH  28  29
ENDBRANCH  23  28
ENDBRANCH   1  18
TORSDOF 8
ENDMDL
MODEL 2
REMARK VINA RESULT: -8.259318449      3.080      4.894
REMARK  8 active torsions:
REMARK  status: ('A' for Active; 'I' for Inactive)
REMARK    1  A    between atoms: C1_2  and  C2_3 
REMARK       I    between atoms: C1_2  and  N1_11 
REMARK    2  A    between atoms: C10_14  and  N2_15 
REMARK    3  A    between atoms: N2_15  and  C11_17 
REMARK    4  A    between atoms: C13_19  and  O2_20 
REMARK    5  A    between atoms: O2_20  and  C14_21 
REMARK    6  A    between atoms: C17_26  and  O3_27 
REMARK    7  A    between atoms: O3_27  and  C18_28 
REMARK    8  A    between atoms: C18_28  and  C19_29 
ROOT
HETATM    1  N2  UNL     1      61.880  40.653  22.368  1.00  0.00    -0.381 N 
ATOM      2  H2  UNL     1      62.341  41.562  22.330  1.00  0.00     0.160 HD
ENDROOT
BRANCH   1   3
HETATM    3  C10 UNL     1      60.905  40.328  21.378  1.00  0.00     0.101 C 
HETATM    4  C9  UNL     1      61.616  40.097  20.055  1.00  0.00     0.046 C 
HETATM    5  C8  UNL     1      62.166  41.480  19.781  1.00  0.00     0.128 C 
HETATM    6  N1  UNL     1      61.173  42.363  20.326  1.00  0.00    -0.346 N 
HETATM    7  C1  UNL     1      61.146  43.769  20.247  1.00  0.00     0.255 C 
HETATM    8  C20 UNL     1      60.128  41.601  21.015  1.00  0.00     0.151 C 
HETATM    9  O1  UNL     1      60.247  44.482  20.745  1.00  0.00    -0.267 OA
BRANCH   7  10
HETATM   10  C2  UNL     1      62.217  44.460  19.546  1.00  0.00     0.053 A 
HETATM   11  C3  UNL     1      61.978  45.070  18.345  1.00  0.00     0.020 A 
HETATM   12  C4  UNL     1      62.993  45.724  17.680  1.00  0.00     0.025 A 
HETATM   13  C5  UNL     1      64.237  45.753  18.239  1.00  0.00     0.035 A 
HETATM   14 CL1  UNL     1      65.502  46.602  17.352  1.00  0.00    -0.084 Cl
HETATM   15  C6  UNL     1      64.515  45.152  19.442  1.00  0.00     0.048 A 
HETATM   16  C7  UNL     1      63.477  44.494  20.102  1.00  0.00     0.051 A 
HETATM   17 CL2  UNL     1      63.790  43.714  21.641  1.00  0.00    -0.083 Cl
ENDBRANCH   7  10
ENDBRANCH   1   3
BRANCH   1  18
HETATM   18  C11 UNL     1      62.226  39.750  23.399  1.00  0.00     0.064 A 
HETATM   19  C12 UNL     1      63.127  38.753  23.148  1.00  0.00     0.069 A 
HETATM   20  C13 UNL     1      63.482  37.862  24.163  1.00  0.00     0.077 A 
HETATM   21  C15 UNL     1      62.927  37.986  25.408  1.00  0.00     0.040 A 
HETATM   22  C16 UNL     1      62.021  39.002  25.627  1.00  0.00     0.042 A 
HETATM   23  C17 UNL     1      61.641  39.905  24.662  1.00  0.00     0.095 A 
BRANCH  20  24
HETATM   24  O2  UNL     1      64.385  36.870  23.894  1.00  0.00    -0.290 OA
BRANCH  24  25
HETATM   25  C14 UNL     1      65.685  37.007  23.425  1.00  0.00     0.505 C 
HETATM   26  F1  UNL     1      66.382  37.998  24.122  1.00  0.00    -0.184 F 
HETATM   27  F2  UNL     1      65.590  37.470  22.104  1.00  0.00    -0.184 F 
ENDBRANCH  24  25
ENDBRANCH  20  24
BRANCH  23  28
HETATM   28  O3  UNL     1      60.725  40.927  24.893  1.00  0.00    -0.344 OA
BRANCH  28  29
HETATM   29  C18 UNL     1      61.064  41.923  25.820  1.00  0.00     0.246 C 
BRANCH  29  30
HETATM   30  C19 UNL     1      61.866  43.027  25.174  1.00  0.00     0.377 C 
HETATM   31  F3  UNL     1      63.186  42.613  25.084  1.00  0.00    -0.212 F 
HETATM   32  F4  UNL     1      61.410  43.248  23.888  1.00  0.00    -0.212 F 
ENDBRANCH  29  30
ENDBRANCH  28  29
ENDBRANCH  23  28
ENDBRANCH   1  18
TORSDOF 8
ENDMDL
MODEL 3
REMARK VINA RESULT: -8.209367636      0.978      1.279
REMARK  8 active torsions:
REMARK  status: ('A' for Active; 'I' for Inactive)
REMARK    1  A    between atoms: C1_2  and  C2_3 
REMARK       I    between atoms: C1_2  and  N1_11 
REMARK    2  A    between atoms: C10_14  and  N2_15 
REMARK    3  A    between atoms: N2_15  and  C11_17 
REMARK    4  A    between atoms: C13_19  and  O2_20 
REMARK    5  A    between atoms: O2_20  and  C14_21 
REMARK    6  A    between atoms: C17_26  and  O3_27 
REMARK    7  A    between atoms: O3_27  and  C18_28 
REMARK    8  A    between atoms: C18_28  and  C19_29 
ROOT
HETATM    1  N2  UNL     1      60.524  41.261  23.197  1.00  0.00    -0.381 N 
ATOM      2  H2  UNL     1      61.300  41.912  23.316  1.00  0.00     0.160 HD
ENDROOT
BRANCH   1   3
HETATM    3  C10 UNL     1      60.635  40.219  22.227  1.00  0.00     0.101 C 
HETATM    4  C9  UNL     1      62.099  40.066  21.848  1.00  0.00     0.046 C 
HETATM    5  C8  UNL     1      62.364  41.399  21.184  1.00  0.00     0.128 C 
HETATM    6  N1  UNL     1      61.118  41.723  20.546  1.00  0.00    -0.346 N 
HETATM    7  C1  UNL     1      60.851  42.819  19.703  1.00  0.00     0.255 C 
HETATM    8  C20 UNL     1      60.092  40.734  20.887  1.00  0.00     0.151 C 
HETATM    9  O1  UNL     1      59.739  43.045  19.177  1.00  0.00    -0.267 OA
BRANCH   7  10
HETATM   10  C2  UNL     1      61.920  43.762  19.407  1.00  0.00     0.053 A 
HETATM   11  C3  UNL     1      62.593  43.695  18.218  1.00  0.00     0.020 A 
HETATM   12  C4  UNL     1      63.605  44.587  17.937  1.00  0.00     0.025 A 
HETATM   13  C5  UNL     1      63.923  45.536  18.864  1.00  0.00     0.035 A 
HETATM   14 CL1  UNL     1      65.224  46.655  18.460  1.00  0.00    -0.084 Cl
HETATM   15  C6  UNL     1      63.270  45.635  20.068  1.00  0.00     0.048 A 
HETATM   16  C7  UNL     1      62.249  44.724  20.336  1.00  0.00     0.051 A 
HETATM   17 CL2  UNL     1      61.389  44.816  21.862  1.00  0.00    -0.083 Cl
ENDBRANCH   7  10
ENDBRANCH   1   3
BRANCH   1  18
HETATM   18  C11 UNL     1      59.369  41.414  23.998  1.00  0.00     0.064 A 
HETATM   19  C12 UNL     1      58.145  41.527  23.400  1.00  0.00     0.069 A 
HETATM   20  C13 UNL     1      56.997  41.670  24.182  1.00  0.00     0.077 A 
HETATM   21  C15 UNL     1      57.098  41.696  25.548  1.00  0.00     0.040 A 
HETATM   22  C16 UNL     1      58.348  41.580  26.118  1.00  0.00     0.042 A 
HETATM   23  C17 UNL     1      59.506  41.437  25.391  1.00  0.00     0.095 A 
BRANCH  20  24
HETATM   24  O2  UNL     1      55.780  41.782  23.568  1.00  0.00    -0.290 OA
BRANCH  24  25
HETATM   25  C14 UNL     1      54.851  40.778  23.328  1.00  0.00     0.505 C 
HETATM   26  F1  UNL     1      54.251  40.340  24.512  1.00  0.00    -0.184 F 
HETATM   27  F2  UNL     1      55.568  39.675  22.839  1.00  0.00    -0.184 F 
ENDBRANCH  24  25
ENDBRANCH  20  24
BRANCH  23  28
HETATM   28  O3  UNL     1      60.764  41.320  25.977  1.00  0.00    -0.344 OA
BRANCH  28  29
HETATM   29  C18 UNL     1      61.558  42.471  26.077  1.00  0.00     0.246 C 
BRANCH  29  30
HETATM   30  C19 UNL     1      62.892  42.280  25.397  1.00  0.00     0.377 C 
HETATM   31  F3  UNL     1      63.025  40.942  25.063  1.00  0.00    -0.212 F 
HETATM   32  F4  UNL     1      62.930  43.009  24.224  1.00  0.00    -0.212 F 
ENDBRANCH  29  30
ENDBRANCH  28  29
ENDBRANCH  23  28
ENDBRANCH   1  18
TORSDOF 8
ENDMDL
MODEL 4
REMARK VINA RESULT: -8.072934952      2.556      4.962
REMARK  8 active torsions:
REMARK  status: ('A' for Active; 'I' for Inactive)
REMARK    1  A    between atoms: C1_2  and  C2_3 
REMARK       I    between atoms: C1_2  and  N1_11 
REMARK    2  A    between atoms: C10_14  and  N2_15 
REMARK    3  A    between atoms: N2_15  and  C11_17 
REMARK    4  A    between atoms: C13_19  and  O2_20 
REMARK    5  A    between atoms: O2_20  and  C14_21 
REMARK    6  A    between atoms: C17_26  and  O3_27 
REMARK    7  A    between atoms: O3_27  and  C18_28 
REMARK    8  A    between atoms: C18_28  and  C19_29 
ROOT
HETATM    1  N2  UNL     1      61.022  40.968  22.522  1.00  0.00    -0.381 N 
ATOM      2  H2  UNL     1      60.968  41.984  22.604  1.00  0.00     0.160 HD
ENDROOT
BRANCH   1   3
HETATM    3  C10 UNL     1      60.480  40.336  21.362  1.00  0.00     0.101 C 
HETATM    4  C9  UNL     1      61.615  40.054  20.390  1.00  0.00     0.046 C 
HETATM    5  C8  UNL     1      62.048  41.461  20.039  1.00  0.00     0.128 C 
HETATM    6  N1  UNL     1      60.827  42.218  20.073  1.00  0.00    -0.346 N 
HETATM    7  C1  UNL     1      60.653  43.571  19.722  1.00  0.00     0.255 C 
HETATM    8  C20 UNL     1      59.716  41.385  20.541  1.00  0.00     0.151 C 
HETATM    9  O1  UNL     1      59.558  44.173  19.775  1.00  0.00    -0.267 OA
BRANCH   7  10
HETATM   10  C2  UNL     1      61.802  44.339  19.265  1.00  0.00     0.053 A 
HETATM   11  C3  UNL     1      62.114  44.391  17.935  1.00  0.00     0.020 A 
HETATM   12  C4  UNL     1      63.202  45.117  17.501  1.00  0.00     0.025 A 
HETATM   13  C5  UNL     1      63.960  45.781  18.420  1.00  0.00     0.035 A 
HETATM   14 CL1  UNL     1      65.341  46.697  17.818  1.00  0.00    -0.084 Cl
HETATM   15  C6  UNL     1      63.678  45.752  19.764  1.00  0.00     0.048 A 
HETATM   16  C7  UNL     1      62.574  45.012  20.185  1.00  0.00     0.051 A 
HETATM   17 CL2  UNL     1      62.178  44.949  21.893  1.00  0.00    -0.083 Cl
ENDBRANCH   7  10
ENDBRANCH   1   3
BRANCH   1  18
HETATM   18  C11 UNL     1      61.630  40.226  23.560  1.00  0.00     0.064 A 
HETATM   19  C12 UNL     1      62.478  39.200  23.247  1.00  0.00     0.069 A 
HETATM   20  C13 UNL     1      63.091  38.467  24.265  1.00  0.00     0.077 A 
HETATM   21  C15 UNL     1      62.843  38.775  25.576  1.00  0.00     0.040 A 
HETATM   22  C16 UNL     1      61.982  39.815  25.856  1.00  0.00     0.042 A 
HETATM   23  C17 UNL     1      61.356  40.567  24.890  1.00  0.00     0.095 A 
BRANCH  20  24
HETATM   24  O2  UNL     1      63.937  37.444  23.934  1.00  0.00    -0.290 OA
BRANCH  24  25
HETATM   25  C14 UNL     1      65.246  37.535  23.479  1.00  0.00     0.505 C 
HETATM   26  F1  UNL     1      65.297  37.904  22.132  1.00  0.00    -0.184 F 
HETATM   27  F2  UNL     1      65.782  36.239  23.536  1.00  0.00    -0.184 F 
ENDBRANCH  24  25
ENDBRANCH  20  24
BRANCH  23  28
HETATM   28  O3  UNL     1      60.488  41.615  25.184  1.00  0.00    -0.344 OA
BRANCH  28  29
HETATM   29  C18 UNL     1      59.237  41.305  25.736  1.00  0.00     0.246 C 
BRANCH  29  30
HETATM   30  C19 UNL     1      58.117  41.628  24.776  1.00  0.00     0.377 C 
HETATM   31  F3  UNL     1      58.196  40.756  23.702  1.00  0.00    -0.212 F 
HETATM   32  F4  UNL     1      56.897  41.422  25.391  1.00  0.00    -0.212 F 
ENDBRANCH  29  30
ENDBRANCH  28  29
ENDBRANCH  23  28
ENDBRANCH   1  18
TORSDOF 8
ENDMDL
MODEL 5
REMARK VINA RESULT: -8.060698118      1.422      1.683
REMARK  8 active torsions:
REMARK  status: ('A' for Active; 'I' for Inactive)
REMARK    1  A    between atoms: C1_2  and  C2_3 
REMARK       I    between atoms: C1_2  and  N1_11 
REMARK    2  A    between atoms: C10_14  and  N2_15 
REMARK    3  A    between atoms: N2_15  and  C11_17 
REMARK    4  A    between atoms: C13_19  and  O2_20 
REMARK    5  A    between atoms: O2_20  and  C14_21 
REMARK    6  A    between atoms: C17_26  and  O3_27 
REMARK    7  A    between atoms: O3_27  and  C18_28 
REMARK    8  A    between atoms: C18_28  and  C19_29 
ROOT
HETATM    1  N2  UNL     1      60.507  41.188  22.716  1.00  0.00    -0.381 N 
ATOM      2  H2  UNL     1      61.403  41.676  22.749  1.00  0.00     0.160 HD
ENDROOT
BRANCH   1   3
HETATM    3  C10 UNL     1      60.180  40.412  21.564  1.00  0.00     0.101 C 
HETATM    4  C9  UNL     1      61.468  40.068  20.832  1.00  0.00     0.046 C 
HETATM    5  C8  UNL     1      61.927  41.443  20.397  1.00  0.00     0.128 C 
HETATM    6  N1  UNL     1      60.704  42.153  20.142  1.00  0.00    -0.346 N 
HETATM    7  C1  UNL     1      60.566  43.451  19.614  1.00  0.00     0.255 C 
HETATM    8  C20 UNL     1      59.546  41.334  20.512  1.00  0.00     0.151 C 
HETATM    9  O1  UNL     1      59.467  44.014  19.415  1.00  0.00    -0.267 OA
BRANCH   7  10
HETATM   10  C2  UNL     1      61.761  44.206  19.267  1.00  0.00     0.053 A 
HETATM   11  C3  UNL     1      62.204  44.245  17.974  1.00  0.00     0.020 A 
HETATM   12  C4  UNL     1      63.336  44.959  17.645  1.00  0.00     0.025 A 
HETATM   13  C5  UNL     1      64.005  45.625  18.630  1.00  0.00     0.035 A 
HETATM   14 CL1  UNL     1      65.446  46.525  18.161  1.00  0.00    -0.084 Cl
HETATM   15  C6  UNL     1      63.591  45.609  19.939  1.00  0.00     0.048 A 
HETATM   16  C7  UNL     1      62.444  44.880  20.255  1.00  0.00     0.051 A 
HETATM   17 CL2  UNL     1      61.880  44.834  21.915  1.00  0.00    -0.083 Cl
ENDBRANCH   7  10
ENDBRANCH   1   3
BRANCH   1  18
HETATM   18  C11 UNL     1      59.623  41.300  23.815  1.00  0.00     0.064 A 
HETATM   19  C12 UNL     1      58.275  41.323  23.594  1.00  0.00     0.069 A 
HETATM   20  C13 UNL     1      57.394  41.423  24.673  1.00  0.00     0.077 A 
HETATM   21  C15 UNL     1      57.881  41.500  25.950  1.00  0.00     0.040 A 
HETATM   22  C16 UNL     1      59.247  41.475  26.136  1.00  0.00     0.042 A 
HETATM   23  C17 UNL     1      60.154  41.376  25.108  1.00  0.00     0.095 A 
BRANCH  20  24
HETATM   24  O2  UNL     1      56.047  41.444  24.435  1.00  0.00    -0.290 OA
BRANCH  24  25
HETATM   25  C14 UNL     1      55.369  40.941  23.332  1.00  0.00     0.505 C 
HETATM   26  F1  UNL     1      54.188  40.294  23.707  1.00  0.00    -0.184 F 
HETATM   27  F2  UNL     1      56.186  39.943  22.779  1.00  0.00    -0.184 F 
ENDBRANCH  24  25
ENDBRANCH  20  24
BRANCH  23  28
HETATM   28  O3  UNL     1      61.532  41.352  25.307  1.00  0.00    -0.344 OA
BRANCH  28  29
HETATM   29  C18 UNL     1      62.136  40.125  25.614  1.00  0.00     0.246 C 
BRANCH  29  30
HETATM   30  C19 UNL     1      63.158  39.739  24.572  1.00  0.00     0.377 C 
HETATM   31  F3  UNL     1      62.582  38.814  23.716  1.00  0.00    -0.212 F 
HETATM   32  F4  UNL     1      63.504  40.845  23.820  1.00  0.00    -0.212 F 
ENDBRANCH  29  30
ENDBRANCH  28  29
ENDBRANCH  23  28
ENDBRANCH   1  18
TORSDOF 8
ENDMDL
