MODEL 1
REMARK VINA RESULT: -4.320485242      0.000      0.000
REMARK  4 active torsions:
REMARK  status: ('A' for Active; 'I' for Inactive)
REMARK       I    between atoms: C1_4  and  N3_6 
REMARK    1  A    between atoms: N4_9  and  C4_10 
REMARK    2  A    between atoms: C4_10  and  C5_11 
REMARK    3  A    between atoms: C5_11  and  C6_12 
REMARK    4  A    between atoms: C6_12  and  N5_13 
ROOT
HETATM    1  N1  UNL     1       7.342  51.448  19.810  1.00  0.00    -0.374 N 
ATOM      2  H11 UNL     1       7.282  52.426  20.096  1.00  0.00     0.158 HD
ATOM      3  H12 UNL     1       6.492  50.889  19.733  1.00  0.00     0.158 HD
HETATM    4  C1  UNL     1       8.481  50.925  19.549  1.00  0.00     0.184 C 
HETATM    5  N2  UNL     1       8.563  49.574  19.152  1.00  0.00    -0.064 NA
HETATM    6  N3  UNL     1       9.649  51.694  19.654  1.00  0.00    -0.353 N 
HETATM    7  C2  UNL     1      10.068  52.716  18.708  1.00  0.00     0.156 C 
HETATM    8  C3  UNL     1      11.147  53.573  19.264  1.00  0.00     0.292 C 
HETATM    9  N4  UNL     1      12.343  52.845  19.726  1.00  0.00     0.091 N 
HETATM   10  C7  UNL     1      11.965  51.490  20.061  1.00  0.00     0.292 C 
HETATM   11  C8  UNL     1      10.603  51.543  20.770  1.00  0.00     0.156 C 
ENDROOT
BRANCH   9  12
HETATM   12  C4  UNL     1      12.910  53.505  20.852  1.00  0.00     0.274 C 
BRANCH  12  13
HETATM   13  C5  UNL     1      12.685  54.959  20.933  1.00  0.00     0.057 C 
BRANCH  13  14
HETATM   14  C6  UNL     1      12.676  55.600  22.272  1.00  0.00     0.231 C 
BRANCH  14  15
HETATM   15  N5  UNL     1      11.897  54.727  23.198  1.00  0.00    -0.079 N 
ATOM     16  H53 UNL     1      11.829  53.764  22.868  1.00  0.00     0.274 HD
ATOM     17  H52 UNL     1      12.392  54.539  24.070  1.00  0.00     0.274 HD
ATOM     18  H51 UNL     1      10.985  55.158  23.346  1.00  0.00     0.274 HD
ENDBRANCH  14  15
ENDBRANCH  13  14
ENDBRANCH  12  13
ENDBRANCH   9  12
TORSDOF 4
ENDMDL
MODEL 2
REMARK VINA RESULT: -3.721949549      1.268      1.983
REMARK  4 active torsions:
REMARK  status: ('A' for Active; 'I' for Inactive)
REMARK       I    between atoms: C1_4  and  N3_6 
REMARK    1  A    between atoms: N4_9  and  C4_10 
REMARK    2  A    between atoms: C4_10  and  C5_11 
REMARK    3  A    between atoms: C5_11  and  C6_12 
REMARK    4  A    between atoms: C6_12  and  N5_13 
ROOT
HETATM    1  N1  UNL     1       8.486  49.823  18.189  1.00  0.00    -0.374 N 
ATOM      2  H11 UNL     1       9.365  49.579  17.733  1.00  0.00     0.158 HD
ATOM      3  H12 UNL     1       7.605  49.466  17.816  1.00  0.00     0.158 HD
HETATM    4  C1  UNL     1       8.486  50.575  19.224  1.00  0.00     0.184 C 
HETATM    5  N2  UNL     1       7.270  50.912  19.853  1.00  0.00    -0.064 NA
HETATM    6  N3  UNL     1       9.696  51.066  19.737  1.00  0.00    -0.353 N 
HETATM    7  C2  UNL     1      10.667  50.284  20.487  1.00  0.00     0.156 C 
HETATM    8  C3  UNL     1      11.974  50.982  20.593  1.00  0.00     0.292 C 
HETATM    9  N4  UNL     1      11.911  52.335  21.176  1.00  0.00     0.091 N 
HETATM   10  C7  UNL     1      10.584  52.871  20.971  1.00  0.00     0.292 C 
HETATM   11  C8  UNL     1      10.125  52.467  19.562  1.00  0.00     0.156 C 
ENDROOT
BRANCH   9  12
HETATM   12  C4  UNL     1      12.893  53.171  20.574  1.00  0.00     0.274 C 
BRANCH  12  13
HETATM   13  C5  UNL     1      12.573  54.607  20.512  1.00  0.00     0.057 C 
BRANCH  13  14
HETATM   14  C6  UNL     1      12.887  55.454  21.690  1.00  0.00     0.231 C 
BRANCH  14  15
HETATM   15  N5  UNL     1      13.699  56.615  21.223  1.00  0.00    -0.079 N 
ATOM     16  H53 UNL     1      14.413  56.349  20.544  1.00  0.00     0.274 HD
ATOM     17  H52 UNL     1      13.170  57.249  20.624  1.00  0.00     0.274 HD
ATOM     18  H51 UNL     1      14.088  57.080  22.043  1.00  0.00     0.274 HD
ENDBRANCH  14  15
ENDBRANCH  13  14
ENDBRANCH  12  13
ENDBRANCH   9  12
TORSDOF 4
ENDMDL
MODEL 3
REMARK VINA RESULT: -3.657653972      1.430      1.533
REMARK  4 active torsions:
REMARK  status: ('A' for Active; 'I' for Inactive)
REMARK       I    between atoms: C1_4  and  N3_6 
REMARK    1  A    between atoms: N4_9  and  C4_10 
REMARK    2  A    between atoms: C4_10  and  C5_11 
REMARK    3  A    between atoms: C5_11  and  C6_12 
REMARK    4  A    between atoms: C6_12  and  N5_13 
ROOT
HETATM    1  N1  UNL     1       6.842  50.945  19.694  1.00  0.00    -0.374 N 
ATOM      2  H11 UNL     1       6.563  51.901  19.915  1.00  0.00     0.158 HD
ATOM      3  H12 UNL     1       6.159  50.190  19.754  1.00  0.00     0.158 HD
HETATM    4  C1  UNL     1       8.048  50.694  19.344  1.00  0.00     0.184 C 
HETATM    5  N2  UNL     1       8.433  49.373  19.038  1.00  0.00    -0.064 NA
HETATM    6  N3  UNL     1       8.987  51.732  19.262  1.00  0.00    -0.353 N 
HETATM    7  C2  UNL     1       9.045  52.728  18.204  1.00  0.00     0.156 C 
HETATM    8  C3  UNL     1       9.918  53.874  18.572  1.00  0.00     0.292 C 
HETATM    9  N4  UNL     1      11.296  53.509  18.947  1.00  0.00     0.091 N 
HETATM   10  C7  UNL     1      11.306  52.142  19.418  1.00  0.00     0.292 C 
HETATM   11  C8  UNL     1      10.046  51.928  20.271  1.00  0.00     0.156 C 
ENDROOT
BRANCH   9  12
HETATM   12  C4  UNL     1      11.778  54.395  19.951  1.00  0.00     0.274 C 
BRANCH  12  13
HETATM   13  C5  UNL     1      12.904  53.903  20.764  1.00  0.00     0.057 C 
BRANCH  13  14
HETATM   14  C6  UNL     1      12.602  53.184  22.028  1.00  0.00     0.231 C 
BRANCH  14  15
HETATM   15  N5  UNL     1      13.313  51.872  21.996  1.00  0.00    -0.079 N 
ATOM     16  H53 UNL     1      13.600  51.557  22.923  1.00  0.00     0.274 HD
ATOM     17  H52 UNL     1      12.692  51.094  21.772  1.00  0.00     0.274 HD
ATOM     18  H51 UNL     1      14.095  51.953  21.347  1.00  0.00     0.274 HD
ENDBRANCH  14  15
ENDBRANCH  13  14
ENDBRANCH  12  13
ENDBRANCH   9  12
TORSDOF 4
ENDMDL
MODEL 4
REMARK VINA RESULT: -3.256382514      1.527      1.632
REMARK  4 active torsions:
REMARK  status: ('A' for Active; 'I' for Inactive)
REMARK       I    between atoms: C1_4  and  N3_6 
REMARK    1  A    between atoms: N4_9  and  C4_10 
REMARK    2  A    between atoms: C4_10  and  C5_11 
REMARK    3  A    between atoms: C5_11  and  C6_12 
REMARK    4  A    between atoms: C6_12  and  N5_13 
ROOT
HETATM    1  N1  UNL     1       8.053  53.485  18.102  1.00  0.00    -0.374 N 
ATOM      2  H11 UNL     1       8.243  54.374  18.565  1.00  0.00     0.158 HD
ATOM      3  H12 UNL     1       7.229  53.388  17.509  1.00  0.00     0.158 HD
HETATM    4  C1  UNL     1       8.847  52.494  18.265  1.00  0.00     0.184 C 
HETATM    5  N2  UNL     1       8.584  51.266  17.624  1.00  0.00    -0.064 NA
HETATM    6  N3  UNL     1       9.981  52.628  19.080  1.00  0.00    -0.353 N 
HETATM    7  C2  UNL     1      11.192  53.347  18.720  1.00  0.00     0.156 C 
HETATM    8  C3  UNL     1      12.059  53.594  19.902  1.00  0.00     0.292 C 
HETATM    9  N4  UNL     1      12.439  52.387  20.657  1.00  0.00     0.091 N 
HETATM   10  C7  UNL     1      11.445  51.362  20.431  1.00  0.00     0.292 C 
HETATM   11  C8  UNL     1      10.064  52.035  20.430  1.00  0.00     0.156 C 
ENDROOT
BRANCH   9  12
HETATM   12  C4  UNL     1      12.544  52.693  22.043  1.00  0.00     0.274 C 
BRANCH  12  13
HETATM   13  C5  UNL     1      12.446  54.118  22.402  1.00  0.00     0.057 C 
BRANCH  13  14
HETATM   14  C6  UNL     1      11.319  54.555  23.265  1.00  0.00     0.231 C 
BRANCH  14  15
HETATM   15  N5  UNL     1      11.808  54.607  24.674  1.00  0.00    -0.079 N 
ATOM     16  H53 UNL     1      11.275  54.001  25.298  1.00  0.00     0.274 HD
ATOM     17  H52 UNL     1      12.717  54.160  24.791  1.00  0.00     0.274 HD
ATOM     18  H51 UNL     1      11.805  55.581  24.974  1.00  0.00     0.274 HD
ENDBRANCH  14  15
ENDBRANCH  13  14
ENDBRANCH  12  13
ENDBRANCH   9  12
TORSDOF 4
ENDMDL
MODEL 5
REMARK VINA RESULT: -3.067928282      1.708      5.173
REMARK  4 active torsions:
REMARK  status: ('A' for Active; 'I' for Inactive)
REMARK       I    between atoms: C1_4  and  N3_6 
REMARK    1  A    between atoms: N4_9  and  C4_10 
REMARK    2  A    between atoms: C4_10  and  C5_11 
REMARK    3  A    between atoms: C5_11  and  C6_12 
REMARK    4  A    between atoms: C6_12  and  N5_13 
ROOT
HETATM    1  N1  UNL     1      13.615  52.769  19.347  1.00  0.00    -0.374 N 
ATOM      2  H11 UNL     1      13.479  52.408  18.403  1.00  0.00     0.158 HD
ATOM      3  H12 UNL     1      14.558  52.856  19.728  1.00  0.00     0.158 HD
HETATM    4  C1  UNL     1      12.604  53.112  20.054  1.00  0.00     0.184 C 
HETATM    5  N2  UNL     1      12.792  53.611  21.359  1.00  0.00    -0.064 NA
HETATM    6  N3  UNL     1      11.307  52.993  19.532  1.00  0.00    -0.353 N 
HETATM    7  C2  UNL     1      10.721  53.875  18.535  1.00  0.00     0.156 C 
HETATM    8  C3  UNL     1       9.486  53.298  17.946  1.00  0.00     0.292 C 
HETATM    9  N4  UNL     1       8.442  52.937  18.923  1.00  0.00     0.091 N 
HETATM   10  C7  UNL     1       9.065  52.690  20.203  1.00  0.00     0.292 C 
HETATM   11  C8  UNL     1      10.375  51.928  19.951  1.00  0.00     0.156 C 
ENDROOT
BRANCH   9  12
HETATM   12  C4  UNL     1       7.733  51.787  18.475  1.00  0.00     0.274 C 
BRANCH  12  13
HETATM   13  C5  UNL     1       7.413  50.781  19.502  1.00  0.00     0.057 C 
BRANCH  13  14
HETATM   14  C6  UNL     1       7.741  49.359  19.226  1.00  0.00     0.231 C 
BRANCH  14  15
HETATM   15  N5  UNL     1       9.221  49.198  19.325  1.00  0.00    -0.079 N 
ATOM     16  H53 UNL     1       9.678  49.189  18.413  1.00  0.00     0.274 HD
ATOM     17  H52 UNL     1       9.683  50.025  19.703  1.00  0.00     0.274 HD
ATOM     18  H51 UNL     1       9.412  48.357  19.869  1.00  0.00     0.274 HD
ENDBRANCH  14  15
ENDBRANCH  13  14
ENDBRANCH  12  13
ENDBRANCH   9  12
TORSDOF 4
ENDMDL
