MODEL 1
REMARK VINA RESULT: -4.657367574      0.000      0.000
REMARK  4 active torsions:
REMARK  status: ('A' for Active; 'I' for Inactive)
REMARK    1  A    between atoms: N1_1  and  C1_5 
REMARK    2  A    between atoms: C5_9  and  N2_10 
REMARK    3  A    between atoms: N2_10  and  C6_12 
REMARK    4  A    between atoms: C9_16  and  O2_17 
ROOT
HETATM    1  C1  UNL     1       8.521  50.834  19.308  1.00  0.00     0.212 C 
HETATM    2  C2  UNL     1       8.862  51.710  18.147  1.00  0.00     0.040 C 
HETATM    3  C3  UNL     1       9.447  53.022  18.672  1.00  0.00    -0.010 C 
HETATM    4  C4  UNL     1      10.966  52.857  18.673  1.00  0.00     0.030 C 
HETATM    5  C5  UNL     1      11.372  52.750  20.125  1.00  0.00     0.090 C 
HETATM    6  C7  UNL     1      10.136  52.149  20.725  1.00  0.00     0.039 C 
HETATM    7  C8  UNL     1       9.122  53.160  20.150  1.00  0.00     0.014 C 
HETATM    8  C9  UNL     1       9.735  50.814  20.249  1.00  0.00     0.154 C 
ENDROOT
BRANCH   1   9
HETATM    9  N1  UNL     1       8.384  49.457  18.802  1.00  0.00    -0.073 N 
ATOM     10  H13 UNL     1       9.081  48.821  19.189  1.00  0.00     0.274 HD
ATOM     11  H12 UNL     1       7.555  48.983  19.162  1.00  0.00     0.274 HD
ATOM     12  H11 UNL     1       8.407  49.500  17.784  1.00  0.00     0.274 HD
ENDBRANCH   1   9
BRANCH   8  13
HETATM   13  O2  UNL     1      10.684  50.057  19.615  1.00  0.00    -0.393 OA
ATOM     14  H2  UNL     1      10.276  49.215  19.454  1.00  0.00     0.210 HD
ENDBRANCH   8  13
BRANCH   5  15
HETATM   15  N2  UNL     1      12.603  52.102  20.371  1.00  0.00    -0.363 N 
ATOM     16  H2  UNL     1      13.238  51.894  19.599  1.00  0.00     0.162 HD
BRANCH  15  17
HETATM   17  C6  UNL     1      12.951  51.745  21.697  1.00  0.00     0.348 C 
HETATM   18  O1  UNL     1      14.069  51.240  21.944  1.00  0.00    -0.284 OA
ENDBRANCH  15  17
ENDBRANCH   5  15
TORSDOF 4
ENDMDL
MODEL 2
REMARK VINA RESULT: -4.208875147      2.466      3.312
REMARK  4 active torsions:
REMARK  status: ('A' for Active; 'I' for Inactive)
REMARK    1  A    between atoms: N1_1  and  C1_5 
REMARK    2  A    between atoms: C5_9  and  N2_10 
REMARK    3  A    between atoms: N2_10  and  C6_12 
REMARK    4  A    between atoms: C9_16  and  O2_17 
ROOT
HETATM    1  C1  UNL     1      10.559  50.728  20.558  1.00  0.00     0.212 C 
HETATM    2  C2  UNL     1       9.668  50.261  19.454  1.00  0.00     0.040 C 
HETATM    3  C3  UNL     1       8.607  51.330  19.189  1.00  0.00    -0.010 C 
HETATM    4  C4  UNL     1       9.137  52.205  18.053  1.00  0.00     0.030 C 
HETATM    5  C5  UNL     1       9.502  53.528  18.685  1.00  0.00     0.090 C 
HETATM    6  C7  UNL     1       9.846  53.096  20.079  1.00  0.00     0.039 C 
HETATM    7  C8  UNL     1       8.560  52.293  20.363  1.00  0.00     0.014 C 
HETATM    8  C9  UNL     1      10.980  52.170  20.238  1.00  0.00     0.154 C 
ENDROOT
BRANCH   1   9
HETATM    9  N1  UNL     1      11.794  49.928  20.503  1.00  0.00    -0.073 N 
ATOM     10  H13 UNL     1      11.725  49.135  19.866  1.00  0.00     0.274 HD
ATOM     11  H12 UNL     1      12.559  50.411  20.032  1.00  0.00     0.274 HD
ATOM     12  H11 UNL     1      12.025  49.652  21.457  1.00  0.00     0.274 HD
ENDBRANCH   1   9
BRANCH   8  13
HETATM   13  O2  UNL     1      11.870  52.076  19.202  1.00  0.00    -0.393 OA
ATOM     14  H2  UNL     1      11.733  51.216  18.823  1.00  0.00     0.210 HD
ENDBRANCH   8  13
BRANCH   5  15
HETATM   15  N2  UNL     1      10.455  54.300  17.983  1.00  0.00    -0.363 N 
ATOM     16  H2  UNL     1      11.130  53.847  17.367  1.00  0.00     0.162 HD
BRANCH  15  17
HETATM   17  C6  UNL     1      10.465  55.708  18.141  1.00  0.00     0.348 C 
HETATM   18  O1  UNL     1      11.354  56.262  18.825  1.00  0.00    -0.284 OA
ENDBRANCH  15  17
ENDBRANCH   5  15
TORSDOF 4
ENDMDL
MODEL 3
REMARK VINA RESULT: -4.180964682      1.194      1.363
REMARK  4 active torsions:
REMARK  status: ('A' for Active; 'I' for Inactive)
REMARK    1  A    between atoms: N1_1  and  C1_5 
REMARK    2  A    between atoms: C5_9  and  N2_10 
REMARK    3  A    between atoms: N2_10  and  C6_12 
REMARK    4  A    between atoms: C9_16  and  O2_17 
ROOT
HETATM    1  C1  UNL     1       8.927  52.145  19.764  1.00  0.00     0.212 C 
HETATM    2  C2  UNL     1       9.593  52.732  18.562  1.00  0.00     0.040 C 
HETATM    3  C3  UNL     1      10.823  53.520  19.014  1.00  0.00    -0.010 C 
HETATM    4  C4  UNL     1      12.018  52.573  18.903  1.00  0.00     0.030 C 
HETATM    5  C5  UNL     1      12.412  52.235  20.322  1.00  0.00     0.090 C 
HETATM    6  C7  UNL     1      11.095  52.369  21.026  1.00  0.00     0.039 C 
HETATM    7  C8  UNL     1      10.734  53.777  20.508  1.00  0.00     0.014 C 
HETATM    8  C9  UNL     1      10.011  51.463  20.610  1.00  0.00     0.154 C 
ENDROOT
BRANCH   1   9
HETATM    9  N1  UNL     1       8.041  51.064  19.299  1.00  0.00    -0.073 N 
ATOM     10  H13 UNL     1       7.331  51.387  18.642  1.00  0.00     0.274 HD
ATOM     11  H12 UNL     1       8.510  50.407  18.675  1.00  0.00     0.274 HD
ATOM     12  H11 UNL     1       7.645  50.615  20.124  1.00  0.00     0.274 HD
ENDBRANCH   1   9
BRANCH   8  13
HETATM   13  O2  UNL     1      10.362  50.332  19.923  1.00  0.00    -0.393 OA
ATOM     14  H2  UNL     1      11.286  50.427  19.723  1.00  0.00     0.210 HD
ENDBRANCH   8  13
BRANCH   5  15
HETATM   15  N2  UNL     1      13.125  51.026  20.488  1.00  0.00    -0.363 N 
ATOM     16  H2  UNL     1      13.435  50.496  19.674  1.00  0.00     0.162 HD
BRANCH  15  17
HETATM   17  C6  UNL     1      13.406  50.556  21.795  1.00  0.00     0.348 C 
HETATM   18  O1  UNL     1      13.181  49.363  22.100  1.00  0.00    -0.284 OA
ENDBRANCH  15  17
ENDBRANCH   5  15
TORSDOF 4
ENDMDL
MODEL 4
REMARK VINA RESULT: -3.950801792      1.458      1.493
REMARK  4 active torsions:
REMARK  status: ('A' for Active; 'I' for Inactive)
REMARK    1  A    between atoms: N1_1  and  C1_5 
REMARK    2  A    between atoms: C5_9  and  N2_10 
REMARK    3  A    between atoms: N2_10  and  C6_12 
REMARK    4  A    between atoms: C9_16  and  O2_17 
ROOT
HETATM    1  C1  UNL     1       8.726  50.778  19.472  1.00  0.00     0.212 C 
HETATM    2  C2  UNL     1       8.732  51.374  18.103  1.00  0.00     0.040 C 
HETATM    3  C3  UNL     1       8.924  52.887  18.223  1.00  0.00    -0.010 C 
HETATM    4  C4  UNL     1      10.422  53.153  18.074  1.00  0.00     0.030 C 
HETATM    5  C5  UNL     1      10.911  53.550  19.448  1.00  0.00     0.090 C 
HETATM    6  C7  UNL     1       9.943  52.813  20.322  1.00  0.00     0.039 C 
HETATM    7  C8  UNL     1       8.646  53.316  19.654  1.00  0.00     0.014 C 
HETATM    8  C9  UNL     1       9.935  51.343  20.232  1.00  0.00     0.154 C 
ENDROOT
BRANCH   1   9
HETATM    9  N1  UNL     1       8.980  49.334  19.330  1.00  0.00    -0.073 N 
ATOM     10  H13 UNL     1       8.880  49.006  18.370  1.00  0.00     0.274 HD
ATOM     11  H12 UNL     1       9.963  49.090  19.453  1.00  0.00     0.274 HD
ATOM     12  H11 UNL     1       8.365  48.847  19.982  1.00  0.00     0.274 HD
ENDBRANCH   1   9
BRANCH   8  13
HETATM   13  O2  UNL     1      11.034  50.737  19.684  1.00  0.00    -0.393 OA
ATOM     14  H2  UNL     1      11.345  50.126  20.341  1.00  0.00     0.210 HD
ENDBRANCH   8  13
BRANCH   5  15
HETATM   15  N2  UNL     1      12.291  53.355  19.686  1.00  0.00    -0.363 N 
ATOM     16  H2  UNL     1      12.865  52.860  19.004  1.00  0.00     0.162 HD
BRANCH  15  17
HETATM   17  C6  UNL     1      12.869  53.854  20.880  1.00  0.00     0.348 C 
HETATM   18  O1  UNL     1      13.207  55.056  20.965  1.00  0.00    -0.284 OA
ENDBRANCH  15  17
ENDBRANCH   5  15
TORSDOF 4
ENDMDL
MODEL 5
REMARK VINA RESULT: -3.914447613      2.719      3.350
REMARK  4 active torsions:
REMARK  status: ('A' for Active; 'I' for Inactive)
REMARK    1  A    between atoms: N1_1  and  C1_5 
REMARK    2  A    between atoms: C5_9  and  N2_10 
REMARK    3  A    between atoms: N2_10  and  C6_12 
REMARK    4  A    between atoms: C9_16  and  O2_17 
ROOT
HETATM    1  C1  UNL     1       9.854  52.194  18.942  1.00  0.00     0.212 C 
HETATM    2  C2  UNL     1       9.639  52.125  20.419  1.00  0.00     0.040 C 
HETATM    3  C3  UNL     1      10.997  51.994  21.110  1.00  0.00    -0.010 C 
HETATM    4  C4  UNL     1      11.435  53.408  21.492  1.00  0.00     0.030 C 
HETATM    5  C5  UNL     1      12.575  53.753  20.562  1.00  0.00     0.090 C 
HETATM    6  C7  UNL     1      12.227  52.928  19.360  1.00  0.00     0.039 C 
HETATM    7  C8  UNL     1      12.043  51.581  20.089  1.00  0.00     0.014 C 
HETATM    8  C9  UNL     1      10.956  53.231  18.679  1.00  0.00     0.154 C 
ENDROOT
BRANCH   1   9
HETATM    9  N1  UNL     1       8.630  52.748  18.339  1.00  0.00    -0.073 N 
ATOM     10  H13 UNL     1       8.703  52.865  17.328  1.00  0.00     0.274 HD
ATOM     11  H12 UNL     1       7.852  52.089  18.342  1.00  0.00     0.274 HD
ATOM     12  H11 UNL     1       8.415  53.619  18.824  1.00  0.00     0.274 HD
ENDBRANCH   1   9
BRANCH   8  13
HETATM   13  O2  UNL     1      10.384  54.450  18.920  1.00  0.00    -0.393 OA
ATOM     14  H2  UNL     1      10.443  54.929  18.102  1.00  0.00     0.210 HD
ENDBRANCH   8  13
BRANCH   5  15
HETATM   15  N2  UNL     1      12.809  55.134  20.366  1.00  0.00    -0.363 N 
ATOM     16  H2  UNL     1      12.690  55.549  19.442  1.00  0.00     0.162 HD
BRANCH  15  17
HETATM   17  C6  UNL     1      13.209  55.936  21.464  1.00  0.00     0.348 C 
HETATM   18  O1  UNL     1      14.198  56.696  21.364  1.00  0.00    -0.284 OA
ENDBRANCH  15  17
ENDBRANCH   5  15
TORSDOF 4
ENDMDL
