MODEL 1
REMARK VINA RESULT: -4.025691687      0.000      0.000
REMARK  2 active torsions:
REMARK  status: ('A' for Active; 'I' for Inactive)
REMARK    1  A    between atoms: C2_2  and  N1_3 
REMARK       I    between atoms: N2_6  and  C5_7 
REMARK       I    between atoms: C5_7  and  N4_11 
REMARK    2  A    between atoms: N4_11  and  N5_13 
ROOT
HETATM    1  N1  UNL     1      12.281  54.337  20.412  1.00  0.00    -0.391 N 
HETATM    2  C3  UNL     1      12.178  53.798  21.690  1.00  0.00     0.078 C 
HETATM    3  C4  UNL     1      11.265  52.625  21.802  1.00  0.00     0.185 C 
HETATM    4  N2  UNL     1      11.087  51.917  20.557  1.00  0.00    -0.211 N 
HETATM    5  C5  UNL     1      11.108  50.519  20.385  1.00  0.00     0.688 C 
HETATM    6  N3  UNL     1      12.238  49.914  20.276  1.00  0.00    -0.233 N 
ATOM      7  H31 UNL     1      12.253  48.902  20.152  1.00  0.00     0.174 HD
ATOM      8  H32 UNL     1      13.104  50.451  20.314  1.00  0.00     0.174 HD
HETATM    9  N4  UNL     1       9.907  49.774  20.332  1.00  0.00    -0.132 N 
ATOM     10  H4  UNL     1       9.602  49.283  21.172  1.00  0.00     0.205 HD
HETATM   11  C7  UNL     1      10.877  52.748  19.352  1.00  0.00     0.161 C 
HETATM   12  C8  UNL     1      12.203  53.522  19.265  1.00  0.00     0.142 C 
ENDROOT
BRANCH   9  13
HETATM   13  N5  UNL     1       9.120  49.681  19.182  1.00  0.00    -0.284 N 
HETATM   14  C6  UNL     1       8.082  50.416  19.041  1.00  0.00     0.207 C 
HETATM   15  N6  UNL     1       7.737  51.326  20.057  1.00  0.00    -0.095 NA
ATOM     16  H5  UNL     1       9.375  49.021  18.448  1.00  0.00     0.187 HD
ENDBRANCH   9  13
BRANCH   1  17
HETATM   17  C2  UNL     1      12.665  55.683  20.231  1.00  0.00     0.117 C 
HETATM   18  C1  UNL     1      13.449  56.146  21.436  1.00  0.00     0.026 C 
ENDBRANCH   1  17
TORSDOF 2
ENDMDL
MODEL 2
REMARK VINA RESULT: -3.472604211      1.541      5.692
REMARK  2 active torsions:
REMARK  status: ('A' for Active; 'I' for Inactive)
REMARK    1  A    between atoms: C2_2  and  N1_3 
REMARK       I    between atoms: N2_6  and  C5_7 
REMARK       I    between atoms: C5_7  and  N4_11 
REMARK    2  A    between atoms: N4_11  and  N5_13 
ROOT
HETATM    1  N1  UNL     1       8.837  50.937  19.351  1.00  0.00    -0.391 N 
HETATM    2  C3  UNL     1       8.949  51.764  18.239  1.00  0.00     0.078 C 
HETATM    3  C4  UNL     1       9.730  53.014  18.467  1.00  0.00     0.185 C 
HETATM    4  N2  UNL     1      10.671  52.910  19.557  1.00  0.00    -0.211 N 
HETATM    5  C5  UNL     1      12.006  53.360  19.548  1.00  0.00     0.688 C 
HETATM    6  N3  UNL     1      12.917  52.618  19.024  1.00  0.00    -0.233 N 
ATOM      7  H31 UNL     1      13.883  52.944  19.018  1.00  0.00     0.174 HD
ATOM      8  H32 UNL     1      12.665  51.716  18.622  1.00  0.00     0.174 HD
HETATM    9  N4  UNL     1      12.356  54.611  20.106  1.00  0.00    -0.132 N 
ATOM     10  H4  UNL     1      12.487  55.404  19.477  1.00  0.00     0.205 HD
HETATM   11  C7  UNL     1      10.181  52.258  20.790  1.00  0.00     0.161 C 
HETATM   12  C8  UNL     1       9.878  50.833  20.295  1.00  0.00     0.142 C 
ENDROOT
BRANCH   9  13
HETATM   13  N5  UNL     1      12.531  54.812  21.476  1.00  0.00    -0.284 N 
HETATM   14  C6  UNL     1      13.230  55.793  21.908  1.00  0.00     0.207 C 
HETATM   15  N6  UNL     1      13.825  56.675  20.988  1.00  0.00    -0.095 NA
ATOM     16  H5  UNL     1      12.096  54.171  22.140  1.00  0.00     0.187 HD
ENDBRANCH   9  13
BRANCH   1  17
HETATM   17  C2  UNL     1       7.764  50.026  19.460  1.00  0.00     0.117 C 
HETATM   18  C1  UNL     1       7.811  49.056  18.304  1.00  0.00     0.026 C 
ENDBRANCH   1  17
TORSDOF 2
ENDMDL
MODEL 3
REMARK VINA RESULT: -2.863077048      0.732      1.050
REMARK  2 active torsions:
REMARK  status: ('A' for Active; 'I' for Inactive)
REMARK    1  A    between atoms: C2_2  and  N1_3 
REMARK       I    between atoms: N2_6  and  C5_7 
REMARK       I    between atoms: C5_7  and  N4_11 
REMARK    2  A    between atoms: N4_11  and  N5_13 
ROOT
HETATM    1  N1  UNL     1      11.879  54.489  19.965  1.00  0.00    -0.391 N 
HETATM    2  C3  UNL     1      11.866  54.051  21.285  1.00  0.00     0.078 C 
HETATM    3  C4  UNL     1      11.063  52.818  21.525  1.00  0.00     0.185 C 
HETATM    4  N2  UNL     1      10.908  51.997  20.347  1.00  0.00    -0.211 N 
HETATM    5  C5  UNL     1      11.047  50.596  20.287  1.00  0.00     0.688 C 
HETATM    6  N3  UNL     1      12.221  50.083  20.182  1.00  0.00    -0.233 N 
ATOM      7  H31 UNL     1      12.321  49.069  20.139  1.00  0.00     0.174 HD
ATOM      8  H32 UNL     1      13.038  50.692  20.145  1.00  0.00     0.174 HD
HETATM    9  N4  UNL     1       9.915  49.750  20.339  1.00  0.00    -0.132 N 
ATOM     10  H4  UNL     1       9.681  49.306  21.227  1.00  0.00     0.205 HD
HETATM   11  C7  UNL     1      10.588  52.704  19.089  1.00  0.00     0.161 C 
HETATM   12  C8  UNL     1      11.838  53.579  18.890  1.00  0.00     0.142 C 
ENDROOT
BRANCH   9  13
HETATM   13  N5  UNL     1       9.103  49.496  19.233  1.00  0.00    -0.284 N 
HETATM   14  C6  UNL     1       8.022  50.157  19.050  1.00  0.00     0.207 C 
HETATM   15  N6  UNL     1       7.657  51.151  19.977  1.00  0.00    -0.095 NA
ATOM     16  H5  UNL     1       9.373  48.776  18.563  1.00  0.00     0.187 HD
ENDBRANCH   9  13
BRANCH   1  17
HETATM   17  C2  UNL     1      12.138  55.844  19.663  1.00  0.00     0.117 C 
HETATM   18  C1  UNL     1      11.150  56.322  18.626  1.00  0.00     0.026 C 
ENDBRANCH   1  17
TORSDOF 2
ENDMDL
MODEL 4
REMARK VINA RESULT: -2.751366147      1.617      2.480
REMARK  2 active torsions:
REMARK  status: ('A' for Active; 'I' for Inactive)
REMARK    1  A    between atoms: C2_2  and  N1_3 
REMARK       I    between atoms: N2_6  and  C5_7 
REMARK       I    between atoms: C5_7  and  N4_11 
REMARK    2  A    between atoms: N4_11  and  N5_13 
ROOT
HETATM    1  N1  UNL     1      11.947  53.893  20.459  1.00  0.00    -0.391 N 
HETATM    2  C3  UNL     1      11.445  54.583  19.361  1.00  0.00     0.078 C 
HETATM    3  C4  UNL     1      10.643  53.753  18.415  1.00  0.00     0.185 C 
HETATM    4  N2  UNL     1      10.064  52.583  19.030  1.00  0.00    -0.211 N 
HETATM    5  C5  UNL     1       8.744  52.121  18.859  1.00  0.00     0.688 C 
HETATM    6  N3  UNL     1       7.798  52.645  19.556  1.00  0.00    -0.233 N 
ATOM      7  H31 UNL     1       6.843  52.311  19.432  1.00  0.00     0.174 HD
ATOM      8  H32 UNL     1       8.012  53.386  20.222  1.00  0.00     0.174 HD
HETATM    9  N4  UNL     1       8.446  51.093  17.935  1.00  0.00    -0.132 N 
ATOM     10  H4  UNL     1       8.067  51.353  17.024  1.00  0.00     0.205 HD
HETATM   11  C7  UNL     1      10.944  51.810  19.933  1.00  0.00     0.161 C 
HETATM   12  C8  UNL     1      11.230  52.831  21.047  1.00  0.00     0.142 C 
ENDROOT
BRANCH   9  13
HETATM   13  N5  UNL     1       8.649  49.740  18.211  1.00  0.00    -0.284 N 
HETATM   14  C6  UNL     1       7.947  49.143  19.100  1.00  0.00     0.207 C 
HETATM   15  N6  UNL     1       6.963  49.864  19.801  1.00  0.00    -0.095 NA
ATOM     16  H5  UNL     1       9.362  49.221  17.698  1.00  0.00     0.187 HD
ENDBRANCH   9  13
BRANCH   1  17
HETATM   17  C2  UNL     1      13.089  54.365  21.140  1.00  0.00     0.117 C 
HETATM   18  C1  UNL     1      13.099  55.874  21.115  1.00  0.00     0.026 C 
ENDBRANCH   1  17
TORSDOF 2
ENDMDL
MODEL 5
REMARK VINA RESULT: -2.690091688      1.880      5.264
REMARK  2 active torsions:
REMARK  status: ('A' for Active; 'I' for Inactive)
REMARK    1  A    between atoms: C2_2  and  N1_3 
REMARK       I    between atoms: N2_6  and  C5_7 
REMARK       I    between atoms: C5_7  and  N4_11 
REMARK    2  A    between atoms: N4_11  and  N5_13 
ROOT
HETATM    1  N1  UNL     1       8.713  51.443  18.776  1.00  0.00    -0.391 N 
HETATM    2  C3  UNL     1       9.036  52.432  17.853  1.00  0.00     0.078 C 
HETATM    3  C4  UNL     1       9.913  53.516  18.382  1.00  0.00     0.185 C 
HETATM    4  N2  UNL     1      10.709  53.107  19.515  1.00  0.00    -0.211 N 
HETATM    5  C5  UNL     1      12.077  53.383  19.713  1.00  0.00     0.688 C 
HETATM    6  N3  UNL     1      12.958  52.637  19.146  1.00  0.00    -0.233 N 
ATOM      7  H31 UNL     1      13.947  52.836  19.289  1.00  0.00     0.174 HD
ATOM      8  H32 UNL     1      12.659  51.857  18.560  1.00  0.00     0.174 HD
HETATM    9  N4  UNL     1      12.491  54.464  20.524  1.00  0.00    -0.132 N 
ATOM     10  H4  UNL     1      12.775  55.332  20.070  1.00  0.00     0.205 HD
HETATM   11  C7  UNL     1      10.017  52.315  20.554  1.00  0.00     0.161 C 
HETATM   12  C8  UNL     1       9.624  51.047  19.775  1.00  0.00     0.142 C 
ENDROOT
BRANCH   9  13
HETATM   13  N5  UNL     1      12.530  54.398  21.919  1.00  0.00    -0.284 N 
HETATM   14  C6  UNL     1      12.907  53.328  22.511  1.00  0.00     0.207 C 
HETATM   15  N6  UNL     1      13.287  52.211  21.744  1.00  0.00    -0.095 NA
ATOM     16  H5  UNL     1      12.255  55.211  22.470  1.00  0.00     0.187 HD
ENDBRANCH   9  13
BRANCH   1  17
HETATM   17  C2  UNL     1       7.544  50.668  18.614  1.00  0.00     0.117 C 
HETATM   18  C1  UNL     1       7.774  49.291  19.190  1.00  0.00     0.026 C 
ENDBRANCH   1  17
TORSDOF 2
ENDMDL
