MODEL 1
REMARK VINA RESULT: -5.347726126      0.000      0.000
REMARK  7 active torsions:
REMARK  status: ('A' for Active; 'I' for Inactive)
REMARK    1  A    between atoms: C1_2  and  N1_3 
REMARK    2  A    between atoms: N1_3  and  C2_4 
REMARK    3  A    between atoms: N1_3  and  C6_10 
REMARK    4  A    between atoms: C2_4  and  C3_5 
REMARK    5  A    between atoms: C4_6  and  C5_7 
REMARK    6  A    between atoms: C5_7  and  O2_8 
REMARK    7  A    between atoms: C10_14  and  O3_15 
ROOT
HETATM    1  N1  UNL     1      10.461  53.027  19.143  1.00  0.00    -0.341 N 
ENDROOT
BRANCH   1   2
HETATM    2  C1  UNL     1      10.265  54.048  18.199  1.00  0.00     0.352 C 
HETATM    3  O1  UNL     1      11.024  54.161  17.216  1.00  0.00    -0.283 OA
ENDBRANCH   1   2
BRANCH   1   4
HETATM    4  C2  UNL     1      11.826  52.694  19.519  1.00  0.00     0.220 C 
BRANCH   4   5
HETATM    5  C3  UNL     1      12.308  53.813  20.345  1.00  0.00    -0.085 C 
HETATM    6  C4  UNL     1      12.686  54.739  21.014  1.00  0.00    -0.079 C 
BRANCH   6   7
HETATM    7  C5  UNL     1      13.126  55.871  21.833  1.00  0.00     0.257 C 
BRANCH   7   8
HETATM    8  O2  UNL     1      13.928  56.666  21.026  1.00  0.00    -0.389 OA
ATOM      9  H2  UNL     1      14.232  57.388  21.564  1.00  0.00     0.210 HD
ENDBRANCH   7   8
ENDBRANCH   6   7
ENDBRANCH   4   5
ENDBRANCH   1   4
BRANCH   1  10
HETATM   10  C6  UNL     1       9.401  52.276  19.785  1.00  0.00     0.123 A 
HETATM   11  C7  UNL     1       9.927  51.020  20.364  1.00  0.00     0.055 A 
HETATM   12  C8  UNL     1       9.310  49.907  19.651  1.00  0.00    -0.026 A 
HETATM   13  C9  UNL     1       8.421  50.358  18.802  1.00  0.00     0.003 A 
HETATM   14  C10 UNL     1       8.323  51.828  18.834  1.00  0.00     0.164 A 
BRANCH  14  15
HETATM   15  O3  UNL     1       8.516  52.412  17.597  1.00  0.00    -0.390 OA
ATOM     16  H3  UNL     1       8.248  51.811  16.911  1.00  0.00     0.210 HD
ENDBRANCH  14  15
ENDBRANCH   1  10
TORSDOF 7
ENDMDL
MODEL 2
REMARK VINA RESULT: -5.171003504      2.560      3.046
REMARK  7 active torsions:
REMARK  status: ('A' for Active; 'I' for Inactive)
REMARK    1  A    between atoms: C1_2  and  N1_3 
REMARK    2  A    between atoms: N1_3  and  C2_4 
REMARK    3  A    between atoms: N1_3  and  C6_10 
REMARK    4  A    between atoms: C2_4  and  C3_5 
REMARK    5  A    between atoms: C4_6  and  C5_7 
REMARK    6  A    between atoms: C5_7  and  O2_8 
REMARK    7  A    between atoms: C10_14  and  O3_15 
ROOT
HETATM    1  N1  UNL     1      11.579  51.944  20.523  1.00  0.00    -0.341 N 
ENDROOT
BRANCH   1   2
HETATM    2  C1  UNL     1      11.874  50.571  20.504  1.00  0.00     0.352 C 
HETATM    3  O1  UNL     1      13.019  50.161  20.780  1.00  0.00    -0.283 OA
ENDBRANCH   1   2
BRANCH   1   4
HETATM    4  C2  UNL     1      12.661  52.874  20.809  1.00  0.00     0.220 C 
BRANCH   4   5
HETATM    5  C3  UNL     1      12.234  53.649  21.985  1.00  0.00    -0.085 C 
HETATM    6  C4  UNL     1      11.872  54.292  22.935  1.00  0.00    -0.079 C 
BRANCH   6   7
HETATM    7  C5  UNL     1      11.411  55.075  24.084  1.00  0.00     0.257 C 
BRANCH   7   8
HETATM    8  O2  UNL     1      11.917  54.461  25.222  1.00  0.00    -0.389 OA
ATOM      9  H2  UNL     1      11.261  53.840  25.516  1.00  0.00     0.210 HD
ENDBRANCH   7   8
ENDBRANCH   6   7
ENDBRANCH   4   5
ENDBRANCH   1   4
BRANCH   1  10
HETATM   10  C6  UNL     1      10.271  52.515  20.271  1.00  0.00     0.123 A 
HETATM   11  C7  UNL     1       9.262  51.448  20.087  1.00  0.00     0.055 A 
HETATM   12  C8  UNL     1       8.771  51.528  18.716  1.00  0.00    -0.026 A 
HETATM   13  C9  UNL     1       9.295  52.567  18.114  1.00  0.00     0.003 A 
HETATM   14  C10 UNL     1      10.202  53.319  19.000  1.00  0.00     0.164 A 
BRANCH  14  15
HETATM   15  O3  UNL     1      11.470  53.474  18.473  1.00  0.00    -0.390 OA
ATOM     16  H3  UNL     1      11.475  54.189  17.848  1.00  0.00     0.210 HD
ENDBRANCH  14  15
ENDBRANCH   1  10
TORSDOF 7
ENDMDL
MODEL 3
REMARK VINA RESULT: -4.936575062      2.063      2.685
REMARK  7 active torsions:
REMARK  status: ('A' for Active; 'I' for Inactive)
REMARK    1  A    between atoms: C1_2  and  N1_3 
REMARK    2  A    between atoms: N1_3  and  C2_4 
REMARK    3  A    between atoms: N1_3  and  C6_10 
REMARK    4  A    between atoms: C2_4  and  C3_5 
REMARK    5  A    between atoms: C4_6  and  C5_7 
REMARK    6  A    between atoms: C5_7  and  O2_8 
REMARK    7  A    between atoms: C10_14  and  O3_15 
ROOT
HETATM    1  N1  UNL     1      11.455  51.736  20.794  1.00  0.00    -0.341 N 
ENDROOT
BRANCH   1   2
HETATM    2  C1  UNL     1      11.646  50.426  20.325  1.00  0.00     0.352 C 
HETATM    3  O1  UNL     1      12.641  49.762  20.678  1.00  0.00    -0.283 OA
ENDBRANCH   1   2
BRANCH   1   4
HETATM    4  C2  UNL     1      12.396  52.260  21.771  1.00  0.00     0.220 C 
BRANCH   4   5
HETATM    5  C3  UNL     1      12.607  53.674  21.420  1.00  0.00    -0.085 C 
HETATM    6  C4  UNL     1      12.797  54.824  21.125  1.00  0.00    -0.079 C 
BRANCH   6   7
HETATM    7  C5  UNL     1      13.039  56.219  20.749  1.00  0.00     0.257 C 
BRANCH   7   8
HETATM    8  O2  UNL     1      14.186  56.626  21.418  1.00  0.00    -0.389 OA
ATOM      9  H2  UNL     1      14.592  57.300  20.886  1.00  0.00     0.210 HD
ENDBRANCH   7   8
ENDBRANCH   6   7
ENDBRANCH   4   5
ENDBRANCH   1   4
BRANCH   1  10
HETATM   10  C6  UNL     1      10.386  52.620  20.371  1.00  0.00     0.123 A 
HETATM   11  C7  UNL     1       9.105  51.885  20.283  1.00  0.00     0.055 A 
HETATM   12  C8  UNL     1       8.687  51.882  18.885  1.00  0.00    -0.026 A 
HETATM   13  C9  UNL     1       9.513  52.605  18.171  1.00  0.00     0.003 A 
HETATM   14  C10 UNL     1      10.588  53.189  18.992  1.00  0.00     0.164 A 
BRANCH  14  15
HETATM   15  O3  UNL     1      11.853  52.873  18.534  1.00  0.00    -0.390 OA
ATOM     16  H3  UNL     1      11.819  52.077  18.017  1.00  0.00     0.210 HD
ENDBRANCH  14  15
ENDBRANCH   1  10
TORSDOF 7
ENDMDL
MODEL 4
REMARK VINA RESULT: -4.903345736      1.654      5.093
REMARK  7 active torsions:
REMARK  status: ('A' for Active; 'I' for Inactive)
REMARK    1  A    between atoms: C1_2  and  N1_3 
REMARK    2  A    between atoms: N1_3  and  C2_4 
REMARK    3  A    between atoms: N1_3  and  C6_10 
REMARK    4  A    between atoms: C2_4  and  C3_5 
REMARK    5  A    between atoms: C4_6  and  C5_7 
REMARK    6  A    between atoms: C5_7  and  O2_8 
REMARK    7  A    between atoms: C10_14  and  O3_15 
ROOT
HETATM    1  N1  UNL     1      10.861  52.989  19.410  1.00  0.00    -0.341 N 
ENDROOT
BRANCH   1   2
HETATM    2  C1  UNL     1      10.519  53.732  18.267  1.00  0.00     0.352 C 
HETATM    3  O1  UNL     1      10.813  54.940  18.182  1.00  0.00    -0.283 OA
ENDBRANCH   1   2
BRANCH   1   4
HETATM    4  C2  UNL     1       9.812  52.686  20.370  1.00  0.00     0.220 C 
BRANCH   4   5
HETATM    5  C3  UNL     1       9.089  51.521  19.832  1.00  0.00    -0.085 C 
HETATM    6  C4  UNL     1       8.510  50.558  19.405  1.00  0.00    -0.079 C 
BRANCH   6   7
HETATM    7  C5  UNL     1       7.806  49.375  18.903  1.00  0.00     0.257 C 
BRANCH   7   8
HETATM    8  O2  UNL     1       8.000  49.341  17.529  1.00  0.00    -0.389 OA
ATOM      9  H2  UNL     1       7.824  48.451  17.247  1.00  0.00     0.210 HD
ENDBRANCH   7   8
ENDBRANCH   6   7
ENDBRANCH   4   5
ENDBRANCH   1   4
BRANCH   1  10
HETATM   10  C6  UNL     1      12.189  52.491  19.708  1.00  0.00     0.123 A 
HETATM   11  C7  UNL     1      12.114  51.171  20.373  1.00  0.00     0.055 A 
HETATM   12  C8  UNL     1      12.646  51.321  21.723  1.00  0.00    -0.026 A 
HETATM   13  C9  UNL     1      13.110  52.534  21.888  1.00  0.00     0.003 A 
HETATM   14  C10 UNL     1      12.952  53.356  20.675  1.00  0.00     0.164 A 
BRANCH  14  15
HETATM   15  O3  UNL     1      12.260  54.530  20.900  1.00  0.00    -0.390 OA
ATOM     16  H3  UNL     1      12.079  54.963  20.074  1.00  0.00     0.210 HD
ENDBRANCH  14  15
ENDBRANCH   1  10
TORSDOF 7
ENDMDL
MODEL 5
REMARK VINA RESULT: -4.844010768      2.811      3.875
REMARK  7 active torsions:
REMARK  status: ('A' for Active; 'I' for Inactive)
REMARK    1  A    between atoms: C1_2  and  N1_3 
REMARK    2  A    between atoms: N1_3  and  C2_4 
REMARK    3  A    between atoms: N1_3  and  C6_10 
REMARK    4  A    between atoms: C2_4  and  C3_5 
REMARK    5  A    between atoms: C4_6  and  C5_7 
REMARK    6  A    between atoms: C5_7  and  O2_8 
REMARK    7  A    between atoms: C10_14  and  O3_15 
ROOT
HETATM    1  N1  UNL     1       9.280  51.633  19.295  1.00  0.00    -0.341 N 
ENDROOT
BRANCH   1   2
HETATM    2  C1  UNL     1       8.756  50.330  19.318  1.00  0.00     0.352 C 
HETATM    3  O1  UNL     1       7.587  50.120  19.697  1.00  0.00    -0.283 OA
ENDBRANCH   1   2
BRANCH   1   4
HETATM    4  C2  UNL     1       9.752  52.205  20.545  1.00  0.00     0.220 C 
BRANCH   4   5
HETATM    5  C3  UNL     1      11.007  51.506  20.867  1.00  0.00    -0.085 C 
HETATM    6  C4  UNL     1      12.032  50.943  21.149  1.00  0.00    -0.079 C 
BRANCH   6   7
HETATM    7  C5  UNL     1      13.273  50.255  21.513  1.00  0.00     0.257 C 
BRANCH   7   8
HETATM    8  O2  UNL     1      14.147  51.222  21.991  1.00  0.00    -0.389 OA
ATOM      9  H2  UNL     1      13.615  51.919  22.357  1.00  0.00     0.210 HD
ENDBRANCH   7   8
ENDBRANCH   6   7
ENDBRANCH   4   5
ENDBRANCH   1   4
BRANCH   1  10
HETATM   10  C6  UNL     1       9.394  52.459  18.109  1.00  0.00     0.123 A 
HETATM   11  C7  UNL     1      10.465  53.467  18.276  1.00  0.00     0.055 A 
HETATM   12  C8  UNL     1       9.843  54.786  18.264  1.00  0.00    -0.026 A 
HETATM   13  C9  UNL     1       8.563  54.673  18.012  1.00  0.00     0.003 A 
HETATM   14  C10 UNL     1       8.159  53.269  17.821  1.00  0.00     0.164 A 
BRANCH  14  15
HETATM   15  O3  UNL     1       7.135  52.880  18.663  1.00  0.00    -0.390 OA
ATOM     16  H3  UNL     1       7.381  53.041  19.567  1.00  0.00     0.210 HD
ENDBRANCH  14  15
ENDBRANCH   1  10
TORSDOF 7
ENDMDL
