MODEL 1
REMARK VINA RESULT: -5.121590495      0.000      0.000
REMARK  4 active torsions:
REMARK  status: ('A' for Active; 'I' for Inactive)
REMARK    1  A    between atoms: N1_1  and  N2_4 
REMARK       I    between atoms: C1_6  and  N4_8 
REMARK    2  A    between atoms: N4_8  and  C2_10 
REMARK    3  A    between atoms: C2_10  and  C3_11 
REMARK    4  A    between atoms: C3_11  and  N5_12 
ROOT
HETATM    1  N2  UNL     1       8.354  50.114  19.743  1.00  0.00    -0.280 N 
ATOM      2  H2  UNL     1       7.581  49.701  20.267  1.00  0.00     0.189 HD
HETATM    3  C1  UNL     1       8.242  51.316  19.227  1.00  0.00     0.202 C 
HETATM    4  N3  UNL     1       7.046  52.012  19.405  1.00  0.00    -0.062 NA
HETATM    5  N4  UNL     1       9.311  51.868  18.519  1.00  0.00    -0.359 N 
ATOM      6  H4  UNL     1       9.901  51.230  17.984  1.00  0.00     0.162 HD
ENDROOT
BRANCH   5   7
HETATM    7  C2  UNL     1       9.646  53.267  18.485  1.00  0.00     0.166 C 
BRANCH   7   8
HETATM    8  C3  UNL     1      11.125  53.509  18.659  1.00  0.00     0.077 C 
BRANCH   8   9
HETATM    9  N5  UNL     1      11.567  53.110  19.937  1.00  0.00    -0.388 N 
HETATM   10  C4  UNL     1      12.292  54.105  20.647  1.00  0.00     0.148 C 
HETATM   11  C5  UNL     1      12.408  53.670  22.100  1.00  0.00     0.187 C 
HETATM   12  O1  UNL     1      13.135  52.493  22.135  1.00  0.00    -0.388 OA
HETATM   13  C6  UNL     1      12.494  51.455  21.459  1.00  0.00     0.187 C 
HETATM   14  C7  UNL     1      12.152  51.820  20.045  1.00  0.00     0.148 C 
ENDBRANCH   8   9
ENDBRANCH   7   8
ENDBRANCH   5   7
BRANCH   1  15
HETATM   15  N1  UNL     1       9.557  49.401  19.565  1.00  0.00    -0.343 N 
ATOM     16  H12 UNL     1       9.533  48.384  19.492  1.00  0.00     0.176 HD
ATOM     17  H11 UNL     1      10.435  49.917  19.513  1.00  0.00     0.176 HD
ENDBRANCH   1  15
TORSDOF 4
ENDMDL
MODEL 2
REMARK VINA RESULT: -4.999314032      2.639      5.191
REMARK  4 active torsions:
REMARK  status: ('A' for Active; 'I' for Inactive)
REMARK    1  A    between atoms: N1_1  and  N2_4 
REMARK       I    between atoms: C1_6  and  N4_8 
REMARK    2  A    between atoms: N4_8  and  C2_10 
REMARK    3  A    between atoms: C2_10  and  C3_11 
REMARK    4  A    between atoms: C3_11  and  N5_12 
ROOT
HETATM    1  N2  UNL     1      12.273  55.306  22.966  1.00  0.00    -0.280 N 
ATOM      2  H2  UNL     1      12.648  56.255  22.966  1.00  0.00     0.189 HD
HETATM    3  C1  UNL     1      12.451  54.519  21.929  1.00  0.00     0.202 C 
HETATM    4  N3  UNL     1      13.157  55.010  20.831  1.00  0.00    -0.062 NA
HETATM    5  N4  UNL     1      11.936  53.222  21.947  1.00  0.00    -0.359 N 
ATOM      6  H4  UNL     1      11.061  53.070  22.450  1.00  0.00     0.162 HD
ENDROOT
BRANCH   5   7
HETATM    7  C2  UNL     1      12.544  52.082  21.312  1.00  0.00     0.166 C 
BRANCH   7   8
HETATM    8  C3  UNL     1      11.522  51.090  20.813  1.00  0.00     0.077 C 
BRANCH   8   9
HETATM    9  N5  UNL     1      10.462  51.733  20.141  1.00  0.00    -0.388 N 
HETATM   10  C4  UNL     1       9.376  50.881  19.803  1.00  0.00     0.148 C 
HETATM   11  C5  UNL     1       8.192  51.748  19.400  1.00  0.00     0.187 C 
HETATM   12  O1  UNL     1       8.553  52.464  18.272  1.00  0.00    -0.388 OA
HETATM   13  C6  UNL     1       9.618  53.331  18.514  1.00  0.00     0.187 C 
HETATM   14  C7  UNL     1      10.809  52.627  19.093  1.00  0.00     0.148 C 
ENDBRANCH   8   9
ENDBRANCH   7   8
ENDBRANCH   5   7
BRANCH   1  15
HETATM   15  N1  UNL     1      11.557  54.820  24.079  1.00  0.00    -0.343 N 
ATOM     16  H12 UNL     1      11.266  53.843  24.102  1.00  0.00     0.176 HD
ATOM     17  H11 UNL     1      11.343  55.457  24.846  1.00  0.00     0.176 HD
ENDBRANCH   1  15
TORSDOF 4
ENDMDL
MODEL 3
REMARK VINA RESULT: -4.849016711      2.594      4.437
REMARK  4 active torsions:
REMARK  status: ('A' for Active; 'I' for Inactive)
REMARK    1  A    between atoms: N1_1  and  N2_4 
REMARK       I    between atoms: C1_6  and  N4_8 
REMARK    2  A    between atoms: N4_8  and  C2_10 
REMARK    3  A    between atoms: C2_10  and  C3_11 
REMARK    4  A    between atoms: C3_11  and  N5_12 
ROOT
HETATM    1  N2  UNL     1      12.349  49.871  20.820  1.00  0.00    -0.280 N 
ATOM      2  H2  UNL     1      12.969  49.064  20.752  1.00  0.00     0.189 HD
HETATM    3  C1  UNL     1      12.756  50.977  21.402  1.00  0.00     0.202 C 
HETATM    4  N3  UNL     1      14.048  51.020  21.926  1.00  0.00    -0.062 NA
HETATM    5  N4  UNL     1      11.897  52.074  21.482  1.00  0.00    -0.359 N 
ATOM      6  H4  UNL     1      10.899  51.884  21.582  1.00  0.00     0.162 HD
ENDROOT
BRANCH   5   7
HETATM    7  C2  UNL     1      12.309  53.452  21.434  1.00  0.00     0.166 C 
BRANCH   7   8
HETATM    8  C3  UNL     1      12.325  53.998  20.027  1.00  0.00     0.077 C 
BRANCH   8   9
HETATM    9  N5  UNL     1      11.041  53.964  19.444  1.00  0.00    -0.388 N 
HETATM   10  C4  UNL     1      10.651  52.688  18.954  1.00  0.00     0.148 C 
HETATM   11  C5  UNL     1       9.156  52.719  18.671  1.00  0.00     0.187 C 
HETATM   12  O1  UNL     1       8.931  53.656  17.677  1.00  0.00    -0.388 OA
HETATM   13  C6  UNL     1       9.287  54.944  18.075  1.00  0.00     0.187 C 
HETATM   14  C7  UNL     1      10.705  55.021  18.558  1.00  0.00     0.148 C 
ENDBRANCH   8   9
ENDBRANCH   7   8
ENDBRANCH   5   7
BRANCH   1  15
HETATM   15  N1  UNL     1      11.044  49.817  20.291  1.00  0.00    -0.343 N 
ATOM     16  H12 UNL     1      10.685  50.607  19.756  1.00  0.00     0.176 HD
ATOM     17  H11 UNL     1      10.478  48.983  20.452  1.00  0.00     0.176 HD
ENDBRANCH   1  15
TORSDOF 4
ENDMDL
MODEL 4
REMARK VINA RESULT: -4.847017575      2.548      4.381
REMARK  4 active torsions:
REMARK  status: ('A' for Active; 'I' for Inactive)
REMARK    1  A    between atoms: N1_1  and  N2_4 
REMARK       I    between atoms: C1_6  and  N4_8 
REMARK    2  A    between atoms: N4_8  and  C2_10 
REMARK    3  A    between atoms: C2_10  and  C3_11 
REMARK    4  A    between atoms: C3_11  and  N5_12 
ROOT
HETATM    1  N2  UNL     1      12.846  49.810  20.998  1.00  0.00    -0.280 N 
ATOM      2  H2  UNL     1      13.493  49.137  21.409  1.00  0.00     0.189 HD
HETATM    3  C1  UNL     1      12.913  51.082  21.322  1.00  0.00     0.202 C 
HETATM    4  N3  UNL     1      13.881  51.487  22.240  1.00  0.00    -0.062 NA
HETATM    5  N4  UNL     1      12.025  51.991  20.745  1.00  0.00    -0.359 N 
ATOM      6  H4  UNL     1      11.085  51.658  20.528  1.00  0.00     0.162 HD
ENDROOT
BRANCH   5   7
HETATM    7  C2  UNL     1      12.332  53.362  20.434  1.00  0.00     0.166 C 
BRANCH   7   8
HETATM    8  C3  UNL     1      11.486  53.898  19.305  1.00  0.00     0.077 C 
BRANCH   8   9
HETATM    9  N5  UNL     1      10.399  53.046  19.023  1.00  0.00    -0.388 N 
HETATM   10  C4  UNL     1       9.472  53.565  18.079  1.00  0.00     0.148 C 
HETATM   11  C5  UNL     1       8.562  52.433  17.626  1.00  0.00     0.187 C 
HETATM   12  O1  UNL     1       7.856  51.987  18.730  1.00  0.00    -0.388 OA
HETATM   13  C6  UNL     1       8.692  51.457  19.713  1.00  0.00     0.187 C 
HETATM   14  C7  UNL     1       9.766  52.418  20.128  1.00  0.00     0.148 C 
ENDBRANCH   8   9
ENDBRANCH   7   8
ENDBRANCH   5   7
BRANCH   1  15
HETATM   15  N1  UNL     1      11.868  49.390  20.073  1.00  0.00    -0.343 N 
ATOM     16  H12 UNL     1      10.956  49.085  20.411  1.00  0.00     0.176 HD
ATOM     17  H11 UNL     1      12.092  49.399  19.078  1.00  0.00     0.176 HD
ENDBRANCH   1  15
TORSDOF 4
ENDMDL
MODEL 5
REMARK VINA RESULT: -4.816726634      1.837      2.871
REMARK  4 active torsions:
REMARK  status: ('A' for Active; 'I' for Inactive)
REMARK    1  A    between atoms: N1_1  and  N2_4 
REMARK       I    between atoms: C1_6  and  N4_8 
REMARK    2  A    between atoms: N4_8  and  C2_10 
REMARK    3  A    between atoms: C2_10  and  C3_11 
REMARK    4  A    between atoms: C3_11  and  N5_12 
ROOT
HETATM    1  N2  UNL     1      10.226  54.307  17.758  1.00  0.00    -0.280 N 
ATOM      2  H2  UNL     1      10.259  54.553  16.768  1.00  0.00     0.189 HD
HETATM    3  C1  UNL     1       9.378  53.402  18.192  1.00  0.00     0.202 C 
HETATM    4  N3  UNL     1       8.526  52.790  17.273  1.00  0.00    -0.062 NA
HETATM    5  N4  UNL     1       9.350  53.073  19.548  1.00  0.00    -0.359 N 
ATOM      6  H4  UNL     1       9.556  53.815  20.217  1.00  0.00     0.162 HD
ENDROOT
BRANCH   5   7
HETATM    7  C2  UNL     1       9.052  51.767  20.076  1.00  0.00     0.166 C 
BRANCH   7   8
HETATM    8  C3  UNL     1      10.185  50.792  19.870  1.00  0.00     0.077 C 
BRANCH   8   9
HETATM    9  N5  UNL     1      11.250  51.042  20.760  1.00  0.00    -0.388 N 
HETATM   10  C4  UNL     1      11.826  52.335  20.641  1.00  0.00     0.148 C 
HETATM   11  C5  UNL     1      12.709  52.581  21.855  1.00  0.00     0.187 C 
HETATM   12  O1  UNL     1      13.730  51.646  21.836  1.00  0.00    -0.388 OA
HETATM   13  C6  UNL     1      13.252  50.341  21.949  1.00  0.00     0.187 C 
HETATM   14  C7  UNL     1      12.222  50.017  20.908  1.00  0.00     0.148 C 
ENDBRANCH   8   9
ENDBRANCH   7   8
ENDBRANCH   5   7
BRANCH   1  15
HETATM   15  N1  UNL     1      11.090  54.933  18.680  1.00  0.00    -0.343 N 
ATOM     16  H12 UNL     1      10.854  55.857  19.042  1.00  0.00     0.176 HD
ATOM     17  H11 UNL     1      11.939  54.449  18.970  1.00  0.00     0.176 HD
ENDBRANCH   1  15
TORSDOF 4
ENDMDL
