MODEL 1
REMARK VINA RESULT: -5.925730285      0.000      0.000
REMARK  5 active torsions:
REMARK  status: ('A' for Active; 'I' for Inactive)
REMARK    1  A    between atoms: N1_1  and  S1_4 
REMARK    2  A    between atoms: S1_4  and  N2_5 
REMARK    3  A    between atoms: S1_4  and  N3_9 
REMARK    4  A    between atoms: N3_9  and  C1_11 
REMARK    5  A    between atoms: C1_11  and  C2_12 
ROOT
HETATM    1  N3  UNL     1       9.945  51.930  20.240  1.00  0.00    -0.317 N 
ATOM      2  H3  UNL     1       9.902  52.910  20.520  1.00  0.00     0.172 HD
ENDROOT
BRANCH   1   3
HETATM    3  S1  UNL     1       8.740  51.138  19.297  1.00  0.00     0.186 S 
HETATM    4  O1  UNL     1       8.734  51.818  17.946  1.00  0.00    -0.207 OA
BRANCH   3   5
HETATM    5  N1  UNL     1       7.347  51.448  19.946  1.00  0.00    -0.329 N 
ATOM      6  H12 UNL     1       7.073  51.119  20.871  1.00  0.00     0.168 HD
ATOM      7  H11 UNL     1       6.765  52.012  19.329  1.00  0.00     0.168 HD
ENDBRANCH   3   5
BRANCH   3   8
HETATM    8  N2  UNL     1       9.015  49.459  19.180  1.00  0.00    -0.329 N 
ATOM      9  H22 UNL     1       9.300  48.880  19.970  1.00  0.00     0.168 HD
ATOM     10  H21 UNL     1       8.858  49.121  18.231  1.00  0.00     0.168 HD
ENDBRANCH   3   8
ENDBRANCH   1   3
BRANCH   1  11
HETATM   11  C1  UNL     1      11.036  51.022  20.587  1.00  0.00     0.179 C 
BRANCH  11  12
HETATM   12  C2  UNL     1      12.312  51.858  20.451  1.00  0.00     0.149 A 
HETATM   13  C3  UNL     1      12.796  52.488  21.676  1.00  0.00     0.167 A 
HETATM   14  S2  UNL     1      12.594  53.766  20.816  1.00  0.00     0.056 S 
HETATM   15  O2  UNL     1      13.274  55.130  20.899  1.00  0.00    -0.247 OA
HETATM   16  N4  UNL     1      12.170  53.057  19.776  1.00  0.00    -0.325 N 
ATOM     17  H4  UNL     1      11.857  53.303  18.836  1.00  0.00     0.171 HD
ENDBRANCH  11  12
ENDBRANCH   1  11
TORSDOF 5
ENDMDL
MODEL 2
REMARK VINA RESULT: -5.823191219      1.101      1.370
REMARK  5 active torsions:
REMARK  status: ('A' for Active; 'I' for Inactive)
REMARK    1  A    between atoms: N1_1  and  S1_4 
REMARK    2  A    between atoms: S1_4  and  N2_5 
REMARK    3  A    between atoms: S1_4  and  N3_9 
REMARK    4  A    between atoms: N3_9  and  C1_11 
REMARK    5  A    between atoms: C1_11  and  C2_12 
ROOT
HETATM    1  N3  UNL     1       9.997  51.850  20.324  1.00  0.00    -0.317 N 
ATOM      2  H3  UNL     1       9.950  52.799  20.696  1.00  0.00     0.172 HD
ENDROOT
BRANCH   1   3
HETATM    3  S1  UNL     1       8.791  51.143  19.317  1.00  0.00     0.186 S 
HETATM    4  O1  UNL     1       7.470  51.333  20.028  1.00  0.00    -0.207 OA
BRANCH   3   5
HETATM    5  N1  UNL     1       9.046  49.597  19.280  1.00  0.00    -0.329 N 
ATOM      6  H12 UNL     1       9.131  49.022  20.118  1.00  0.00     0.168 HD
ATOM      7  H11 UNL     1       9.115  49.253  18.323  1.00  0.00     0.168 HD
ENDBRANCH   3   5
BRANCH   3   8
HETATM    8  N2  UNL     1       8.789  51.812  17.749  1.00  0.00    -0.329 N 
ATOM      9  H22 UNL     1       7.940  51.964  17.204  1.00  0.00     0.168 HD
ATOM     10  H21 UNL     1       9.734  52.036  17.438  1.00  0.00     0.168 HD
ENDBRANCH   3   8
ENDBRANCH   1   3
BRANCH   1  11
HETATM   11  C1  UNL     1      11.093  50.919  20.580  1.00  0.00     0.179 C 
BRANCH  11  12
HETATM   12  C2  UNL     1      12.366  51.769  20.506  1.00  0.00     0.149 A 
HETATM   13  C3  UNL     1      12.742  52.463  21.734  1.00  0.00     0.167 A 
HETATM   14  S2  UNL     1      12.593  53.696  20.802  1.00  0.00     0.056 S 
HETATM   15  O2  UNL     1      13.246  55.074  20.874  1.00  0.00    -0.247 OA
HETATM   16  N4  UNL     1      12.262  52.933  19.766  1.00  0.00    -0.325 N 
ATOM     17  H4  UNL     1      12.023  53.131  18.794  1.00  0.00     0.171 HD
ENDBRANCH  11  12
ENDBRANCH   1  11
TORSDOF 5
ENDMDL
MODEL 3
REMARK VINA RESULT: -5.545867037      2.081      2.287
REMARK  5 active torsions:
REMARK  status: ('A' for Active; 'I' for Inactive)
REMARK    1  A    between atoms: N1_1  and  S1_4 
REMARK    2  A    between atoms: S1_4  and  N2_5 
REMARK    3  A    between atoms: S1_4  and  N3_9 
REMARK    4  A    between atoms: N3_9  and  C1_11 
REMARK    5  A    between atoms: C1_11  and  C2_12 
ROOT
HETATM    1  N3  UNL     1       8.951  52.018  19.873  1.00  0.00    -0.317 N 
ATOM      2  H3  UNL     1       8.351  52.563  20.494  1.00  0.00     0.172 HD
ENDROOT
BRANCH   1   3
HETATM    3  S1  UNL     1       8.497  50.519  19.157  1.00  0.00     0.186 S 
HETATM    4  O1  UNL     1       7.179  50.123  19.786  1.00  0.00    -0.207 OA
BRANCH   3   5
HETATM    5  N1  UNL     1       9.538  49.439  19.613  1.00  0.00    -0.329 N 
ATOM      6  H12 UNL     1       9.944  48.750  18.981  1.00  0.00     0.168 HD
ATOM      7  H11 UNL     1       9.748  49.519  20.607  1.00  0.00     0.168 HD
ENDBRANCH   3   5
BRANCH   3   8
HETATM    8  N2  UNL     1       8.404  50.619  17.458  1.00  0.00    -0.329 N 
ATOM      9  H22 UNL     1       9.033  50.118  16.831  1.00  0.00     0.168 HD
ATOM     10  H21 UNL     1       7.647  51.235  17.162  1.00  0.00     0.168 HD
ENDBRANCH   3   8
ENDBRANCH   1   3
BRANCH   1  11
HETATM   11  C1  UNL     1      10.302  52.412  19.481  1.00  0.00     0.179 C 
BRANCH  11  12
HETATM   12  C2  UNL     1      11.097  52.474  20.789  1.00  0.00     0.149 A 
HETATM   13  C3  UNL     1      12.403  53.121  20.712  1.00  0.00     0.167 A 
HETATM   14  S2  UNL     1      12.862  51.723  21.209  1.00  0.00     0.056 S 
HETATM   15  O2  UNL     1      14.099  51.314  22.003  1.00  0.00    -0.247 OA
HETATM   16  N4  UNL     1      11.613  51.269  21.230  1.00  0.00    -0.325 N 
ATOM     17  H4  UNL     1      11.195  50.372  21.478  1.00  0.00     0.171 HD
ENDBRANCH  11  12
ENDBRANCH   1  11
TORSDOF 5
ENDMDL
MODEL 4
REMARK VINA RESULT: -5.521212540      1.570      1.663
REMARK  5 active torsions:
REMARK  status: ('A' for Active; 'I' for Inactive)
REMARK    1  A    between atoms: N1_1  and  S1_4 
REMARK    2  A    between atoms: S1_4  and  N2_5 
REMARK    3  A    between atoms: S1_4  and  N3_9 
REMARK    4  A    between atoms: N3_9  and  C1_11 
REMARK    5  A    between atoms: C1_11  and  C2_12 
ROOT
HETATM    1  N3  UNL     1       9.600  52.072  20.286  1.00  0.00    -0.317 N 
ATOM      2  H3  UNL     1       9.530  52.095  21.304  1.00  0.00     0.172 HD
ENDROOT
BRANCH   1   3
HETATM    3  S1  UNL     1       8.588  51.120  19.267  1.00  0.00     0.186 S 
HETATM    4  O1  UNL     1       8.606  51.780  17.906  1.00  0.00    -0.207 OA
BRANCH   3   5
HETATM    5  N1  UNL     1       7.119  51.253  19.796  1.00  0.00    -0.329 N 
ATOM      6  H12 UNL     1       6.859  51.832  20.593  1.00  0.00     0.168 HD
ATOM      7  H11 UNL     1       6.472  50.691  19.244  1.00  0.00     0.168 HD
ENDBRANCH   3   5
BRANCH   3   8
HETATM    8  N2  UNL     1       9.086  49.491  19.207  1.00  0.00    -0.329 N 
ATOM      9  H22 UNL     1       9.394  48.967  20.026  1.00  0.00     0.168 HD
ATOM     10  H21 UNL     1       9.033  49.119  18.258  1.00  0.00     0.168 HD
ENDBRANCH   3   8
ENDBRANCH   1   3
BRANCH   1  11
HETATM   11  C1  UNL     1      10.571  52.840  19.511  1.00  0.00     0.179 C 
BRANCH  11  12
HETATM   12  C2  UNL     1      11.912  52.134  19.735  1.00  0.00     0.149 A 
HETATM   13  C3  UNL     1      11.893  51.009  20.665  1.00  0.00     0.167 A 
HETATM   14  S2  UNL     1      12.933  51.901  21.395  1.00  0.00     0.056 S 
HETATM   15  O2  UNL     1      14.064  51.522  22.347  1.00  0.00    -0.247 OA
HETATM   16  N4  UNL     1      12.846  52.846  20.465  1.00  0.00    -0.325 N 
ATOM     17  H4  UNL     1      13.296  53.753  20.339  1.00  0.00     0.171 HD
ENDBRANCH  11  12
ENDBRANCH   1  11
TORSDOF 5
ENDMDL
MODEL 5
REMARK VINA RESULT: -5.449832149      1.123      1.519
REMARK  5 active torsions:
REMARK  status: ('A' for Active; 'I' for Inactive)
REMARK    1  A    between atoms: N1_1  and  S1_4 
REMARK    2  A    between atoms: S1_4  and  N2_5 
REMARK    3  A    between atoms: S1_4  and  N3_9 
REMARK    4  A    between atoms: N3_9  and  C1_11 
REMARK    5  A    between atoms: C1_11  and  C2_12 
ROOT
HETATM    1  N3  UNL     1      10.168  51.743  19.464  1.00  0.00    -0.317 N 
ATOM      2  H3  UNL     1      10.458  52.520  18.870  1.00  0.00     0.172 HD
ENDROOT
BRANCH   1   3
HETATM    3  S1  UNL     1       8.701  50.863  19.260  1.00  0.00     0.186 S 
HETATM    4  O1  UNL     1       8.920  49.507  19.893  1.00  0.00    -0.207 OA
BRANCH   3   5
HETATM    5  N1  UNL     1       8.511  50.602  17.726  1.00  0.00    -0.329 N 
ATOM      6  H12 UNL     1       9.238  50.207  17.130  1.00  0.00     0.168 HD
ATOM      7  H11 UNL     1       7.580  50.874  17.414  1.00  0.00     0.168 HD
ENDBRANCH   3   5
BRANCH   3   8
HETATM    8  N2  UNL     1       7.361  51.683  19.924  1.00  0.00    -0.329 N 
ATOM      9  H22 UNL     1       7.338  52.692  20.073  1.00  0.00     0.168 HD
ATOM     10  H21 UNL     1       6.603  51.038  20.147  1.00  0.00     0.168 HD
ENDBRANCH   3   8
ENDBRANCH   1   3
BRANCH   1  11
HETATM   11  C1  UNL     1      10.944  51.236  20.593  1.00  0.00     0.179 C 
BRANCH  11  12
HETATM   12  C2  UNL     1      12.270  52.002  20.544  1.00  0.00     0.149 A 
HETATM   13  C3  UNL     1      12.655  52.690  21.772  1.00  0.00     0.167 A 
HETATM   14  S2  UNL     1      12.613  53.915  20.818  1.00  0.00     0.056 S 
HETATM   15  O2  UNL     1      13.352  55.248  20.888  1.00  0.00    -0.247 OA
HETATM   16  N4  UNL     1      12.263  53.157  19.784  1.00  0.00    -0.325 N 
ATOM     17  H4  UNL     1      12.065  53.353  18.803  1.00  0.00     0.171 HD
ENDBRANCH  11  12
ENDBRANCH   1  11
TORSDOF 5
ENDMDL
