MODEL 1
REMARK VINA RESULT: -6.385120909      0.000      0.000
REMARK  3 active torsions:
REMARK  status: ('A' for Active; 'I' for Inactive)
REMARK    1  A    between atoms: N1_9  and  C9_10 
REMARK    2  A    between atoms: C9_10  and  C10_11 
REMARK    3  A    between atoms: N2_12  and  O1_14 
ROOT
HETATM    1  C1  UNL     1      37.262  44.197  -1.200  1.00  0.00     0.012 C 
HETATM    2  C2  UNL     1      36.411  43.160  -1.835  1.00  0.00     0.015 C 
HETATM    3  C3  UNL     1      36.116  42.020  -0.906  1.00  0.00     0.008 C 
HETATM    4  C4  UNL     1      35.119  41.121  -1.607  1.00  0.00     0.036 C 
HETATM    5  C5  UNL     1      35.659  40.781  -2.974  1.00  0.00     0.224 C 
HETATM    6  C6  UNL     1      37.089  40.250  -2.823  1.00  0.00     0.038 C 
HETATM    7  C7  UNL     1      37.911  41.484  -2.966  1.00  0.00     0.038 C 
HETATM    8  C8  UNL     1      36.952  42.629  -3.127  1.00  0.00     0.227 C 
HETATM    9  N1  UNL     1      35.849  41.979  -3.803  1.00  0.00     0.102 N 
ENDROOT
BRANCH   9  10
HETATM   10  C9  UNL     1      36.159  41.509  -5.124  1.00  0.00     0.320 C 
BRANCH  10  11
HETATM   11  C10 UNL     1      35.025  40.936  -5.865  1.00  0.00     0.116 C 
HETATM   12  N2  UNL     1      34.599  41.244  -7.028  1.00  0.00    -0.283 N 
ATOM     13  H2  UNL     1      33.790  40.740  -7.392  1.00  0.00     0.192 HD
BRANCH  12  14
HETATM   14  O1  UNL     1      35.163  42.210  -7.812  1.00  0.00    -0.291 OA
ATOM     15  H1  UNL     1      35.130  42.204  -8.761  1.00  0.00     0.244 HD
ENDBRANCH  12  14
ENDBRANCH  10  11
ENDBRANCH   9  10
TORSDOF 3
ENDMDL
MODEL 2
REMARK VINA RESULT: -5.993357855      1.169      1.568
REMARK  3 active torsions:
REMARK  status: ('A' for Active; 'I' for Inactive)
REMARK    1  A    between atoms: N1_9  and  C9_10 
REMARK    2  A    between atoms: C9_10  and  C10_11 
REMARK    3  A    between atoms: N2_12  and  O1_14 
ROOT
HETATM    1  C1  UNL     1      36.172  41.879  -0.296  1.00  0.00     0.012 C 
HETATM    2  C2  UNL     1      35.830  41.039  -1.471  1.00  0.00     0.015 C 
HETATM    3  C3  UNL     1      36.295  39.622  -1.311  1.00  0.00     0.008 C 
HETATM    4  C4  UNL     1      35.749  38.839  -2.487  1.00  0.00     0.036 C 
HETATM    5  C5  UNL     1      36.131  39.556  -3.758  1.00  0.00     0.224 C 
HETATM    6  C6  UNL     1      37.640  39.824  -3.741  1.00  0.00     0.038 C 
HETATM    7  C7  UNL     1      37.722  41.178  -3.126  1.00  0.00     0.038 C 
HETATM    8  C8  UNL     1      36.319  41.584  -2.778  1.00  0.00     0.227 C 
HETATM    9  N1  UNL     1      35.567  40.911  -3.816  1.00  0.00     0.102 N 
ENDROOT
BRANCH   9  10
HETATM   10  C9  UNL     1      35.823  41.397  -5.142  1.00  0.00     0.320 C 
BRANCH  10  11
HETATM   11  C10 UNL     1      35.157  40.651  -6.221  1.00  0.00     0.116 C 
HETATM   12  N2  UNL     1      34.897  41.035  -7.410  1.00  0.00    -0.283 N 
ATOM     13  H2  UNL     1      34.423  40.382  -8.033  1.00  0.00     0.192 HD
BRANCH  12  14
HETATM   14  O1  UNL     1      35.217  42.271  -7.895  1.00  0.00    -0.291 OA
ATOM     15  H1  UNL     1      35.346  42.459  -8.818  1.00  0.00     0.244 HD
ENDBRANCH  12  14
ENDBRANCH  10  11
ENDBRANCH   9  10
TORSDOF 3
ENDMDL
MODEL 3
REMARK VINA RESULT: -5.828785357      1.522      2.029
REMARK  3 active torsions:
REMARK  status: ('A' for Active; 'I' for Inactive)
REMARK    1  A    between atoms: N1_9  and  C9_10 
REMARK    2  A    between atoms: C9_10  and  C10_11 
REMARK    3  A    between atoms: N2_12  and  O1_14 
ROOT
HETATM    1  C1  UNL     1      35.585  41.826  -0.801  1.00  0.00     0.012 C 
HETATM    2  C2  UNL     1      35.586  40.688  -1.754  1.00  0.00     0.015 C 
HETATM    3  C3  UNL     1      36.416  39.538  -1.265  1.00  0.00     0.008 C 
HETATM    4  C4  UNL     1      36.206  38.393  -2.234  1.00  0.00     0.036 C 
HETATM    5  C5  UNL     1      36.470  38.895  -3.632  1.00  0.00     0.224 C 
HETATM    6  C6  UNL     1      37.837  39.588  -3.658  1.00  0.00     0.038 C 
HETATM    7  C7  UNL     1      37.488  41.007  -3.372  1.00  0.00     0.038 C 
HETATM    8  C8  UNL     1      36.004  41.052  -3.146  1.00  0.00     0.227 C 
HETATM    9  N1  UNL     1      35.555  39.981  -4.009  1.00  0.00     0.102 N 
ENDROOT
BRANCH   9  10
HETATM   10  C9  UNL     1      35.769  40.219  -5.408  1.00  0.00     0.320 C 
BRANCH  10  11
HETATM   11  C10 UNL     1      34.579  40.652  -6.157  1.00  0.00     0.116 C 
HETATM   12  N2  UNL     1      34.122  41.835  -6.308  1.00  0.00    -0.283 N 
ATOM     13  H2  UNL     1      33.275  41.956  -6.864  1.00  0.00     0.192 HD
BRANCH  12  14
HETATM   14  O1  UNL     1      34.702  42.947  -5.768  1.00  0.00    -0.291 OA
ATOM     15  H1  UNL     1      35.635  43.032  -5.609  1.00  0.00     0.244 HD
ENDBRANCH  12  14
ENDBRANCH  10  11
ENDBRANCH   9  10
TORSDOF 3
ENDMDL
MODEL 4
REMARK VINA RESULT: -5.635753406      1.010      1.010
REMARK  3 active torsions:
REMARK  status: ('A' for Active; 'I' for Inactive)
REMARK    1  A    between atoms: N1_9  and  C9_10 
REMARK    2  A    between atoms: C9_10  and  C10_11 
REMARK    3  A    between atoms: N2_12  and  O1_14 
ROOT
HETATM    1  C1  UNL     1      37.391  44.029  -0.983  1.00  0.00     0.012 C 
HETATM    2  C2  UNL     1      36.471  43.085  -1.668  1.00  0.00     0.015 C 
HETATM    3  C3  UNL     1      36.166  41.881  -0.829  1.00  0.00     0.008 C 
HETATM    4  C4  UNL     1      35.104  41.086  -1.561  1.00  0.00     0.036 C 
HETATM    5  C5  UNL     1      35.574  40.847  -2.974  1.00  0.00     0.224 C 
HETATM    6  C6  UNL     1      36.986  40.250  -2.932  1.00  0.00     0.038 C 
HETATM    7  C7  UNL     1      37.853  41.459  -3.004  1.00  0.00     0.038 C 
HETATM    8  C8  UNL     1      36.937  42.650  -3.024  1.00  0.00     0.227 C 
HETATM    9  N1  UNL     1      35.783  42.105  -3.704  1.00  0.00     0.102 N 
ENDROOT
BRANCH   9  10
HETATM   10  C9  UNL     1      36.020  41.741  -5.073  1.00  0.00     0.320 C 
BRANCH  10  11
HETATM   11  C10 UNL     1      34.810  41.483  -5.869  1.00  0.00     0.116 C 
HETATM   12  N2  UNL     1      34.417  40.382  -6.384  1.00  0.00    -0.283 N 
ATOM     13  H2  UNL     1      33.545  40.383  -6.912  1.00  0.00     0.192 HD
BRANCH  12  14
HETATM   14  O1  UNL     1      35.099  39.204  -6.268  1.00  0.00    -0.291 OA
ATOM     15  H1  UNL     1      35.275  38.622  -6.998  1.00  0.00     0.244 HD
ENDBRANCH  12  14
ENDBRANCH  10  11
ENDBRANCH   9  10
TORSDOF 3
ENDMDL
MODEL 5
REMARK VINA RESULT: -5.343529145      2.848      4.429
REMARK  3 active torsions:
REMARK  status: ('A' for Active; 'I' for Inactive)
REMARK    1  A    between atoms: N1_9  and  C9_10 
REMARK    2  A    between atoms: C9_10  and  C10_11 
REMARK    3  A    between atoms: N2_12  and  O1_14 
ROOT
HETATM    1  C1  UNL     1      39.515  38.195  -4.078  1.00  0.00     0.012 C 
HETATM    2  C2  UNL     1      38.565  38.759  -3.086  1.00  0.00     0.015 C 
HETATM    3  C3  UNL     1      37.670  37.709  -2.497  1.00  0.00     0.008 C 
HETATM    4  C4  UNL     1      36.870  38.373  -1.396  1.00  0.00     0.036 C 
HETATM    5  C5  UNL     1      36.213  39.608  -1.959  1.00  0.00     0.224 C 
HETATM    6  C6  UNL     1      35.457  39.228  -3.237  1.00  0.00     0.038 C 
HETATM    7  C7  UNL     1      36.474  39.462  -4.300  1.00  0.00     0.038 C 
HETATM    8  C8  UNL     1      37.735  39.892  -3.606  1.00  0.00     0.227 C 
HETATM    9  N1  UNL     1      37.200  40.580  -2.451  1.00  0.00     0.102 N 
ENDROOT
BRANCH   9  10
HETATM   10  C9  UNL     1      36.468  41.775  -2.760  1.00  0.00     0.320 C 
BRANCH  10  11
HETATM   11  C10 UNL     1      36.159  42.635  -1.607  1.00  0.00     0.116 C 
HETATM   12  N2  UNL     1      36.714  43.731  -1.262  1.00  0.00    -0.283 N 
ATOM     13  H2  UNL     1      36.372  44.201  -0.424  1.00  0.00     0.192 HD
BRANCH  12  14
HETATM   14  O1  UNL     1      37.740  44.313  -1.952  1.00  0.00    -0.291 OA
ATOM     15  H1  UNL     1      37.966  45.233  -1.886  1.00  0.00     0.244 HD
ENDBRANCH  12  14
ENDBRANCH  10  11
ENDBRANCH   9  10
TORSDOF 3
ENDMDL
