MODEL 1
REMARK VINA RESULT: -5.558537988      0.000      0.000
REMARK  2 active torsions:
REMARK  status: ('A' for Active; 'I' for Inactive)
REMARK    1  A    between atoms: C4_4  and  N1_5 
REMARK    2  A    between atoms: N1_5  and  N2_6 
ROOT
HETATM    1  C1  UNL     1      36.410  42.733  -0.919  1.00  0.00     0.000 C 
HETATM    2  C2  UNL     1      36.809  43.346  -2.231  1.00  0.00     0.002 C 
HETATM    3  C3  UNL     1      37.348  42.208  -3.103  1.00  0.00     0.022 C 
HETATM    4  C4  UNL     1      36.149  41.416  -3.530  1.00  0.00     0.093 C 
HETATM    5  C8  UNL     1      35.438  40.897  -2.336  1.00  0.00     0.022 C 
HETATM    6  C9  UNL     1      36.055  41.282  -1.022  1.00  0.00     0.002 C 
ENDROOT
BRANCH   4   7
HETATM    7  N1  UNL     1      36.506  40.412  -4.502  1.00  0.00    -0.159 NA
BRANCH   7   8
HETATM    8  N2  UNL     1      35.929  40.636  -5.753  1.00  0.00    -0.224 NA
HETATM    9  C5  UNL     1      35.008  41.728  -5.612  1.00  0.00     0.120 C 
HETATM   10  C6  UNL     1      34.299  41.895  -6.950  1.00  0.00     0.091 C 
HETATM   11  S1  UNL     1      33.952  40.122  -7.294  1.00  0.00    -0.152 SA
HETATM   12  C7  UNL     1      35.179  39.454  -6.098  1.00  0.00     0.183 C 
ENDBRANCH   7   8
ENDBRANCH   4   7
TORSDOF 2
ENDMDL
MODEL 2
REMARK VINA RESULT: -5.312973551      0.614      1.379
REMARK  2 active torsions:
REMARK  status: ('A' for Active; 'I' for Inactive)
REMARK    1  A    between atoms: C4_4  and  N1_5 
REMARK    2  A    between atoms: N1_5  and  N2_6 
ROOT
HETATM    1  C1  UNL     1      36.531  42.572  -0.765  1.00  0.00     0.000 C 
HETATM    2  C2  UNL     1      36.842  43.424  -1.961  1.00  0.00     0.002 C 
HETATM    3  C3  UNL     1      37.342  42.477  -3.058  1.00  0.00     0.022 C 
HETATM    4  C4  UNL     1      36.129  41.749  -3.554  1.00  0.00     0.093 C 
HETATM    5  C8  UNL     1      35.498  41.004  -2.438  1.00  0.00     0.022 C 
HETATM    6  C9  UNL     1      36.188  41.156  -1.113  1.00  0.00     0.002 C 
ENDROOT
BRANCH   4   7
HETATM    7  N1  UNL     1      36.440  40.949  -4.713  1.00  0.00    -0.159 NA
BRANCH   7   8
HETATM    8  N2  UNL     1      35.303  40.475  -5.369  1.00  0.00    -0.224 NA
HETATM    9  C5  UNL     1      35.563  39.116  -5.752  1.00  0.00     0.120 C 
HETATM   10  C6  UNL     1      34.366  38.640  -6.565  1.00  0.00     0.091 C 
HETATM   11  S1  UNL     1      34.157  40.125  -7.629  1.00  0.00    -0.152 SA
HETATM   12  C7  UNL     1      35.141  41.259  -6.569  1.00  0.00     0.183 C 
ENDBRANCH   7   8
ENDBRANCH   4   7
TORSDOF 2
ENDMDL
MODEL 3
REMARK VINA RESULT: -5.147997792      2.305      2.577
REMARK  2 active torsions:
REMARK  status: ('A' for Active; 'I' for Inactive)
REMARK    1  A    between atoms: C4_4  and  N1_5 
REMARK    2  A    between atoms: N1_5  and  N2_6 
ROOT
HETATM    1  C1  UNL     1      36.868  43.251  -1.209  1.00  0.00     0.000 C 
HETATM    2  C2  UNL     1      36.920  42.942  -2.677  1.00  0.00     0.002 C 
HETATM    3  C3  UNL     1      36.977  41.416  -2.804  1.00  0.00     0.022 C 
HETATM    4  C4  UNL     1      35.598  40.926  -2.474  1.00  0.00     0.093 C 
HETATM    5  C8  UNL     1      35.232  41.345  -1.100  1.00  0.00     0.022 C 
HETATM    6  C9  UNL     1      36.283  42.145  -0.385  1.00  0.00     0.002 C 
ENDROOT
BRANCH   4   7
HETATM    7  N1  UNL     1      35.473  39.512  -2.726  1.00  0.00    -0.159 NA
BRANCH   7   8
HETATM    8  N2  UNL     1      36.065  39.119  -3.928  1.00  0.00    -0.224 NA
HETATM    9  C5  UNL     1      35.028  38.575  -4.759  1.00  0.00     0.120 C 
HETATM   10  C6  UNL     1      35.694  38.044  -6.021  1.00  0.00     0.091 C 
HETATM   11  S1  UNL     1      37.118  37.187  -5.234  1.00  0.00    -0.152 SA
HETATM   12  C7  UNL     1      36.998  38.063  -3.622  1.00  0.00     0.183 C 
ENDBRANCH   7   8
ENDBRANCH   4   7
TORSDOF 2
ENDMDL
MODEL 4
REMARK VINA RESULT: -5.137303570      2.048      2.762
REMARK  2 active torsions:
REMARK  status: ('A' for Active; 'I' for Inactive)
REMARK    1  A    between atoms: C4_4  and  N1_5 
REMARK    2  A    between atoms: N1_5  and  N2_6 
ROOT
HETATM    1  C1  UNL     1      36.611  42.824  -0.614  1.00  0.00     0.000 C 
HETATM    2  C2  UNL     1      36.194  41.383  -0.675  1.00  0.00     0.002 C 
HETATM    3  C3  UNL     1      35.379  41.215  -1.962  1.00  0.00     0.022 C 
HETATM    4  C4  UNL     1      36.373  41.255  -3.084  1.00  0.00     0.093 C 
HETATM    5  C8  UNL     1      37.100  42.548  -3.065  1.00  0.00     0.022 C 
HETATM    6  C9  UNL     1      36.696  43.479  -1.958  1.00  0.00     0.002 C 
ENDROOT
BRANCH   4   7
HETATM    7  N1  UNL     1      35.750  40.933  -4.344  1.00  0.00    -0.159 NA
BRANCH   7   8
HETATM    8  N2  UNL     1      36.371  39.871  -5.003  1.00  0.00    -0.224 NA
HETATM    9  C5  UNL     1      35.357  38.900  -5.303  1.00  0.00     0.120 C 
HETATM   10  C6  UNL     1      36.055  37.695  -5.920  1.00  0.00     0.091 C 
HETATM   11  S1  UNL     1      37.467  37.573  -4.749  1.00  0.00    -0.152 SA
HETATM   12  C7  UNL     1      37.305  39.278  -4.079  1.00  0.00     0.183 C 
ENDBRANCH   7   8
ENDBRANCH   4   7
TORSDOF 2
ENDMDL
MODEL 5
REMARK VINA RESULT: -5.087169250      0.885      1.999
REMARK  2 active torsions:
REMARK  status: ('A' for Active; 'I' for Inactive)
REMARK    1  A    between atoms: C4_4  and  N1_5 
REMARK    2  A    between atoms: N1_5  and  N2_6 
ROOT
HETATM    1  C1  UNL     1      35.965  41.807  -0.612  1.00  0.00     0.000 C 
HETATM    2  C2  UNL     1      35.880  40.350  -0.962  1.00  0.00     0.002 C 
HETATM    3  C3  UNL     1      35.630  40.274  -2.472  1.00  0.00     0.022 C 
HETATM    4  C4  UNL     1      36.934  40.630  -3.121  1.00  0.00     0.093 C 
HETATM    5  C8  UNL     1      37.346  41.992  -2.705  1.00  0.00     0.022 C 
HETATM    6  C9  UNL     1      36.403  42.671  -1.755  1.00  0.00     0.002 C 
ENDROOT
BRANCH   4   7
HETATM    7  N1  UNL     1      36.879  40.426  -4.547  1.00  0.00    -0.159 NA
BRANCH   7   8
HETATM    8  N2  UNL     1      35.579  40.470  -5.054  1.00  0.00    -0.224 NA
HETATM    9  C5  UNL     1      35.444  39.383  -5.983  1.00  0.00     0.120 C 
HETATM   10  C6  UNL     1      34.065  39.502  -6.618  1.00  0.00     0.091 C 
HETATM   11  S1  UNL     1      34.073  41.311  -6.944  1.00  0.00    -0.152 SA
HETATM   12  C7  UNL     1      35.444  41.706  -5.784  1.00  0.00     0.183 C 
ENDBRANCH   7   8
ENDBRANCH   4   7
TORSDOF 2
ENDMDL
