MODEL 1
REMARK VINA RESULT: -5.706710266      0.000      0.000
REMARK  2 active torsions:
REMARK  status: ('A' for Active; 'I' for Inactive)
REMARK    1  A    between atoms: C6_9  and  C7_10 
REMARK    2  A    between atoms: C7_10  and  N2_11 
ROOT
HETATM    1  N1  UNL     1      35.525  39.371  -2.537  1.00  0.00    -0.405 N 
ATOM      2  H11 UNL     1      35.683  38.798  -3.366  1.00  0.00     0.155 HD
ATOM      3  H12 UNL     1      35.324  38.855  -1.680  1.00  0.00     0.155 HD
HETATM    4  C1  UNL     1      35.559  40.633  -2.520  1.00  0.00    -0.015 C 
HETATM    5  C2  UNL     1      35.330  41.466  -1.315  1.00  0.00     0.052 C 
HETATM    6  C3  UNL     1      36.391  42.530  -1.157  1.00  0.00     0.006 C 
HETATM    7  C4  UNL     1      36.839  43.163  -2.433  1.00  0.00     0.001 C 
HETATM    8  C5  UNL     1      37.161  42.123  -3.482  1.00  0.00     0.012 C 
HETATM    9  C6  UNL     1      35.854  41.391  -3.780  1.00  0.00     0.059 C 
ENDROOT
BRANCH   9  10
HETATM   10  C7  UNL     1      35.970  40.499  -4.959  1.00  0.00     0.283 C 
BRANCH  10  11
HETATM   11  N2  UNL     1      34.770  40.576  -5.755  1.00  0.00     0.093 N 
HETATM   12  C8  UNL     1      34.815  41.695  -6.689  1.00  0.00     0.298 C 
HETATM   13  C9  UNL     1      33.865  41.364  -7.820  1.00  0.00     0.198 C 
HETATM   14  O1  UNL     1      34.518  40.436  -8.635  1.00  0.00    -0.388 OA
HETATM   15  C10 UNL     1      34.971  39.376  -7.902  1.00  0.00     0.198 C 
HETATM   16  C11 UNL     1      34.504  39.343  -6.471  1.00  0.00     0.298 C 
ENDBRANCH  10  11
ENDBRANCH   9  10
TORSDOF 2
ENDMDL
MODEL 2
REMARK VINA RESULT: -5.695013222      2.864      3.870
REMARK  2 active torsions:
REMARK  status: ('A' for Active; 'I' for Inactive)
REMARK    1  A    between atoms: C6_9  and  C7_10 
REMARK    2  A    between atoms: C7_10  and  N2_11 
ROOT
HETATM    1  N1  UNL     1      35.576  41.922  -4.364  1.00  0.00    -0.405 N 
ATOM      2  H11 UNL     1      35.063  41.151  -4.791  1.00  0.00     0.155 HD
ATOM      3  H12 UNL     1      35.617  42.779  -4.915  1.00  0.00     0.155 HD
HETATM    4  C1  UNL     1      36.142  41.869  -3.236  1.00  0.00    -0.015 C 
HETATM    5  C2  UNL     1      36.888  42.990  -2.615  1.00  0.00     0.052 C 
HETATM    6  C3  UNL     1      36.482  43.206  -1.175  1.00  0.00     0.006 C 
HETATM    7  C4  UNL     1      36.226  41.954  -0.402  1.00  0.00     0.001 C 
HETATM    8  C5  UNL     1      35.322  41.011  -1.162  1.00  0.00     0.012 C 
HETATM    9  C6  UNL     1      36.080  40.610  -2.426  1.00  0.00     0.059 C 
ENDROOT
BRANCH   9  10
HETATM   10  C7  UNL     1      35.410  39.505  -3.153  1.00  0.00     0.283 C 
BRANCH  10  11
HETATM   11  N2  UNL     1      36.319  38.398  -3.315  1.00  0.00     0.093 N 
HETATM   12  C8  UNL     1      36.497  38.048  -4.719  1.00  0.00     0.298 C 
HETATM   13  C9  UNL     1      37.830  37.341  -4.831  1.00  0.00     0.198 C 
HETATM   14  O1  UNL     1      38.816  38.329  -4.776  1.00  0.00    -0.388 OA
HETATM   15  C10 UNL     1      38.649  39.124  -3.678  1.00  0.00     0.198 C 
HETATM   16  C11 UNL     1      37.608  38.651  -2.699  1.00  0.00     0.298 C 
ENDBRANCH  10  11
ENDBRANCH   9  10
TORSDOF 2
ENDMDL
MODEL 3
REMARK VINA RESULT: -5.580310901      3.187      7.001
REMARK  2 active torsions:
REMARK  status: ('A' for Active; 'I' for Inactive)
REMARK    1  A    between atoms: C6_9  and  C7_10 
REMARK    2  A    between atoms: C7_10  and  N2_11 
ROOT
HETATM    1  N1  UNL     1      31.621  40.102  -9.979  1.00  0.00    -0.405 N 
ATOM      2  H11 UNL     1      31.519  40.082  -8.965  1.00  0.00     0.155 HD
ATOM      3  H12 UNL     1      31.085  39.399 -10.488  1.00  0.00     0.155 HD
HETATM    4  C1  UNL     1      32.351  40.917 -10.610  1.00  0.00    -0.015 C 
HETATM    5  C2  UNL     1      32.500  40.946 -12.085  1.00  0.00     0.052 C 
HETATM    6  C3  UNL     1      32.355  42.346 -12.637  1.00  0.00     0.006 C 
HETATM    7  C4  UNL     1      32.971  43.418 -11.798  1.00  0.00     0.001 C 
HETATM    8  C5  UNL     1      32.568  43.282 -10.347  1.00  0.00     0.012 C 
HETATM    9  C6  UNL     1      33.139  41.951  -9.863  1.00  0.00     0.059 C 
ENDROOT
BRANCH   9  10
HETATM   10  C7  UNL     1      33.021  41.794  -8.393  1.00  0.00     0.283 C 
BRANCH  10  11
HETATM   11  N2  UNL     1      34.327  41.616  -7.810  1.00  0.00     0.093 N 
HETATM   12  C8  UNL     1      34.356  42.039  -6.414  1.00  0.00     0.298 C 
HETATM   13  C9  UNL     1      35.503  41.304  -5.754  1.00  0.00     0.198 C 
HETATM   14  O1  UNL     1      35.065  39.997  -5.527  1.00  0.00    -0.388 OA
HETATM   15  C10 UNL     1      34.575  39.440  -6.673  1.00  0.00     0.198 C 
HETATM   16  C11 UNL     1      34.799  40.249  -7.923  1.00  0.00     0.298 C 
ENDBRANCH  10  11
ENDBRANCH   9  10
TORSDOF 2
ENDMDL
MODEL 4
REMARK VINA RESULT: -5.476365436      3.231      4.626
REMARK  2 active torsions:
REMARK  status: ('A' for Active; 'I' for Inactive)
REMARK    1  A    between atoms: C6_9  and  C7_10 
REMARK    2  A    between atoms: C7_10  and  N2_11 
ROOT
HETATM    1  N1  UNL     1      36.366  37.347  -1.561  1.00  0.00    -0.405 N 
ATOM      2  H11 UNL     1      35.406  37.610  -1.783  1.00  0.00     0.155 HD
ATOM      3  H12 UNL     1      36.467  36.560  -0.920  1.00  0.00     0.155 HD
HETATM    4  C1  UNL     1      37.392  37.924  -2.018  1.00  0.00    -0.015 C 
HETATM    5  C2  UNL     1      38.788  37.541  -1.696  1.00  0.00     0.052 C 
HETATM    6  C3  UNL     1      39.642  37.434  -2.938  1.00  0.00     0.006 C 
HETATM    7  C4  UNL     1      39.368  38.470  -3.979  1.00  0.00     0.001 C 
HETATM    8  C5  UNL     1      37.888  38.594  -4.258  1.00  0.00     0.012 C 
HETATM    9  C6  UNL     1      37.243  39.080  -2.961  1.00  0.00     0.059 C 
ENDROOT
BRANCH   9  10
HETATM   10  C7  UNL     1      35.824  39.470  -3.154  1.00  0.00     0.283 C 
BRANCH  10  11
HETATM   11  N2  UNL     1      35.671  40.889  -2.950  1.00  0.00     0.093 N 
HETATM   12  C8  UNL     1      36.605  41.392  -1.949  1.00  0.00     0.298 C 
HETATM   13  C9  UNL     1      36.787  42.870  -2.220  1.00  0.00     0.198 C 
HETATM   14  O1  UNL     1      37.643  42.975  -3.318  1.00  0.00    -0.388 OA
HETATM   15  C10 UNL     1      37.189  42.224  -4.365  1.00  0.00     0.198 C 
HETATM   16  C11 UNL     1      35.814  41.640  -4.182  1.00  0.00     0.298 C 
ENDBRANCH  10  11
ENDBRANCH   9  10
TORSDOF 2
ENDMDL
MODEL 5
REMARK VINA RESULT: -5.386661595      3.325      4.422
REMARK  2 active torsions:
REMARK  status: ('A' for Active; 'I' for Inactive)
REMARK    1  A    between atoms: C6_9  and  C7_10 
REMARK    2  A    between atoms: C7_10  and  N2_11 
ROOT
HETATM    1  N1  UNL     1      35.741  42.147  -4.487  1.00  0.00    -0.405 N 
ATOM      2  H11 UNL     1      35.486  41.372  -5.099  1.00  0.00     0.155 HD
ATOM      3  H12 UNL     1      35.554  43.078  -4.857  1.00  0.00     0.155 HD
HETATM    4  C1  UNL     1      36.260  42.015  -3.343  1.00  0.00    -0.015 C 
HETATM    5  C2  UNL     1      36.632  43.141  -2.452  1.00  0.00     0.052 C 
HETATM    6  C3  UNL     1      36.133  42.929  -1.041  1.00  0.00     0.006 C 
HETATM    7  C4  UNL     1      36.220  41.521  -0.550  1.00  0.00     0.001 C 
HETATM    8  C5  UNL     1      35.651  40.549  -1.557  1.00  0.00     0.012 C 
HETATM    9  C6  UNL     1      36.535  40.645  -2.798  1.00  0.00     0.059 C 
ENDROOT
BRANCH   9  10
HETATM   10  C7  UNL     1      36.235  39.577  -3.783  1.00  0.00     0.283 C 
BRANCH  10  11
HETATM   11  N2  UNL     1      37.451  38.909  -4.172  1.00  0.00     0.093 N 
HETATM   12  C8  UNL     1      38.616  39.483  -3.509  1.00  0.00     0.298 C 
HETATM   13  C9  UNL     1      39.688  38.415  -3.496  1.00  0.00     0.198 C 
HETATM   14  O1  UNL     1      39.345  37.513  -2.485  1.00  0.00    -0.388 OA
HETATM   15  C10 UNL     1      38.060  37.074  -2.638  1.00  0.00     0.198 C 
HETATM   16  C11 UNL     1      37.396  37.480  -3.926  1.00  0.00     0.298 C 
ENDBRANCH  10  11
ENDBRANCH   9  10
TORSDOF 2
ENDMDL
