MODEL 1
REMARK VINA RESULT: -5.354753771      0.000      0.000
REMARK  3 active torsions:
REMARK  status: ('A' for Active; 'I' for Inactive)
REMARK    1  A    between atoms: O1_1  and  C1_3 
REMARK    2  A    between atoms: C1_3  and  C2_4 
REMARK    3  A    between atoms: C2_4  and  C3_5 
ROOT
HETATM    1  C1  UNL     1      32.888  41.815  -9.131  1.00  0.00     0.080 C 
HETATM    2  C6  UNL     1      33.439  40.449  -9.327  1.00  0.00     0.042 C 
HETATM    3  C7  UNL     1      33.935  39.802  -8.052  1.00  0.00     0.029 C 
HETATM    4  C8  UNL     1      34.889  40.712  -7.303  1.00  0.00     0.167 C 
HETATM    5  O2  UNL     1      34.695  42.046  -7.658  1.00  0.00    -0.388 OA
HETATM    6  C9  UNL     1      33.343  42.283  -7.734  1.00  0.00     0.205 C 
ENDROOT
BRANCH   1   7
HETATM    7  O1  UNL     1      31.490  41.804  -9.035  1.00  0.00    -0.388 OA
ATOM      8  H1  UNL     1      31.155  41.025  -8.606  1.00  0.00     0.210 HD
ENDBRANCH   1   7
BRANCH   1   9
HETATM    9  C2  UNL     1      33.392  42.818 -10.101  1.00  0.00     0.055 C 
BRANCH   9  10
HETATM   10  C3  UNL     1      32.448  43.374 -11.082  1.00  0.00     0.051 C 
HETATM   11  C4  UNL     1      32.830  44.483 -11.985  1.00  0.00     0.025 C 
HETATM   12  C5  UNL     1      31.562  44.131 -12.790  1.00  0.00     0.075 C 
HETATM   13  S1  UNL     1      32.072  42.383 -12.548  1.00  0.00    -0.164 SA
ENDBRANCH   9  10
ENDBRANCH   1   9
TORSDOF 3
ENDMDL
MODEL 2
REMARK VINA RESULT: -5.169330548      7.876      9.515
REMARK  3 active torsions:
REMARK  status: ('A' for Active; 'I' for Inactive)
REMARK    1  A    between atoms: O1_1  and  C1_3 
REMARK    2  A    between atoms: C1_3  and  C2_4 
REMARK    3  A    between atoms: C2_4  and  C3_5 
ROOT
HETATM    1  C1  UNL     1      36.087  41.221  -2.443  1.00  0.00     0.080 C 
HETATM    2  C6  UNL     1      36.518  41.610  -1.075  1.00  0.00     0.042 C 
HETATM    3  C7  UNL     1      36.588  43.107  -0.860  1.00  0.00     0.029 C 
HETATM    4  C8  UNL     1      37.407  43.784  -1.941  1.00  0.00     0.167 C 
HETATM    5  O2  UNL     1      37.460  43.004  -3.096  1.00  0.00    -0.388 OA
HETATM    6  C9  UNL     1      36.209  42.480  -3.324  1.00  0.00     0.205 C 
ENDROOT
BRANCH   1   7
HETATM    7  O1  UNL     1      34.720  40.916  -2.492  1.00  0.00    -0.388 OA
ATOM      8  H1  UNL     1      34.231  41.297  -1.773  1.00  0.00     0.210 HD
ENDBRANCH   1   7
BRANCH   1   9
HETATM    9  C2  UNL     1      36.935  40.178  -3.072  1.00  0.00     0.055 C 
BRANCH   9  10
HETATM   10  C3  UNL     1      37.504  39.131  -2.211  1.00  0.00     0.051 C 
HETATM   11  C4  UNL     1      36.668  38.041  -1.657  1.00  0.00     0.025 C 
HETATM   12  C5  UNL     1      37.995  37.331  -1.318  1.00  0.00     0.075 C 
HETATM   13  S1  UNL     1      38.537  37.867  -2.989  1.00  0.00    -0.164 SA
ENDBRANCH   9  10
ENDBRANCH   1   9
TORSDOF 3
ENDMDL
MODEL 3
REMARK VINA RESULT: -5.060953553      7.859      9.018
REMARK  3 active torsions:
REMARK  status: ('A' for Active; 'I' for Inactive)
REMARK    1  A    between atoms: O1_1  and  C1_3 
REMARK    2  A    between atoms: C1_3  and  C2_4 
REMARK    3  A    between atoms: C2_4  and  C3_5 
ROOT
HETATM    1  C1  UNL     1      36.053  41.223  -2.097  1.00  0.00     0.080 C 
HETATM    2  C6  UNL     1      36.005  42.089  -0.890  1.00  0.00     0.042 C 
HETATM    3  C7  UNL     1      36.272  43.551  -1.176  1.00  0.00     0.029 C 
HETATM    4  C8  UNL     1      37.548  43.735  -1.973  1.00  0.00     0.167 C 
HETATM    5  O2  UNL     1      37.881  42.572  -2.668  1.00  0.00    -0.388 OA
HETATM    6  C9  UNL     1      36.732  42.046  -3.209  1.00  0.00     0.205 C 
ENDROOT
BRANCH   1   7
HETATM    7  O1  UNL     1      34.772  40.972  -2.609  1.00  0.00    -0.388 OA
ATOM      8  H1  UNL     1      34.362  41.746  -2.973  1.00  0.00     0.210 HD
ENDBRANCH   1   7
BRANCH   1   9
HETATM    9  C2  UNL     1      36.859  39.989  -1.927  1.00  0.00     0.055 C 
BRANCH   9  10
HETATM   10  C3  UNL     1      37.548  39.441  -3.104  1.00  0.00     0.051 C 
HETATM   11  C4  UNL     1      38.634  38.442  -2.973  1.00  0.00     0.025 C 
HETATM   12  C5  UNL     1      38.452  38.194  -4.485  1.00  0.00     0.075 C 
HETATM   13  S1  UNL     1      36.652  38.249  -4.127  1.00  0.00    -0.164 SA
ENDBRANCH   9  10
ENDBRANCH   1   9
TORSDOF 3
ENDMDL
MODEL 4
REMARK VINA RESULT: -5.048301754      7.867      8.865
REMARK  3 active torsions:
REMARK  status: ('A' for Active; 'I' for Inactive)
REMARK    1  A    between atoms: O1_1  and  C1_3 
REMARK    2  A    between atoms: C1_3  and  C2_4 
REMARK    3  A    between atoms: C2_4  and  C3_5 
ROOT
HETATM    1  C1  UNL     1      36.378  41.392  -2.920  1.00  0.00     0.080 C 
HETATM    2  C6  UNL     1      36.230  40.933  -1.514  1.00  0.00     0.042 C 
HETATM    3  C7  UNL     1      36.111  42.061  -0.513  1.00  0.00     0.029 C 
HETATM    4  C8  UNL     1      37.230  43.070  -0.679  1.00  0.00     0.167 C 
HETATM    5  O2  UNL     1      37.770  43.016  -1.964  1.00  0.00    -0.388 OA
HETATM    6  C9  UNL     1      36.738  42.890  -2.864  1.00  0.00     0.205 C 
ENDROOT
BRANCH   1   7
HETATM    7  O1  UNL     1      35.156  41.373  -3.606  1.00  0.00    -0.388 OA
ATOM      8  H1  UNL     1      35.262  41.397  -4.549  1.00  0.00     0.210 HD
ENDBRANCH   1   7
BRANCH   1   9
HETATM    9  C2  UNL     1      37.470  40.719  -3.666  1.00  0.00     0.055 C 
BRANCH   9  10
HETATM   10  C3  UNL     1      37.584  39.256  -3.565  1.00  0.00     0.051 C 
HETATM   11  C4  UNL     1      37.076  38.362  -4.631  1.00  0.00     0.025 C 
HETATM   12  C5  UNL     1      37.900  37.249  -3.951  1.00  0.00     0.075 C 
HETATM   13  S1  UNL     1      39.219  38.519  -3.802  1.00  0.00    -0.164 SA
ENDBRANCH   9  10
ENDBRANCH   1   9
TORSDOF 3
ENDMDL
MODEL 5
REMARK VINA RESULT: -5.033031237      6.850      8.244
REMARK  3 active torsions:
REMARK  status: ('A' for Active; 'I' for Inactive)
REMARK    1  A    between atoms: O1_1  and  C1_3 
REMARK    2  A    between atoms: C1_3  and  C2_4 
REMARK    3  A    between atoms: C2_4  and  C3_5 
ROOT
HETATM    1  C1  UNL     1      36.062  41.225  -2.421  1.00  0.00     0.080 C 
HETATM    2  C6  UNL     1      36.519  41.604  -1.060  1.00  0.00     0.042 C 
HETATM    3  C7  UNL     1      36.610  43.099  -0.840  1.00  0.00     0.029 C 
HETATM    4  C8  UNL     1      37.419  43.771  -1.933  1.00  0.00     0.167 C 
HETATM    5  O2  UNL     1      37.443  42.994  -3.091  1.00  0.00    -0.388 OA
HETATM    6  C9  UNL     1      36.183  42.486  -3.300  1.00  0.00     0.205 C 
ENDROOT
BRANCH   1   7
HETATM    7  O1  UNL     1      34.690  40.936  -2.449  1.00  0.00    -0.388 OA
ATOM      8  H1  UNL     1      34.283  41.156  -3.278  1.00  0.00     0.210 HD
ENDBRANCH   1   7
BRANCH   1   9
HETATM    9  C2  UNL     1      36.886  40.174  -3.068  1.00  0.00     0.055 C 
BRANCH   9  10
HETATM   10  C3  UNL     1      36.202  39.143  -3.863  1.00  0.00     0.051 C 
HETATM   11  C4  UNL     1      35.749  39.405  -5.248  1.00  0.00     0.025 C 
HETATM   12  C5  UNL     1      35.581  37.877  -5.376  1.00  0.00     0.075 C 
HETATM   13  S1  UNL     1      37.195  37.775  -4.505  1.00  0.00    -0.164 SA
ENDBRANCH   9  10
ENDBRANCH   1   9
TORSDOF 3
ENDMDL
