MODEL 1
REMARK VINA RESULT: -6.184345359      0.000      0.000
REMARK  3 active torsions:
REMARK  status: ('A' for Active; 'I' for Inactive)
REMARK    1  A    between atoms: C2_3  and  C3_4 
REMARK    2  A    between atoms: C3_4  and  C4_5 
REMARK    3  A    between atoms: C4_5  and  O1_6 
ROOT
HETATM    1  N1  UNL     1      37.711  44.673  -1.578  1.00  0.00    -0.197 NA
HETATM    2  C1  UNL     1      37.061  43.714  -1.578  1.00  0.00     0.059 C 
HETATM    3  C2  UNL     1      36.238  42.501  -1.601  1.00  0.00     0.127 C 
ENDROOT
BRANCH   3   4
HETATM    4  C3  UNL     1      36.977  41.479  -2.424  1.00  0.00     0.054 C 
BRANCH   4   5
HETATM    5  C4  UNL     1      36.097  40.829  -3.472  1.00  0.00     0.080 C 
HETATM    6  C5  UNL     1      36.844  39.643  -4.016  1.00  0.00     0.040 C 
HETATM    7  C6  UNL     1      35.951  38.484  -4.364  1.00  0.00     0.003 C 
HETATM    8  C7  UNL     1      35.689  38.366  -5.847  1.00  0.00     0.000 C 
HETATM    9  C8  UNL     1      34.427  39.087  -6.269  1.00  0.00     0.002 C 
HETATM   10  C9  UNL     1      34.792  40.112  -7.336  1.00  0.00     0.026 C 
HETATM   11  C10 UNL     1      34.959  41.437  -6.597  1.00  0.00     0.167 C 
HETATM   12  O2  UNL     1      36.107  41.303  -5.818  1.00  0.00    -0.388 OA
HETATM   13  C11 UNL     1      35.862  41.870  -4.559  1.00  0.00     0.205 C 
BRANCH   5  14
HETATM   14  O1  UNL     1      34.913  40.467  -2.834  1.00  0.00    -0.388 OA
ATOM     15  H1  UNL     1      34.216  40.957  -3.254  1.00  0.00     0.210 HD
ENDBRANCH   5  14
ENDBRANCH   4   5
ENDBRANCH   3   4
TORSDOF 3
ENDMDL
MODEL 2
REMARK VINA RESULT: -5.995602017      2.586      3.486
REMARK  3 active torsions:
REMARK  status: ('A' for Active; 'I' for Inactive)
REMARK    1  A    between atoms: C2_3  and  C3_4 
REMARK    2  A    between atoms: C3_4  and  C4_5 
REMARK    3  A    between atoms: C4_5  and  O1_6 
ROOT
HETATM    1  N1  UNL     1      37.587  44.149  -1.950  1.00  0.00    -0.197 NA
HETATM    2  C1  UNL     1      36.899  43.301  -1.565  1.00  0.00     0.059 C 
HETATM    3  C2  UNL     1      36.010  42.237  -1.088  1.00  0.00     0.127 C 
ENDROOT
BRANCH   3   4
HETATM    4  C3  UNL     1      35.446  41.552  -2.305  1.00  0.00     0.054 C 
BRANCH   4   5
HETATM    5  C4  UNL     1      36.055  40.184  -2.539  1.00  0.00     0.080 C 
HETATM    6  C5  UNL     1      36.592  39.698  -1.223  1.00  0.00     0.040 C 
HETATM    7  C6  UNL     1      36.455  38.212  -1.034  1.00  0.00     0.003 C 
HETATM    8  C7  UNL     1      37.748  37.467  -1.267  1.00  0.00     0.000 C 
HETATM    9  C8  UNL     1      37.884  36.979  -2.693  1.00  0.00     0.002 C 
HETATM   10  C9  UNL     1      39.167  37.556  -3.279  1.00  0.00     0.026 C 
HETATM   11  C10 UNL     1      38.746  38.804  -4.050  1.00  0.00     0.167 C 
HETATM   12  O2  UNL     1      38.339  39.730  -3.092  1.00  0.00    -0.388 OA
HETATM   13  C11 UNL     1      37.178  40.369  -3.551  1.00  0.00     0.205 C 
BRANCH   5  14
HETATM   14  O1  UNL     1      35.038  39.372  -3.034  1.00  0.00    -0.388 OA
ATOM     15  H1  UNL     1      34.591  39.004  -2.281  1.00  0.00     0.210 HD
ENDBRANCH   5  14
ENDBRANCH   4   5
ENDBRANCH   3   4
TORSDOF 3
ENDMDL
MODEL 3
REMARK VINA RESULT: -5.991648679      1.992      3.789
REMARK  3 active torsions:
REMARK  status: ('A' for Active; 'I' for Inactive)
REMARK    1  A    between atoms: C2_3  and  C3_4 
REMARK    2  A    between atoms: C3_4  and  C4_5 
REMARK    3  A    between atoms: C4_5  and  O1_6 
ROOT
HETATM    1  N1  UNL     1      37.439  43.006  -2.921  1.00  0.00    -0.197 NA
HETATM    2  C1  UNL     1      36.824  42.235  -3.528  1.00  0.00     0.059 C 
HETATM    3  C2  UNL     1      36.025  41.268  -4.288  1.00  0.00     0.127 C 
ENDROOT
BRANCH   3   4
HETATM    4  C3  UNL     1      35.145  42.057  -5.221  1.00  0.00     0.054 C 
BRANCH   4   5
HETATM    5  C4  UNL     1      34.883  41.333  -6.526  1.00  0.00     0.080 C 
HETATM    6  C5  UNL     1      33.566  41.822  -7.057  1.00  0.00     0.040 C 
HETATM    7  C6  UNL     1      33.523  41.911  -8.559  1.00  0.00     0.003 C 
HETATM    8  C7  UNL     1      32.783  40.759  -9.197  1.00  0.00     0.000 C 
HETATM    9  C8  UNL     1      33.707  39.624  -9.582  1.00  0.00     0.002 C 
HETATM   10  C9  UNL     1      33.230  38.357  -8.882  1.00  0.00     0.026 C 
HETATM   11  C10 UNL     1      34.078  38.237  -7.619  1.00  0.00     0.167 C 
HETATM   12  O2  UNL     1      33.680  39.280  -6.787  1.00  0.00    -0.388 OA
HETATM   13  C11 UNL     1      34.822  39.846  -6.201  1.00  0.00     0.205 C 
BRANCH   5  14
HETATM   14  O1  UNL     1      35.946  41.635  -7.373  1.00  0.00    -0.388 OA
ATOM     15  H1  UNL     1      35.570  41.844  -8.221  1.00  0.00     0.210 HD
ENDBRANCH   5  14
ENDBRANCH   4   5
ENDBRANCH   3   4
TORSDOF 3
ENDMDL
MODEL 4
REMARK VINA RESULT: -5.735079979      6.325      7.864
REMARK  3 active torsions:
REMARK  status: ('A' for Active; 'I' for Inactive)
REMARK    1  A    between atoms: C2_3  and  C3_4 
REMARK    2  A    between atoms: C3_4  and  C4_5 
REMARK    3  A    between atoms: C4_5  and  O1_6 
ROOT
HETATM    1  N1  UNL     1      33.241  45.776 -12.415  1.00  0.00    -0.197 NA
HETATM    2  C1  UNL     1      33.055  44.646 -12.236  1.00  0.00     0.059 C 
HETATM    3  C2  UNL     1      32.841  43.215 -12.003  1.00  0.00     0.127 C 
ENDROOT
BRANCH   3   4
HETATM    4  C3  UNL     1      33.131  42.955 -10.548  1.00  0.00     0.054 C 
BRANCH   4   5
HETATM    5  C4  UNL     1      32.463  41.695 -10.036  1.00  0.00     0.080 C 
HETATM    6  C5  UNL     1      33.543  40.798  -9.498  1.00  0.00     0.040 C 
HETATM    7  C6  UNL     1      33.114  40.002  -8.296  1.00  0.00     0.003 C 
HETATM    8  C7  UNL     1      32.783  38.566  -8.629  1.00  0.00     0.000 C 
HETATM    9  C8  UNL     1      31.311  38.367  -8.921  1.00  0.00     0.002 C 
HETATM   10  C9  UNL     1      31.174  37.770 -10.317  1.00  0.00     0.026 C 
HETATM   11  C10 UNL     1      30.906  38.950 -11.248  1.00  0.00     0.167 C 
HETATM   12  O2  UNL     1      32.087  39.688 -11.285  1.00  0.00    -0.388 OA
HETATM   13  C11 UNL     1      31.764  41.052 -11.227  1.00  0.00     0.205 C 
BRANCH   5  14
HETATM   14  O1  UNL     1      31.559  42.090  -9.054  1.00  0.00    -0.388 OA
ATOM     15  H1  UNL     1      31.328  42.992  -9.242  1.00  0.00     0.210 HD
ENDBRANCH   5  14
ENDBRANCH   4   5
ENDBRANCH   3   4
TORSDOF 3
ENDMDL
MODEL 5
REMARK VINA RESULT: -5.489925047      2.529      4.866
REMARK  3 active torsions:
REMARK  status: ('A' for Active; 'I' for Inactive)
REMARK    1  A    between atoms: C2_3  and  C3_4 
REMARK    2  A    between atoms: C3_4  and  C4_5 
REMARK    3  A    between atoms: C4_5  and  O1_6 
ROOT
HETATM    1  N1  UNL     1      35.218  40.756  -7.464  1.00  0.00    -0.197 NA
HETATM    2  C1  UNL     1      35.229  40.115  -6.499  1.00  0.00     0.059 C 
HETATM    3  C2  UNL     1      35.259  39.290  -5.287  1.00  0.00     0.127 C 
ENDROOT
BRANCH   3   4
HETATM    4  C3  UNL     1      36.675  39.307  -4.775  1.00  0.00     0.054 C 
BRANCH   4   5
HETATM    5  C4  UNL     1      36.824  40.111  -3.500  1.00  0.00     0.080 C 
HETATM    6  C5  UNL     1      35.475  40.167  -2.841  1.00  0.00     0.040 C 
HETATM    7  C6  UNL     1      35.542  40.140  -1.339  1.00  0.00     0.003 C 
HETATM    8  C7  UNL     1      35.346  41.503  -0.716  1.00  0.00     0.000 C 
HETATM    9  C8  UNL     1      36.657  42.218  -0.470  1.00  0.00     0.002 C 
HETATM   10  C9  UNL     1      36.622  43.552  -1.206  1.00  0.00     0.026 C 
HETATM   11  C10 UNL     1      37.333  43.311  -2.536  1.00  0.00     0.167 C 
HETATM   12  O2  UNL     1      36.499  42.471  -3.272  1.00  0.00    -0.388 OA
HETATM   13  C11 UNL     1      37.289  41.503  -3.908  1.00  0.00     0.205 C 
BRANCH   5  14
HETATM   14  O1  UNL     1      37.772  39.454  -2.719  1.00  0.00    -0.388 OA
ATOM     15  H1  UNL     1      38.383  39.043  -3.320  1.00  0.00     0.210 HD
ENDBRANCH   5  14
ENDBRANCH   4   5
ENDBRANCH   3   4
TORSDOF 3
ENDMDL
