MODEL 1
REMARK VINA RESULT: -7.265056069      0.000      0.000
REMARK  12 active torsions:
REMARK  status: ('A' for Active; 'I' for Inactive)
REMARK    1  A    between atoms: C4_6  and  N2_7 
REMARK    2  A    between atoms: N2_7  and  C5_9 
REMARK    3  A    between atoms: C5_9  and  C6_10 
REMARK    4  A    between atoms: C6_10  and  O1_11 
REMARK    5  A    between atoms: O1_11  and  C7_12 
REMARK    6  A    between atoms: C7_12  and  C8_13 
REMARK    7  A    between atoms: C8_13  and  N3_14 
REMARK    8  A    between atoms: N3_14  and  C9_16 
REMARK    9  A    between atoms: C9_16  and  C10_17 
REMARK   10  A    between atoms: C10_17  and  C11_18 
REMARK   11  A    between atoms: C11_18  and  N4_19 
REMARK   12  A    between atoms: C12_25  and  N6_26 
REMARK       I    between atoms: N6_26  and  C13_28 
ROOT
HETATM    1  C1  UNL     1      27.797  40.732  12.527  1.00  0.00     0.054 C 
HETATM    2  C2  UNL     1      26.963  41.580  13.432  1.00  0.00    -0.001 A 
HETATM    3  C3  UNL     1      26.355  42.693  12.935  1.00  0.00     0.116 A 
HETATM    4  N1  UNL     1      25.599  43.447  13.784  1.00  0.00    -0.201 N 
ATOM      5  H1  UNL     1      25.138  44.283  13.425  1.00  0.00     0.183 HD
HETATM    6  C4  UNL     1      25.444  43.122  15.072  1.00  0.00     0.679 A 
HETATM    7  N5  UNL     1      26.059  42.017  15.530  1.00  0.00    -0.176 N 
ATOM      8  H5  UNL     1      25.940  41.769  16.513  1.00  0.00     0.186 HD
HETATM    9  C12 UNL     1      26.819  41.223  14.759  1.00  0.00     0.130 A 
ENDROOT
BRANCH   6  10
HETATM   10  N2  UNL     1      24.723  43.873  15.820  1.00  0.00    -0.224 N 
ATOM     11  H2  UNL     1      24.816  44.883  15.713  1.00  0.00     0.177 HD
BRANCH  10  12
HETATM   12  C5  UNL     1      23.791  43.388  16.799  1.00  0.00     0.164 C 
BRANCH  12  13
HETATM   13  C6  UNL     1      22.498  44.136  16.807  1.00  0.00     0.188 C 
BRANCH  13  14
HETATM   14  O1  UNL     1      21.631  43.818  17.814  1.00  0.00    -0.385 OA
BRANCH  14  15
HETATM   15  C7  UNL     1      21.265  44.842  18.641  1.00  0.00     0.212 C 
BRANCH  15  16
HETATM   16  C8  UNL     1      19.859  44.698  19.157  1.00  0.00     0.086 C 
BRANCH  16  17
HETATM   17  N3  UNL     1      18.855  44.552  18.198  1.00  0.00    -0.380 N 
ATOM     18  H3  UNL     1      18.725  45.294  17.509  1.00  0.00     0.164 HD
BRANCH  17  19
HETATM   19  C9  UNL     1      18.025  43.436  18.142  1.00  0.00     0.062 C 
BRANCH  19  20
HETATM   20  C10 UNL     1      18.378  42.401  17.100  1.00  0.00     0.072 C 
BRANCH  20  21
HETATM   21  C11 UNL     1      18.709  41.065  17.722  1.00  0.00     0.234 C 
BRANCH  21  22
HETATM   22  N4  UNL     1      19.950  41.169  18.469  1.00  0.00    -0.079 N 
ATOM     23  H43 UNL     1      19.813  41.602  19.383  1.00  0.00     0.274 HD
ATOM     24  H42 UNL     1      20.284  40.259  18.787  1.00  0.00     0.274 HD
ATOM     25  H41 UNL     1      20.646  41.661  17.910  1.00  0.00     0.274 HD
ENDBRANCH  21  22
ENDBRANCH  20  21
ENDBRANCH  19  20
ENDBRANCH  17  19
ENDBRANCH  16  17
ENDBRANCH  15  16
ENDBRANCH  14  15
ENDBRANCH  13  14
ENDBRANCH  12  13
ENDBRANCH  10  12
ENDBRANCH   6  10
BRANCH   9  26
HETATM   26  N6  UNL     1      27.412  40.175  15.156  1.00  0.00    -0.316 N 
HETATM   27  C13 UNL     1      26.884  39.078  15.816  1.00  0.00     0.187 C 
HETATM   28  N7  UNL     1      26.342  38.121  15.172  1.00  0.00    -0.373 N 
HETATM   29  N8  UNL     1      26.943  39.007  17.225  1.00  0.00    -0.064 NA
ATOM     30  H72 UNL     1      26.299  38.173  14.154  1.00  0.00     0.158 HD
ATOM     31  H71 UNL     1      25.953  37.314  15.658  1.00  0.00     0.158 HD
ATOM     32  H6  UNL     1      28.413  40.134  14.963  1.00  0.00     0.170 HD
ENDBRANCH   9  26
TORSDOF 12
ENDMDL
MODEL 2
REMARK VINA RESULT: -7.182518337      1.516      2.135
REMARK  12 active torsions:
REMARK  status: ('A' for Active; 'I' for Inactive)
REMARK    1  A    between atoms: C4_6  and  N2_7 
REMARK    2  A    between atoms: N2_7  and  C5_9 
REMARK    3  A    between atoms: C5_9  and  C6_10 
REMARK    4  A    between atoms: C6_10  and  O1_11 
REMARK    5  A    between atoms: O1_11  and  C7_12 
REMARK    6  A    between atoms: C7_12  and  C8_13 
REMARK    7  A    between atoms: C8_13  and  N3_14 
REMARK    8  A    between atoms: N3_14  and  C9_16 
REMARK    9  A    between atoms: C9_16  and  C10_17 
REMARK   10  A    between atoms: C10_17  and  C11_18 
REMARK   11  A    between atoms: C11_18  and  N4_19 
REMARK   12  A    between atoms: C12_25  and  N6_26 
REMARK       I    between atoms: N6_26  and  C13_28 
ROOT
HETATM    1  C1  UNL     1      26.407  43.102  12.715  1.00  0.00     0.054 C 
HETATM    2  C2  UNL     1      25.604  43.226  13.969  1.00  0.00    -0.001 A 
HETATM    3  C3  UNL     1      24.545  44.081  14.004  1.00  0.00     0.116 A 
HETATM    4  N1  UNL     1      23.830  44.172  15.162  1.00  0.00    -0.201 N 
ATOM      5  H1  UNL     1      23.033  44.809  15.202  1.00  0.00     0.183 HD
HETATM    6  C4  UNL     1      24.140  43.452  16.245  1.00  0.00     0.679 A 
HETATM    7  N5  UNL     1      25.192  42.617  16.176  1.00  0.00    -0.176 N 
ATOM      8  H5  UNL     1      25.429  42.067  17.002  1.00  0.00     0.186 HD
HETATM    9  C12 UNL     1      25.946  42.471  15.075  1.00  0.00     0.130 A 
ENDROOT
BRANCH   6  10
HETATM   10  N2  UNL     1      23.430  43.585  17.304  1.00  0.00    -0.224 N 
ATOM     11  H2  UNL     1      22.939  42.762  17.654  1.00  0.00     0.177 HD
BRANCH  10  12
HETATM   12  C5  UNL     1      23.279  44.814  18.032  1.00  0.00     0.164 C 
BRANCH  12  13
HETATM   13  C6  UNL     1      21.854  45.180  18.285  1.00  0.00     0.188 C 
BRANCH  13  14
HETATM   14  O1  UNL     1      21.193  44.411  19.201  1.00  0.00    -0.385 OA
BRANCH  14  15
HETATM   15  C7  UNL     1      19.924  44.034  18.868  1.00  0.00     0.212 C 
BRANCH  15  16
HETATM   16  C8  UNL     1      19.889  43.049  17.730  1.00  0.00     0.086 C 
BRANCH  16  17
HETATM   17  N3  UNL     1      19.766  41.702  18.075  1.00  0.00    -0.380 N 
ATOM     18  H3  UNL     1      20.615  41.152  18.208  1.00  0.00     0.164 HD
BRANCH  17  19
HETATM   19  C9  UNL     1      18.533  41.079  18.244  1.00  0.00     0.062 C 
BRANCH  19  20
HETATM   20  C10 UNL     1      17.468  41.433  17.233  1.00  0.00     0.072 C 
BRANCH  20  21
HETATM   21  C11 UNL     1      16.305  42.155  17.870  1.00  0.00     0.234 C 
BRANCH  21  22
HETATM   22  N4  UNL     1      16.670  42.585  19.207  1.00  0.00    -0.079 N 
ATOM     23  H43 UNL     1      15.855  42.843  19.765  1.00  0.00     0.274 HD
ATOM     24  H42 UNL     1      17.002  41.811  19.783  1.00  0.00     0.274 HD
ATOM     25  H41 UNL     1      17.351  43.342  19.150  1.00  0.00     0.274 HD
ENDBRANCH  21  22
ENDBRANCH  20  21
ENDBRANCH  19  20
ENDBRANCH  17  19
ENDBRANCH  16  17
ENDBRANCH  15  16
ENDBRANCH  14  15
ENDBRANCH  13  14
ENDBRANCH  12  13
ENDBRANCH  10  12
ENDBRANCH   6  10
BRANCH   9  26
HETATM   26  N6  UNL     1      26.943  41.693  14.974  1.00  0.00    -0.316 N 
HETATM   27  C13 UNL     1      26.963  40.309  14.941  1.00  0.00     0.187 C 
HETATM   28  N7  UNL     1      26.786  39.675  13.850  1.00  0.00    -0.373 N 
HETATM   29  N8  UNL     1      27.185  39.579  16.128  1.00  0.00    -0.064 NA
ATOM     30  H72 UNL     1      26.626  40.202  12.992  1.00  0.00     0.158 HD
ATOM     31  H71 UNL     1      26.801  38.655  13.826  1.00  0.00     0.158 HD
ATOM     32  H6  UNL     1      27.853  42.150  14.908  1.00  0.00     0.170 HD
ENDBRANCH   9  26
TORSDOF 12
ENDMDL
MODEL 3
REMARK VINA RESULT: -7.123768633      2.174      3.845
REMARK  12 active torsions:
REMARK  status: ('A' for Active; 'I' for Inactive)
REMARK    1  A    between atoms: C4_6  and  N2_7 
REMARK    2  A    between atoms: N2_7  and  C5_9 
REMARK    3  A    between atoms: C5_9  and  C6_10 
REMARK    4  A    between atoms: C6_10  and  O1_11 
REMARK    5  A    between atoms: O1_11  and  C7_12 
REMARK    6  A    between atoms: C7_12  and  C8_13 
REMARK    7  A    between atoms: C8_13  and  N3_14 
REMARK    8  A    between atoms: N3_14  and  C9_16 
REMARK    9  A    between atoms: C9_16  and  C10_17 
REMARK   10  A    between atoms: C10_17  and  C11_18 
REMARK   11  A    between atoms: C11_18  and  N4_19 
REMARK   12  A    between atoms: C12_25  and  N6_26 
REMARK       I    between atoms: N6_26  and  C13_28 
ROOT
HETATM    1  C1  UNL     1      23.828  45.092  12.615  1.00  0.00     0.054 C 
HETATM    2  C2  UNL     1      23.378  44.793  14.008  1.00  0.00    -0.001 A 
HETATM    3  C3  UNL     1      22.206  45.318  14.461  1.00  0.00     0.116 A 
HETATM    4  N1  UNL     1      21.820  45.027  15.736  1.00  0.00    -0.201 N 
ATOM      5  H1  UNL     1      20.944  45.413  16.089  1.00  0.00     0.183 HD
HETATM    6  C4  UNL     1      22.555  44.250  16.538  1.00  0.00     0.679 A 
HETATM    7  N5  UNL     1      23.707  43.747  16.060  1.00  0.00    -0.176 N 
ATOM      8  H5  UNL     1      24.268  43.154  16.672  1.00  0.00     0.186 HD
HETATM    9  C12 UNL     1      24.156  43.987  14.817  1.00  0.00     0.130 A 
ENDROOT
BRANCH   6  10
HETATM   10  N2  UNL     1      22.139  44.014  17.728  1.00  0.00    -0.224 N 
ATOM     11  H2  UNL     1      22.150  43.048  18.054  1.00  0.00     0.177 HD
BRANCH  10  12
HETATM   12  C5  UNL     1      21.659  45.021  18.634  1.00  0.00     0.164 C 
BRANCH  12  13
HETATM   13  C6  UNL     1      20.253  44.789  19.083  1.00  0.00     0.188 C 
BRANCH  13  14
HETATM   14  O1  UNL     1      19.963  43.523  19.507  1.00  0.00    -0.385 OA
BRANCH  14  15
HETATM   15  C7  UNL     1      18.882  42.925  18.925  1.00  0.00     0.212 C 
BRANCH  15  16
HETATM   16  C8  UNL     1      19.198  41.558  18.378  1.00  0.00     0.086 C 
BRANCH  16  17
HETATM   17  N3  UNL     1      18.743  41.283  17.088  1.00  0.00    -0.380 N 
ATOM     18  H3  UNL     1      19.101  40.456  16.609  1.00  0.00     0.164 HD
BRANCH  17  19
HETATM   19  C9  UNL     1      17.820  42.090  16.428  1.00  0.00     0.062 C 
BRANCH  19  20
HETATM   20  C10 UNL     1      16.783  41.367  15.601  1.00  0.00     0.072 C 
BRANCH  20  21
HETATM   21  C11 UNL     1      15.448  41.300  16.304  1.00  0.00     0.234 C 
BRANCH  21  22
HETATM   22  N4  UNL     1      15.470  42.159  17.475  1.00  0.00    -0.079 N 
ATOM     23  H43 UNL     1      14.885  41.798  18.228  1.00  0.00     0.274 HD
ATOM     24  H42 UNL     1      16.367  42.128  17.958  1.00  0.00     0.274 HD
ATOM     25  H41 UNL     1      15.210  43.109  17.208  1.00  0.00     0.274 HD
ENDBRANCH  21  22
ENDBRANCH  20  21
ENDBRANCH  19  20
ENDBRANCH  17  19
ENDBRANCH  16  17
ENDBRANCH  15  16
ENDBRANCH  14  15
ENDBRANCH  13  14
ENDBRANCH  12  13
ENDBRANCH  10  12
ENDBRANCH   6  10
BRANCH   9  26
HETATM   26  N6  UNL     1      25.235  43.530  14.333  1.00  0.00    -0.316 N 
HETATM   27  C13 UNL     1      26.278  42.897  14.986  1.00  0.00     0.187 C 
HETATM   28  N7  UNL     1      26.247  41.644  15.216  1.00  0.00    -0.373 N 
HETATM   29  N8  UNL     1      27.402  43.641  15.408  1.00  0.00    -0.064 NA
ATOM     30  H72 UNL     1      25.435  41.107  14.912  1.00  0.00     0.158 HD
ATOM     31  H71 UNL     1      27.015  41.177  15.697  1.00  0.00     0.158 HD
ATOM     32  H6  UNL     1      25.350  43.646  13.326  1.00  0.00     0.170 HD
ENDBRANCH   9  26
TORSDOF 12
ENDMDL
MODEL 4
REMARK VINA RESULT: -7.074807126      2.315      7.279
REMARK  12 active torsions:
REMARK  status: ('A' for Active; 'I' for Inactive)
REMARK    1  A    between atoms: C4_6  and  N2_7 
REMARK    2  A    between atoms: N2_7  and  C5_9 
REMARK    3  A    between atoms: C5_9  and  C6_10 
REMARK    4  A    between atoms: C6_10  and  O1_11 
REMARK    5  A    between atoms: O1_11  and  C7_12 
REMARK    6  A    between atoms: C7_12  and  C8_13 
REMARK    7  A    between atoms: C8_13  and  N3_14 
REMARK    8  A    between atoms: N3_14  and  C9_16 
REMARK    9  A    between atoms: C9_16  and  C10_17 
REMARK   10  A    between atoms: C10_17  and  C11_18 
REMARK   11  A    between atoms: C11_18  and  N4_19 
REMARK   12  A    between atoms: C12_25  and  N6_26 
REMARK       I    between atoms: N6_26  and  C13_28 
ROOT
HETATM    1  C1  UNL     1      21.232  46.186  18.768  1.00  0.00     0.054 C 
HETATM    2  C2  UNL     1      22.251  45.273  18.166  1.00  0.00    -0.001 A 
HETATM    3  C3  UNL     1      23.570  45.603  18.236  1.00  0.00     0.116 A 
HETATM    4  N1  UNL     1      24.477  44.751  17.680  1.00  0.00    -0.201 N 
ATOM      5  H1  UNL     1      25.469  44.985  17.725  1.00  0.00     0.183 HD
HETATM    6  C4  UNL     1      24.106  43.616  17.077  1.00  0.00     0.679 A 
HETATM    7  N5  UNL     1      22.794  43.320  17.026  1.00  0.00    -0.176 N 
ATOM      8  H5  UNL     1      22.511  42.454  16.567  1.00  0.00     0.186 HD
HETATM    9  C12 UNL     1      21.841  44.107  17.549  1.00  0.00     0.130 A 
ENDROOT
BRANCH   6  10
HETATM   10  N2  UNL     1      25.007  42.857  16.571  1.00  0.00    -0.224 N 
ATOM     11  H2  UNL     1      25.424  42.147  17.173  1.00  0.00     0.177 HD
BRANCH  10  12
HETATM   12  C5  UNL     1      25.467  42.938  15.213  1.00  0.00     0.164 C 
BRANCH  12  13
HETATM   13  C6  UNL     1      26.935  43.193  15.101  1.00  0.00     0.188 C 
BRANCH  13  14
HETATM   14  O1  UNL     1      27.737  42.087  15.138  1.00  0.00    -0.385 OA
BRANCH  14  15
HETATM   15  C7  UNL     1      27.421  41.084  14.268  1.00  0.00     0.212 C 
BRANCH  15  16
HETATM   16  C8  UNL     1      27.453  39.724  14.913  1.00  0.00     0.086 C 
BRANCH  16  17
HETATM   17  N3  UNL     1      26.708  39.571  16.083  1.00  0.00    -0.380 N 
ATOM     18  H3  UNL     1      26.633  40.363  16.722  1.00  0.00     0.164 HD
BRANCH  17  19
HETATM   19  C9  UNL     1      26.061  38.383  16.413  1.00  0.00     0.062 C 
BRANCH  19  20
HETATM   20  C10 UNL     1      24.922  38.502  17.398  1.00  0.00     0.072 C 
BRANCH  20  21
HETATM   21  C11 UNL     1      23.965  37.339  17.296  1.00  0.00     0.234 C 
BRANCH  21  22
HETATM   22  N4  UNL     1      24.648  36.193  16.723  1.00  0.00    -0.079 N 
ATOM     23  H43 UNL     1      24.189  35.314  16.958  1.00  0.00     0.274 HD
ATOM     24  H42 UNL     1      24.540  36.149  15.710  1.00  0.00     0.274 HD
ATOM     25  H41 UNL     1      25.629  36.203  17.005  1.00  0.00     0.274 HD
ENDBRANCH  21  22
ENDBRANCH  20  21
ENDBRANCH  19  20
ENDBRANCH  17  19
ENDBRANCH  16  17
ENDBRANCH  15  16
ENDBRANCH  14  15
ENDBRANCH  13  14
ENDBRANCH  12  13
ENDBRANCH  10  12
ENDBRANCH   6  10
BRANCH   9  26
HETATM   26  N6  UNL     1      20.597  43.860  17.520  1.00  0.00    -0.316 N 
HETATM   27  C13 UNL     1      19.879  42.937  18.262  1.00  0.00     0.187 C 
HETATM   28  N7  UNL     1      19.453  43.219  19.429  1.00  0.00    -0.373 N 
HETATM   29  N8  UNL     1      19.608  41.660  17.725  1.00  0.00    -0.064 NA
ATOM     30  H72 UNL     1      19.649  44.142  19.816  1.00  0.00     0.158 HD
ATOM     31  H71 UNL     1      18.924  42.539  19.975  1.00  0.00     0.158 HD
ATOM     32  H6  UNL     1      20.052  44.417  16.861  1.00  0.00     0.170 HD
ENDBRANCH   9  26
TORSDOF 12
ENDMDL
MODEL 5
REMARK VINA RESULT: -6.983546725      1.323      1.657
REMARK  12 active torsions:
REMARK  status: ('A' for Active; 'I' for Inactive)
REMARK    1  A    between atoms: C4_6  and  N2_7 
REMARK    2  A    between atoms: N2_7  and  C5_9 
REMARK    3  A    between atoms: C5_9  and  C6_10 
REMARK    4  A    between atoms: C6_10  and  O1_11 
REMARK    5  A    between atoms: O1_11  and  C7_12 
REMARK    6  A    between atoms: C7_12  and  C8_13 
REMARK    7  A    between atoms: C8_13  and  N3_14 
REMARK    8  A    between atoms: N3_14  and  C9_16 
REMARK    9  A    between atoms: C9_16  and  C10_17 
REMARK   10  A    between atoms: C10_17  and  C11_18 
REMARK   11  A    between atoms: C11_18  and  N4_19 
REMARK   12  A    between atoms: C12_25  and  N6_26 
REMARK       I    between atoms: N6_26  and  C13_28 
ROOT
HETATM    1  C1  UNL     1      27.290  42.228  12.927  1.00  0.00     0.054 C 
HETATM    2  C2  UNL     1      26.355  42.490  14.063  1.00  0.00    -0.001 A 
HETATM    3  C3  UNL     1      25.513  43.558  14.005  1.00  0.00     0.116 A 
HETATM    4  N1  UNL     1      24.671  43.772  15.056  1.00  0.00    -0.201 N 
ATOM      5  H1  UNL     1      24.034  44.569  15.027  1.00  0.00     0.183 HD
HETATM    6  C4  UNL     1      24.654  42.968  16.125  1.00  0.00     0.679 A 
HETATM    7  N5  UNL     1      25.498  41.921  16.149  1.00  0.00    -0.176 N 
ATOM      8  H5  UNL     1      25.485  41.307  16.964  1.00  0.00     0.186 HD
HETATM    9  C12 UNL     1      26.357  41.644  15.155  1.00  0.00     0.130 A 
ENDROOT
BRANCH   6  10
HETATM   10  N2  UNL     1      23.840  43.223  17.082  1.00  0.00    -0.224 N 
ATOM     11  H2  UNL     1      24.012  42.779  17.985  1.00  0.00     0.177 HD
BRANCH  10  12
HETATM   12  C5  UNL     1      22.701  44.091  16.970  1.00  0.00     0.164 C 
BRANCH  12  13
HETATM   13  C6  UNL     1      22.485  44.942  18.178  1.00  0.00     0.188 C 
BRANCH  13  14
HETATM   14  O1  UNL     1      21.558  44.485  19.072  1.00  0.00    -0.385 OA
BRANCH  14  15
HETATM   15  C7  UNL     1      20.324  45.066  19.011  1.00  0.00     0.212 C 
BRANCH  15  16
HETATM   16  C8  UNL     1      19.207  44.057  18.982  1.00  0.00     0.086 C 
BRANCH  16  17
HETATM   17  N3  UNL     1      19.552  42.737  19.276  1.00  0.00    -0.380 N 
ATOM     18  H3  UNL     1      20.067  42.547  20.136  1.00  0.00     0.164 HD
BRANCH  17  19
HETATM   19  C9  UNL     1      19.221  41.670  18.446  1.00  0.00     0.062 C 
BRANCH  19  20
HETATM   20  C10 UNL     1      17.842  41.084  18.640  1.00  0.00     0.072 C 
BRANCH  20  21
HETATM   21  C11 UNL     1      16.878  41.548  17.575  1.00  0.00     0.234 C 
BRANCH  21  22
HETATM   22  N4  UNL     1      15.850  42.379  18.176  1.00  0.00    -0.079 N 
ATOM     23  H43 UNL     1      16.228  43.001  18.891  1.00  0.00     0.274 HD
ATOM     24  H42 UNL     1      15.505  43.090  17.531  1.00  0.00     0.274 HD
ATOM     25  H41 UNL     1      15.100  41.790  18.536  1.00  0.00     0.274 HD
ENDBRANCH  21  22
ENDBRANCH  20  21
ENDBRANCH  19  20
ENDBRANCH  17  19
ENDBRANCH  16  17
ENDBRANCH  15  16
ENDBRANCH  14  15
ENDBRANCH  13  14
ENDBRANCH  12  13
ENDBRANCH  10  12
ENDBRANCH   6  10
BRANCH   9  26
HETATM   26  N6  UNL     1      27.166  40.667  15.144  1.00  0.00    -0.316 N 
HETATM   27  C13 UNL     1      26.961  39.367  15.576  1.00  0.00     0.187 C 
HETATM   28  N7  UNL     1      26.428  38.498  14.812  1.00  0.00    -0.373 N 
HETATM   29  N8  UNL     1      27.347  38.988  16.879  1.00  0.00    -0.064 NA
ATOM     30  H72 UNL     1      26.149  38.772  13.871  1.00  0.00     0.158 HD
ATOM     31  H71 UNL     1      26.277  37.540  15.130  1.00  0.00     0.158 HD
ATOM     32  H6  UNL     1      28.093  40.866  14.767  1.00  0.00     0.170 HD
ENDBRANCH   9  26
TORSDOF 12
ENDMDL
