MODEL 1
REMARK VINA RESULT: -7.660235829      0.000      0.000
REMARK  12 active torsions:
REMARK  status: ('A' for Active; 'I' for Inactive)
REMARK    1  A    between atoms: C4_4  and  N1_5 
REMARK    2  A    between atoms: N1_5  and  C5_7 
REMARK    3  A    between atoms: C5_7  and  C6_8 
REMARK    4  A    between atoms: C6_8  and  N2_9 
REMARK    5  A    between atoms: N2_9  and  C7_12 
REMARK    6  A    between atoms: C7_12  and  C8_13 
REMARK    7  A    between atoms: C8_13  and  C9_14 
REMARK    8  A    between atoms: C9_14  and  N3_15 
REMARK    9  A    between atoms: N4_21  and  C11_22 
REMARK   10  A    between atoms: C11_22  and  C12_23 
REMARK   11  A    between atoms: C12_23  and  C13_24 
REMARK   12  A    between atoms: C13_24  and  N5_25 
REMARK       I    between atoms: N5_25  and  C14_27 
ROOT
HETATM    1  C1  UNL     1      26.160  44.512  16.106  1.00  0.00     0.016 C 
HETATM    2  C2  UNL     1      24.807  43.908  16.498  1.00  0.00     0.025 C 
HETATM    3  C3  UNL     1      24.217  44.815  17.505  1.00  0.00     0.014 C 
HETATM    4  C4  UNL     1      23.547  45.886  17.139  1.00  0.00     0.093 C 
HETATM    5  C10 UNL     1      23.283  46.141  15.698  1.00  0.00     0.273 C 
HETATM    6  O1  UNL     1      22.667  47.137  15.292  1.00  0.00    -0.266 OA
HETATM    7  N4  UNL     1      23.776  45.180  14.753  1.00  0.00    -0.326 N 
HETATM    8  C15 UNL     1      23.901  43.815  15.289  1.00  0.00     0.139 C 
ENDROOT
BRANCH   4   9
HETATM    9  N1  UNL     1      22.978  46.774  18.060  1.00  0.00    -0.384 N 
ATOM     10  H1  UNL     1      23.361  47.719  18.037  1.00  0.00     0.159 HD
BRANCH   9  11
HETATM   11  C5  UNL     1      21.949  46.568  19.027  1.00  0.00     0.147 C 
BRANCH  11  12
HETATM   12  C6  UNL     1      20.770  45.776  18.567  1.00  0.00     0.251 C 
BRANCH  12  13
HETATM   13  N2  UNL     1      20.798  44.380  18.887  1.00  0.00    -0.074 N 
ATOM     14  H22 UNL     1      21.731  44.074  19.163  1.00  0.00     0.277 HD
ATOM     15  H21 UNL     1      20.308  44.182  19.759  1.00  0.00     0.277 HD
BRANCH  13  16
HETATM   16  C7  UNL     1      20.280  43.595  17.794  1.00  0.00     0.234 C 
BRANCH  16  17
HETATM   17  C8  UNL     1      19.269  42.594  18.352  1.00  0.00     0.055 C 
BRANCH  17  18
HETATM   18  C9  UNL     1      17.886  43.213  18.096  1.00  0.00     0.231 C 
BRANCH  18  19
HETATM   19  N3  UNL     1      16.979  42.867  19.171  1.00  0.00    -0.079 N 
ATOM     20  H33 UNL     1      16.031  42.700  18.832  1.00  0.00     0.274 HD
ATOM     21  H32 UNL     1      17.169  41.937  19.546  1.00  0.00     0.274 HD
ATOM     22  H31 UNL     1      17.005  43.583  19.896  1.00  0.00     0.274 HD
ENDBRANCH  18  19
ENDBRANCH  17  18
ENDBRANCH  16  17
ENDBRANCH  13  16
ENDBRANCH  12  13
ENDBRANCH  11  12
ENDBRANCH   9  11
ENDBRANCH   4   9
BRANCH   7  23
HETATM   23  C11 UNL     1      24.157  45.500  13.434  1.00  0.00     0.069 C 
BRANCH  23  24
HETATM   24  C12 UNL     1      23.182  45.454  12.330  1.00  0.00     0.064 C 
BRANCH  24  25
HETATM   25  C13 UNL     1      23.171  46.574  11.345  1.00  0.00     0.127 C 
BRANCH  25  26
HETATM   26  N5  UNL     1      21.954  46.782  10.633  1.00  0.00    -0.365 N 
HETATM   27  C14 UNL     1      21.774  47.619   9.502  1.00  0.00     0.181 C 
HETATM   28  N6  UNL     1      21.509  48.859   9.685  1.00  0.00    -0.374 N 
HETATM   29  N7  UNL     1      21.888  47.069   8.181  1.00  0.00    -0.064 NA
ATOM     30  H62 UNL     1      21.428  49.250  10.624  1.00  0.00     0.158 HD
ATOM     31  H61 UNL     1      21.379  49.461   8.872  1.00  0.00     0.158 HD
ATOM     32  H5  UNL     1      21.133  46.280  10.969  1.00  0.00     0.162 HD
ENDBRANCH  25  26
ENDBRANCH  24  25
ENDBRANCH  23  24
ENDBRANCH   7  23
TORSDOF 12
ENDMDL
MODEL 2
REMARK VINA RESULT: -7.606940705      3.958      6.417
REMARK  12 active torsions:
REMARK  status: ('A' for Active; 'I' for Inactive)
REMARK    1  A    between atoms: C4_4  and  N1_5 
REMARK    2  A    between atoms: N1_5  and  C5_7 
REMARK    3  A    between atoms: C5_7  and  C6_8 
REMARK    4  A    between atoms: C6_8  and  N2_9 
REMARK    5  A    between atoms: N2_9  and  C7_12 
REMARK    6  A    between atoms: C7_12  and  C8_13 
REMARK    7  A    between atoms: C8_13  and  C9_14 
REMARK    8  A    between atoms: C9_14  and  N3_15 
REMARK    9  A    between atoms: N4_21  and  C11_22 
REMARK   10  A    between atoms: C11_22  and  C12_23 
REMARK   11  A    between atoms: C12_23  and  C13_24 
REMARK   12  A    between atoms: C13_24  and  N5_25 
REMARK       I    between atoms: N5_25  and  C14_27 
ROOT
HETATM    1  C1  UNL     1      24.485  44.214  13.363  1.00  0.00     0.016 C 
HETATM    2  C2  UNL     1      25.192  44.859  14.560  1.00  0.00     0.025 C 
HETATM    3  C3  UNL     1      24.214  44.877  15.668  1.00  0.00     0.014 C 
HETATM    4  C4  UNL     1      24.042  43.822  16.435  1.00  0.00     0.093 C 
HETATM    5  C10 UNL     1      24.913  42.629  16.262  1.00  0.00     0.273 C 
HETATM    6  O1  UNL     1      24.793  41.603  16.947  1.00  0.00    -0.266 OA
HETATM    7  N4  UNL     1      25.928  42.689  15.248  1.00  0.00    -0.326 N 
HETATM    8  C15 UNL     1      26.408  44.049  14.954  1.00  0.00     0.139 C 
ENDROOT
BRANCH   4   9
HETATM    9  N1  UNL     1      23.122  43.794  17.489  1.00  0.00    -0.384 N 
ATOM     10  H1  UNL     1      23.127  42.937  18.041  1.00  0.00     0.159 HD
BRANCH   9  11
HETATM   11  C5  UNL     1      22.177  44.775  17.915  1.00  0.00     0.147 C 
BRANCH  11  12
HETATM   12  C6  UNL     1      20.784  44.284  18.141  1.00  0.00     0.251 C 
BRANCH  12  13
HETATM   13  N2  UNL     1      20.519  42.946  17.705  1.00  0.00    -0.074 N 
ATOM     14  H22 UNL     1      20.562  42.864  16.689  1.00  0.00     0.277 HD
ATOM     15  H21 UNL     1      21.282  42.313  17.942  1.00  0.00     0.277 HD
BRANCH  13  16
HETATM   16  C7  UNL     1      19.258  42.480  18.225  1.00  0.00     0.234 C 
BRANCH  16  17
HETATM   17  C8  UNL     1      18.246  42.442  17.080  1.00  0.00     0.055 C 
BRANCH  17  18
HETATM   18  C9  UNL     1      16.936  42.994  17.664  1.00  0.00     0.231 C 
BRANCH  18  19
HETATM   19  N3  UNL     1      16.963  42.912  19.109  1.00  0.00    -0.079 N 
ATOM     20  H33 UNL     1      17.874  42.614  19.458  1.00  0.00     0.274 HD
ATOM     21  H32 UNL     1      16.930  43.834  19.544  1.00  0.00     0.274 HD
ATOM     22  H31 UNL     1      16.211  42.308  19.440  1.00  0.00     0.274 HD
ENDBRANCH  18  19
ENDBRANCH  17  18
ENDBRANCH  16  17
ENDBRANCH  13  16
ENDBRANCH  12  13
ENDBRANCH  11  12
ENDBRANCH   9  11
ENDBRANCH   4   9
BRANCH   7  23
HETATM   23  C11 UNL     1      26.407  41.563  14.549  1.00  0.00     0.069 C 
BRANCH  23  24
HETATM   24  C12 UNL     1      27.493  40.733  15.100  1.00  0.00     0.064 C 
BRANCH  24  25
HETATM   25  C13 UNL     1      27.187  39.325  15.483  1.00  0.00     0.127 C 
BRANCH  25  26
HETATM   26  N5  UNL     1      26.822  39.101  16.843  1.00  0.00    -0.365 N 
HETATM   27  C14 UNL     1      25.800  38.235  17.308  1.00  0.00     0.181 C 
HETATM   28  N6  UNL     1      24.601  38.680  17.391  1.00  0.00    -0.374 N 
HETATM   29  N7  UNL     1      26.120  36.886  17.677  1.00  0.00    -0.064 NA
ATOM     30  H62 UNL     1      24.373  39.639  17.128  1.00  0.00     0.158 HD
ATOM     31  H61 UNL     1      23.866  38.057  17.725  1.00  0.00     0.158 HD
ATOM     32  H5  UNL     1      27.348  39.614  17.550  1.00  0.00     0.162 HD
ENDBRANCH  25  26
ENDBRANCH  24  25
ENDBRANCH  23  24
ENDBRANCH   7  23
TORSDOF 12
ENDMDL
MODEL 3
REMARK VINA RESULT: -7.575673434      3.579      7.161
REMARK  12 active torsions:
REMARK  status: ('A' for Active; 'I' for Inactive)
REMARK    1  A    between atoms: C4_4  and  N1_5 
REMARK    2  A    between atoms: N1_5  and  C5_7 
REMARK    3  A    between atoms: C5_7  and  C6_8 
REMARK    4  A    between atoms: C6_8  and  N2_9 
REMARK    5  A    between atoms: N2_9  and  C7_12 
REMARK    6  A    between atoms: C7_12  and  C8_13 
REMARK    7  A    between atoms: C8_13  and  C9_14 
REMARK    8  A    between atoms: C9_14  and  N3_15 
REMARK    9  A    between atoms: N4_21  and  C11_22 
REMARK   10  A    between atoms: C11_22  and  C12_23 
REMARK   11  A    between atoms: C12_23  and  C13_24 
REMARK   12  A    between atoms: C13_24  and  N5_25 
REMARK       I    between atoms: N5_25  and  C14_27 
ROOT
HETATM    1  C1  UNL     1      23.626  45.912  14.202  1.00  0.00     0.016 C 
HETATM    2  C2  UNL     1      23.322  44.461  14.588  1.00  0.00     0.025 C 
HETATM    3  C3  UNL     1      24.606  43.731  14.529  1.00  0.00     0.014 C 
HETATM    4  C4  UNL     1      25.440  43.747  15.547  1.00  0.00     0.093 C 
HETATM    5  C10 UNL     1      25.049  44.416  16.816  1.00  0.00     0.273 C 
HETATM    6  O1  UNL     1      25.794  44.472  17.805  1.00  0.00    -0.266 OA
HETATM    7  N4  UNL     1      23.747  45.019  16.876  1.00  0.00    -0.326 N 
HETATM    8  C15 UNL     1      22.752  44.395  15.988  1.00  0.00     0.139 C 
ENDROOT
BRANCH   4   9
HETATM    9  N1  UNL     1      26.668  43.076  15.529  1.00  0.00    -0.384 N 
ATOM     10  H1  UNL     1      27.157  43.053  16.424  1.00  0.00     0.159 HD
BRANCH   9  11
HETATM   11  C5  UNL     1      27.346  42.420  14.459  1.00  0.00     0.147 C 
BRANCH  11  12
HETATM   12  C6  UNL     1      27.661  40.976  14.672  1.00  0.00     0.251 C 
BRANCH  12  13
HETATM   13  N2  UNL     1      26.728  40.251  15.483  1.00  0.00    -0.074 N 
ATOM     14  H22 UNL     1      26.493  40.760  16.335  1.00  0.00     0.277 HD
ATOM     15  H21 UNL     1      25.800  40.225  15.060  1.00  0.00     0.277 HD
BRANCH  13  16
HETATM   16  C7  UNL     1      27.221  38.927  15.769  1.00  0.00     0.234 C 
BRANCH  16  17
HETATM   17  C8  UNL     1      26.054  38.072  16.262  1.00  0.00     0.055 C 
BRANCH  17  18
HETATM   18  C9  UNL     1      25.550  38.754  17.542  1.00  0.00     0.231 C 
BRANCH  18  19
HETATM   19  N3  UNL     1      24.157  38.424  17.766  1.00  0.00    -0.079 N 
ATOM     20  H33 UNL     1      24.045  37.493  18.167  1.00  0.00     0.274 HD
ATOM     21  H32 UNL     1      23.755  38.966  18.531  1.00  0.00     0.274 HD
ATOM     22  H31 UNL     1      23.628  38.534  16.901  1.00  0.00     0.274 HD
ENDBRANCH  18  19
ENDBRANCH  17  18
ENDBRANCH  16  17
ENDBRANCH  13  16
ENDBRANCH  12  13
ENDBRANCH  11  12
ENDBRANCH   9  11
ENDBRANCH   4   9
BRANCH   7  23
HETATM   23  C11 UNL     1      23.437  46.139  17.672  1.00  0.00     0.069 C 
BRANCH  23  24
HETATM   24  C12 UNL     1      22.729  45.986  18.955  1.00  0.00     0.064 C 
BRANCH  24  25
HETATM   25  C13 UNL     1      21.257  45.748  18.930  1.00  0.00     0.127 C 
BRANCH  25  26
HETATM   26  N5  UNL     1      20.810  44.481  19.407  1.00  0.00    -0.365 N 
HETATM   27  C14 UNL     1      19.787  43.681  18.836  1.00  0.00     0.181 C 
HETATM   28  N6  UNL     1      18.572  43.885  19.187  1.00  0.00    -0.374 N 
HETATM   29  N7  UNL     1      20.125  42.662  17.884  1.00  0.00    -0.064 NA
ATOM     30  H62 UNL     1      18.331  44.610  19.863  1.00  0.00     0.158 HD
ATOM     31  H61 UNL     1      17.837  43.310  18.776  1.00  0.00     0.158 HD
ATOM     32  H5  UNL     1      21.271  44.113  20.239  1.00  0.00     0.162 HD
ENDBRANCH  25  26
ENDBRANCH  24  25
ENDBRANCH  23  24
ENDBRANCH   7  23
TORSDOF 12
ENDMDL
MODEL 4
REMARK VINA RESULT: -7.536824038      3.454      5.720
REMARK  12 active torsions:
REMARK  status: ('A' for Active; 'I' for Inactive)
REMARK    1  A    between atoms: C4_4  and  N1_5 
REMARK    2  A    between atoms: N1_5  and  C5_7 
REMARK    3  A    between atoms: C5_7  and  C6_8 
REMARK    4  A    between atoms: C6_8  and  N2_9 
REMARK    5  A    between atoms: N2_9  and  C7_12 
REMARK    6  A    between atoms: C7_12  and  C8_13 
REMARK    7  A    between atoms: C8_13  and  C9_14 
REMARK    8  A    between atoms: C9_14  and  N3_15 
REMARK    9  A    between atoms: N4_21  and  C11_22 
REMARK   10  A    between atoms: C11_22  and  C12_23 
REMARK   11  A    between atoms: C12_23  and  C13_24 
REMARK   12  A    between atoms: C13_24  and  N5_25 
REMARK       I    between atoms: N5_25  and  C14_27 
ROOT
HETATM    1  C1  UNL     1      22.394  45.162  13.738  1.00  0.00     0.016 C 
HETATM    2  C2  UNL     1      22.963  45.930  14.937  1.00  0.00     0.025 C 
HETATM    3  C3  UNL     1      22.157  45.534  16.111  1.00  0.00     0.014 C 
HETATM    4  C4  UNL     1      22.433  44.436  16.781  1.00  0.00     0.093 C 
HETATM    5  C10 UNL     1      23.631  43.631  16.426  1.00  0.00     0.273 C 
HETATM    6  O1  UNL     1      23.937  42.582  17.013  1.00  0.00    -0.266 OA
HETATM    7  N4  UNL     1      24.455  44.105  15.350  1.00  0.00    -0.326 N 
HETATM    8  C15 UNL     1      24.415  45.564  15.157  1.00  0.00     0.139 C 
ENDROOT
BRANCH   4   9
HETATM    9  N1  UNL     1      21.691  44.022  17.893  1.00  0.00    -0.384 N 
ATOM     10  H1  UNL     1      21.515  43.018  17.942  1.00  0.00     0.159 HD
BRANCH   9  11
HETATM   11  C5  UNL     1      21.140  44.779  18.970  1.00  0.00     0.147 C 
BRANCH  11  12
HETATM   12  C6  UNL     1      19.703  44.520  19.284  1.00  0.00     0.251 C 
BRANCH  12  13
HETATM   13  N2  UNL     1      18.819  44.481  18.157  1.00  0.00    -0.074 N 
ATOM     14  H22 UNL     1      18.274  45.339  18.075  1.00  0.00     0.277 HD
ATOM     15  H21 UNL     1      19.328  44.539  17.275  1.00  0.00     0.277 HD
BRANCH  13  16
HETATM   16  C7  UNL     1      17.975  43.314  18.211  1.00  0.00     0.234 C 
BRANCH  16  17
HETATM   17  C8  UNL     1      18.333  42.402  17.039  1.00  0.00     0.055 C 
BRANCH  17  18
HETATM   18  C9  UNL     1      18.615  41.023  17.655  1.00  0.00     0.231 C 
BRANCH  18  19
HETATM   19  N3  UNL     1      19.853  41.057  18.405  1.00  0.00    -0.079 N 
ATOM     20  H33 UNL     1      20.498  41.761  18.045  1.00  0.00     0.274 HD
ATOM     21  H32 UNL     1      19.722  41.439  19.342  1.00  0.00     0.274 HD
ATOM     22  H31 UNL     1      20.275  40.129  18.427  1.00  0.00     0.274 HD
ENDBRANCH  18  19
ENDBRANCH  17  18
ENDBRANCH  16  17
ENDBRANCH  13  16
ENDBRANCH  12  13
ENDBRANCH  11  12
ENDBRANCH   9  11
ENDBRANCH   4   9
BRANCH   7  23
HETATM   23  C11 UNL     1      25.210  43.263  14.509  1.00  0.00     0.069 C 
BRANCH  23  24
HETATM   24  C12 UNL     1      26.643  43.028  14.758  1.00  0.00     0.064 C 
BRANCH  24  25
HETATM   25  C13 UNL     1      27.139  41.622  14.778  1.00  0.00     0.127 C 
BRANCH  25  26
HETATM   26  N5  UNL     1      26.364  40.685  15.522  1.00  0.00    -0.365 N 
HETATM   27  C14 UNL     1      26.692  39.326  15.763  1.00  0.00     0.181 C 
HETATM   28  N6  UNL     1      26.349  38.443  14.900  1.00  0.00    -0.374 N 
HETATM   29  N7  UNL     1      27.394  38.963  16.961  1.00  0.00    -0.064 NA
ATOM     30  H62 UNL     1      25.850  38.702  14.048  1.00  0.00     0.158 HD
ATOM     31  H61 UNL     1      26.585  37.466  15.073  1.00  0.00     0.158 HD
ATOM     32  H5  UNL     1      25.489  41.025  15.920  1.00  0.00     0.162 HD
ENDBRANCH  25  26
ENDBRANCH  24  25
ENDBRANCH  23  24
ENDBRANCH   7  23
TORSDOF 12
ENDMDL
MODEL 5
REMARK VINA RESULT: -7.380399130      4.037      6.836
REMARK  12 active torsions:
REMARK  status: ('A' for Active; 'I' for Inactive)
REMARK    1  A    between atoms: C4_4  and  N1_5 
REMARK    2  A    between atoms: N1_5  and  C5_7 
REMARK    3  A    between atoms: C5_7  and  C6_8 
REMARK    4  A    between atoms: C6_8  and  N2_9 
REMARK    5  A    between atoms: N2_9  and  C7_12 
REMARK    6  A    between atoms: C7_12  and  C8_13 
REMARK    7  A    between atoms: C8_13  and  C9_14 
REMARK    8  A    between atoms: C9_14  and  N3_15 
REMARK    9  A    between atoms: N4_21  and  C11_22 
REMARK   10  A    between atoms: C11_22  and  C12_23 
REMARK   11  A    between atoms: C12_23  and  C13_24 
REMARK   12  A    between atoms: C13_24  and  N5_25 
REMARK       I    between atoms: N5_25  and  C14_27 
ROOT
HETATM    1  C1  UNL     1      26.321  42.575  11.676  1.00  0.00     0.016 C 
HETATM    2  C2  UNL     1      26.684  43.802  12.519  1.00  0.00     0.025 C 
HETATM    3  C3  UNL     1      25.437  44.246  13.175  1.00  0.00     0.014 C 
HETATM    4  C4  UNL     1      25.029  43.692  14.296  1.00  0.00     0.093 C 
HETATM    5  C10 UNL     1      25.879  42.679  14.976  1.00  0.00     0.273 C 
HETATM    6  O1  UNL     1      25.544  42.115  16.028  1.00  0.00    -0.266 OA
HETATM    7  N4  UNL     1      27.138  42.353  14.368  1.00  0.00    -0.326 N 
HETATM    8  C15 UNL     1      27.719  43.439  13.562  1.00  0.00     0.139 C 
ENDROOT
BRANCH   4   9
HETATM    9  N1  UNL     1      23.851  44.078  14.946  1.00  0.00    -0.384 N 
ATOM     10  H1  UNL     1      23.137  43.352  15.007  1.00  0.00     0.159 HD
BRANCH   9  11
HETATM   11  C5  UNL     1      23.488  45.324  15.538  1.00  0.00     0.147 C 
BRANCH  11  12
HETATM   12  C6  UNL     1      24.097  45.617  16.870  1.00  0.00     0.251 C 
BRANCH  12  13
HETATM   13  N2  UNL     1      23.326  46.462  17.732  1.00  0.00    -0.074 N 
ATOM     14  H22 UNL     1      23.886  47.226  18.112  1.00  0.00     0.277 HD
ATOM     15  H21 UNL     1      22.647  47.015  17.211  1.00  0.00     0.277 HD
BRANCH  13  16
HETATM   16  C7  UNL     1      22.698  45.690  18.775  1.00  0.00     0.234 C 
BRANCH  16  17
HETATM   17  C8  UNL     1      21.211  46.040  18.808  1.00  0.00     0.055 C 
BRANCH  17  18
HETATM   18  C9  UNL     1      20.471  44.699  18.926  1.00  0.00     0.231 C 
BRANCH  18  19
HETATM   19  N3  UNL     1      19.207  44.887  19.608  1.00  0.00    -0.079 N 
ATOM     20  H33 UNL     1      19.045  45.865  19.848  1.00  0.00     0.274 HD
ATOM     21  H32 UNL     1      18.412  44.752  18.983  1.00  0.00     0.274 HD
ATOM     22  H31 UNL     1      19.156  44.279  20.425  1.00  0.00     0.274 HD
ENDBRANCH  18  19
ENDBRANCH  17  18
ENDBRANCH  16  17
ENDBRANCH  13  16
ENDBRANCH  12  13
ENDBRANCH  11  12
ENDBRANCH   9  11
ENDBRANCH   4   9
BRANCH   7  23
HETATM   23  C11 UNL     1      27.761  41.093  14.480  1.00  0.00     0.069 C 
BRANCH  23  24
HETATM   24  C12 UNL     1      27.120  39.879  13.944  1.00  0.00     0.064 C 
BRANCH  24  25
HETATM   25  C13 UNL     1      26.697  38.817  14.902  1.00  0.00     0.127 C 
BRANCH  25  26
HETATM   26  N5  UNL     1      26.807  39.132  16.287  1.00  0.00    -0.365 N 
HETATM   27  C14 UNL     1      25.869  38.806  17.300  1.00  0.00     0.181 C 
HETATM   28  N6  UNL     1      24.892  39.606  17.522  1.00  0.00    -0.374 N 
HETATM   29  N7  UNL     1      26.026  37.597  18.058  1.00  0.00    -0.064 NA
ATOM     30  H62 UNL     1      24.780  40.466  16.983  1.00  0.00     0.158 HD
ATOM     31  H61 UNL     1      24.218  39.372  18.250  1.00  0.00     0.158 HD
ATOM     32  H5  UNL     1      27.641  39.640  16.580  1.00  0.00     0.162 HD
ENDBRANCH  25  26
ENDBRANCH  24  25
ENDBRANCH  23  24
ENDBRANCH   7  23
TORSDOF 12
ENDMDL
