MODEL 1
REMARK VINA RESULT: -7.290020540      0.000      0.000
REMARK  12 active torsions:
REMARK  status: ('A' for Active; 'I' for Inactive)
REMARK    1  A    between atoms: N2_5  and  C4_6 
REMARK    2  A    between atoms: C4_6  and  C5_7 
REMARK    3  A    between atoms: C5_7  and  C6_8 
REMARK    4  A    between atoms: C6_8  and  N3_9 
REMARK    5  A    between atoms: N3_9  and  C7_12 
REMARK    6  A    between atoms: C7_12  and  C8_13 
REMARK    7  A    between atoms: C8_13  and  C9_14 
REMARK    8  A    between atoms: C9_14  and  N4_15 
REMARK       I    between atoms: N4_15  and  C10_17 
REMARK       I    between atoms: C10_17  and  N6_21 
REMARK    9  A    between atoms: N6_21  and  C11_23 
REMARK   10  A    between atoms: C11_23  and  C12_24 
REMARK   11  A    between atoms: C12_24  and  N7_25 
REMARK   12  A    between atoms: C13_29  and  O1_30 
ROOT
HETATM    1  C7  UNL     1      22.331  46.800  18.573  1.00  0.00     0.234 C 
ENDROOT
BRANCH   1   2
HETATM    2  N3  UNL     1      23.436  46.533  17.664  1.00  0.00    -0.075 N 
ATOM      3  H32 UNL     1      24.101  47.304  17.602  1.00  0.00     0.277 HD
ATOM      4  H31 UNL     1      23.157  46.524  16.683  1.00  0.00     0.277 HD
BRANCH   2   5
HETATM    5  C6  UNL     1      24.049  45.269  18.105  1.00  0.00     0.234 C 
BRANCH   5   6
HETATM    6  C5  UNL     1      24.484  44.606  16.780  1.00  0.00     0.057 C 
BRANCH   6   7
HETATM    7  C4  UNL     1      23.239  44.126  16.079  1.00  0.00     0.277 C 
BRANCH   7   8
HETATM    8  N2  UNL     1      23.333  44.465  14.685  1.00  0.00     0.120 N 
HETATM    9  C3  UNL     1      24.699  44.835  14.316  1.00  0.00     0.295 C 
HETATM   10  C2  UNL     1      24.760  44.787  12.800  1.00  0.00     0.146 C 
HETATM   11  N1  UNL     1      23.752  45.550  12.154  1.00  0.00    -0.411 N 
HETATM   12  C1  UNL     1      24.144  46.822  11.636  1.00  0.00     0.143 C 
HETATM   13  C14 UNL     1      22.454  45.528  12.749  1.00  0.00     0.180 C 
HETATM   14  C13 UNL     1      22.501  45.577  14.280  1.00  0.00     0.374 C 
BRANCH  14  15
HETATM   15  O1  UNL     1      23.035  46.802  14.668  1.00  0.00    -0.366 OA
ATOM     16  H1  UNL     1      22.821  47.496  14.056  1.00  0.00     0.212 HD
ENDBRANCH  14  15
ENDBRANCH   7   8
ENDBRANCH   6   7
ENDBRANCH   5   6
ENDBRANCH   2   5
ENDBRANCH   1   2
BRANCH   1  17
HETATM   17  C8  UNL     1      21.787  45.495  19.129  1.00  0.00     0.048 C 
BRANCH  17  18
HETATM   18  C9  UNL     1      20.323  45.294  18.779  1.00  0.00     0.139 C 
BRANCH  18  19
HETATM   19  N4  UNL     1      19.994  43.890  19.062  1.00  0.00    -0.227 N 
HETATM   20  C10 UNL     1      18.799  43.404  18.446  1.00  0.00     0.667 C 
HETATM   21  N5  UNL     1      18.819  43.256  17.149  1.00  0.00    -0.235 N 
HETATM   22  N6  UNL     1      17.640  43.093  19.178  1.00  0.00    -0.225 N 
ATOM     23  H52 UNL     1      19.660  43.482  16.617  1.00  0.00     0.174 HD
ATOM     24  H51 UNL     1      17.967  42.910  16.709  1.00  0.00     0.174 HD
ATOM     25  H6  UNL     1      17.286  43.746  19.878  1.00  0.00     0.177 HD
ATOM     26  H4  UNL     1      20.578  43.301  19.656  1.00  0.00     0.177 HD
BRANCH  22  27
HETATM   27  C11 UNL     1      16.952  41.848  18.938  1.00  0.00     0.165 C 
BRANCH  27  28
HETATM   28  C12 UNL     1      17.864  40.694  19.346  1.00  0.00     0.249 C 
BRANCH  28  29
HETATM   29  N7  UNL     1      17.646  40.311  20.725  1.00  0.00    -0.078 N 
ATOM     30  H73 UNL     1      18.110  40.953  21.369  1.00  0.00     0.274 HD
ATOM     31  H72 UNL     1      16.680  40.474  21.010  1.00  0.00     0.274 HD
ATOM     32  H71 UNL     1      17.927  39.345  20.892  1.00  0.00     0.274 HD
ENDBRANCH  28  29
ENDBRANCH  27  28
ENDBRANCH  22  27
ENDBRANCH  18  19
ENDBRANCH  17  18
ENDBRANCH   1  17
TORSDOF 12
ENDMDL
MODEL 2
REMARK VINA RESULT: -7.243597578      1.196      1.527
REMARK  12 active torsions:
REMARK  status: ('A' for Active; 'I' for Inactive)
REMARK    1  A    between atoms: N2_5  and  C4_6 
REMARK    2  A    between atoms: C4_6  and  C5_7 
REMARK    3  A    between atoms: C5_7  and  C6_8 
REMARK    4  A    between atoms: C6_8  and  N3_9 
REMARK    5  A    between atoms: N3_9  and  C7_12 
REMARK    6  A    between atoms: C7_12  and  C8_13 
REMARK    7  A    between atoms: C8_13  and  C9_14 
REMARK    8  A    between atoms: C9_14  and  N4_15 
REMARK       I    between atoms: N4_15  and  C10_17 
REMARK       I    between atoms: C10_17  and  N6_21 
REMARK    9  A    between atoms: N6_21  and  C11_23 
REMARK   10  A    between atoms: C11_23  and  C12_24 
REMARK   11  A    between atoms: C12_24  and  N7_25 
REMARK   12  A    between atoms: C13_29  and  O1_30 
ROOT
HETATM    1  C7  UNL     1      22.286  46.865  18.675  1.00  0.00     0.234 C 
ENDROOT
BRANCH   1   2
HETATM    2  N3  UNL     1      23.353  46.545  17.738  1.00  0.00    -0.075 N 
ATOM      3  H32 UNL     1      24.012  47.311  17.602  1.00  0.00     0.277 HD
ATOM      4  H31 UNL     1      23.033  46.478  16.772  1.00  0.00     0.277 HD
BRANCH   2   5
HETATM    5  C6  UNL     1      23.988  45.311  18.227  1.00  0.00     0.234 C 
BRANCH   5   6
HETATM    6  C5  UNL     1      24.407  44.589  16.926  1.00  0.00     0.057 C 
BRANCH   6   7
HETATM    7  C4  UNL     1      23.149  44.140  16.228  1.00  0.00     0.277 C 
BRANCH   7   8
HETATM    8  N2  UNL     1      23.262  44.450  14.828  1.00  0.00     0.120 N 
HETATM    9  C3  UNL     1      24.638  44.786  14.464  1.00  0.00     0.295 C 
HETATM   10  C2  UNL     1      24.711  44.705  12.950  1.00  0.00     0.146 C 
HETATM   11  N1  UNL     1      23.724  45.475  12.280  1.00  0.00    -0.411 N 
HETATM   12  C1  UNL     1      24.146  46.727  11.740  1.00  0.00     0.143 C 
HETATM   13  C14 UNL     1      22.420  45.490  12.863  1.00  0.00     0.180 C 
HETATM   14  C13 UNL     1      22.455  45.569  14.393  1.00  0.00     0.374 C 
BRANCH  14  15
HETATM   15  O1  UNL     1      23.009  46.791  14.761  1.00  0.00    -0.366 OA
ATOM     16  H1  UNL     1      23.952  46.808  14.643  1.00  0.00     0.212 HD
ENDBRANCH  14  15
ENDBRANCH   7   8
ENDBRANCH   6   7
ENDBRANCH   5   6
ENDBRANCH   2   5
ENDBRANCH   1   2
BRANCH   1  17
HETATM   17  C8  UNL     1      20.986  46.219  18.223  1.00  0.00     0.048 C 
BRANCH  17  18
HETATM   18  C9  UNL     1      20.438  45.257  19.261  1.00  0.00     0.139 C 
BRANCH  18  19
HETATM   19  N4  UNL     1      19.139  44.776  18.770  1.00  0.00    -0.227 N 
HETATM   20  C10 UNL     1      19.107  43.405  18.365  1.00  0.00     0.667 C 
HETATM   21  N5  UNL     1      19.211  42.507  19.307  1.00  0.00    -0.235 N 
HETATM   22  N6  UNL     1      18.971  43.014  17.022  1.00  0.00    -0.225 N 
ATOM     23  H52 UNL     1      19.309  42.790  20.282  1.00  0.00     0.174 HD
ATOM     24  H51 UNL     1      19.188  41.529  19.017  1.00  0.00     0.174 HD
ATOM     25  H6  UNL     1      19.546  43.451  16.301  1.00  0.00     0.177 HD
ATOM     26  H4  UNL     1      18.317  45.378  18.722  1.00  0.00     0.177 HD
BRANCH  22  27
HETATM   27  C11 UNL     1      18.016  41.994  16.665  1.00  0.00     0.165 C 
BRANCH  27  28
HETATM   28  C12 UNL     1      16.627  42.622  16.587  1.00  0.00     0.249 C 
BRANCH  28  29
HETATM   29  N7  UNL     1      15.814  42.248  17.725  1.00  0.00    -0.078 N 
ATOM     30  H73 UNL     1      15.840  41.242  17.889  1.00  0.00     0.274 HD
ATOM     31  H72 UNL     1      16.230  42.561  18.602  1.00  0.00     0.274 HD
ATOM     32  H71 UNL     1      14.857  42.586  17.624  1.00  0.00     0.274 HD
ENDBRANCH  28  29
ENDBRANCH  27  28
ENDBRANCH  22  27
ENDBRANCH  18  19
ENDBRANCH  17  18
ENDBRANCH   1  17
TORSDOF 12
ENDMDL
MODEL 3
REMARK VINA RESULT: -7.237018892      1.128      1.445
REMARK  12 active torsions:
REMARK  status: ('A' for Active; 'I' for Inactive)
REMARK    1  A    between atoms: N2_5  and  C4_6 
REMARK    2  A    between atoms: C4_6  and  C5_7 
REMARK    3  A    between atoms: C5_7  and  C6_8 
REMARK    4  A    between atoms: C6_8  and  N3_9 
REMARK    5  A    between atoms: N3_9  and  C7_12 
REMARK    6  A    between atoms: C7_12  and  C8_13 
REMARK    7  A    between atoms: C8_13  and  C9_14 
REMARK    8  A    between atoms: C9_14  and  N4_15 
REMARK       I    between atoms: N4_15  and  C10_17 
REMARK       I    between atoms: C10_17  and  N6_21 
REMARK    9  A    between atoms: N6_21  and  C11_23 
REMARK   10  A    between atoms: C11_23  and  C12_24 
REMARK   11  A    between atoms: C12_24  and  N7_25 
REMARK   12  A    between atoms: C13_29  and  O1_30 
ROOT
HETATM    1  C7  UNL     1      23.279  46.286  19.146  1.00  0.00     0.234 C 
ENDROOT
BRANCH   1   2
HETATM    2  N3  UNL     1      23.898  45.978  17.866  1.00  0.00    -0.075 N 
ATOM      3  H32 UNL     1      24.363  46.780  17.441  1.00  0.00     0.277 HD
ATOM      4  H31 UNL     1      23.221  45.812  17.122  1.00  0.00     0.277 HD
BRANCH   2   5
HETATM    5  C6  UNL     1      24.800  44.837  18.096  1.00  0.00     0.234 C 
BRANCH   5   6
HETATM    6  C5  UNL     1      24.771  44.086  16.747  1.00  0.00     0.057 C 
BRANCH   6   7
HETATM    7  C4  UNL     1      23.345  44.074  16.261  1.00  0.00     0.277 C 
BRANCH   7   8
HETATM    8  N2  UNL     1      23.331  44.398  14.860  1.00  0.00     0.120 N 
HETATM    9  C3  UNL     1      24.672  44.720  14.372  1.00  0.00     0.295 C 
HETATM   10  C2  UNL     1      24.602  44.657  12.857  1.00  0.00     0.146 C 
HETATM   11  N1  UNL     1      23.568  45.449  12.291  1.00  0.00    -0.411 N 
HETATM   12  C1  UNL     1      23.956  46.702  11.728  1.00  0.00     0.143 C 
HETATM   13  C14 UNL     1      22.325  45.475  12.994  1.00  0.00     0.180 C 
HETATM   14  C13 UNL     1      22.504  45.534  14.515  1.00  0.00     0.374 C 
BRANCH  14  15
HETATM   15  O1  UNL     1      23.108  46.743  14.842  1.00  0.00    -0.366 OA
ATOM     16  H1  UNL     1      23.665  46.671  15.609  1.00  0.00     0.212 HD
ENDBRANCH  14  15
ENDBRANCH   7   8
ENDBRANCH   6   7
ENDBRANCH   5   6
ENDBRANCH   2   5
ENDBRANCH   1   2
BRANCH   1  17
HETATM   17  C8  UNL     1      22.052  47.157  18.935  1.00  0.00     0.048 C 
BRANCH  17  18
HETATM   18  C9  UNL     1      21.124  46.587  17.877  1.00  0.00     0.139 C 
BRANCH  18  19
HETATM   19  N4  UNL     1      19.925  46.092  18.567  1.00  0.00    -0.227 N 
HETATM   20  C10 UNL     1      19.800  44.670  18.636  1.00  0.00     0.667 C 
HETATM   21  N5  UNL     1      20.643  44.038  19.408  1.00  0.00    -0.235 N 
HETATM   22  N6  UNL     1      18.825  43.958  17.916  1.00  0.00    -0.225 N 
ATOM     23  H52 UNL     1      21.351  44.555  19.931  1.00  0.00     0.174 HD
ATOM     24  H51 UNL     1      20.554  43.024  19.457  1.00  0.00     0.174 HD
ATOM     25  H6  UNL     1      18.678  44.151  16.926  1.00  0.00     0.177 HD
ATOM     26  H4  UNL     1      19.229  46.720  18.970  1.00  0.00     0.177 HD
BRANCH  22  27
HETATM   27  C11 UNL     1      18.034  42.952  18.582  1.00  0.00     0.165 C 
BRANCH  27  28
HETATM   28  C12 UNL     1      18.273  41.607  17.904  1.00  0.00     0.249 C 
BRANCH  28  29
HETATM   29  N7  UNL     1      19.559  41.051  18.269  1.00  0.00    -0.078 N 
ATOM     30  H73 UNL     1      19.971  41.550  19.058  1.00  0.00     0.274 HD
ATOM     31  H72 UNL     1      19.460  40.132  18.700  1.00  0.00     0.274 HD
ATOM     32  H71 UNL     1      20.192  41.024  17.471  1.00  0.00     0.274 HD
ENDBRANCH  28  29
ENDBRANCH  27  28
ENDBRANCH  22  27
ENDBRANCH  18  19
ENDBRANCH  17  18
ENDBRANCH   1  17
TORSDOF 12
ENDMDL
MODEL 4
REMARK VINA RESULT: -6.816025054      1.634      2.254
REMARK  12 active torsions:
REMARK  status: ('A' for Active; 'I' for Inactive)
REMARK    1  A    between atoms: N2_5  and  C4_6 
REMARK    2  A    between atoms: C4_6  and  C5_7 
REMARK    3  A    between atoms: C5_7  and  C6_8 
REMARK    4  A    between atoms: C6_8  and  N3_9 
REMARK    5  A    between atoms: N3_9  and  C7_12 
REMARK    6  A    between atoms: C7_12  and  C8_13 
REMARK    7  A    between atoms: C8_13  and  C9_14 
REMARK    8  A    between atoms: C9_14  and  N4_15 
REMARK       I    between atoms: N4_15  and  C10_17 
REMARK       I    between atoms: C10_17  and  N6_21 
REMARK    9  A    between atoms: N6_21  and  C11_23 
REMARK   10  A    between atoms: C11_23  and  C12_24 
REMARK   11  A    between atoms: C12_24  and  N7_25 
REMARK   12  A    between atoms: C13_29  and  O1_30 
ROOT
HETATM    1  C7  UNL     1      21.313  45.187  17.780  1.00  0.00     0.234 C 
ENDROOT
BRANCH   1   2
HETATM    2  N3  UNL     1      22.398  44.490  18.453  1.00  0.00    -0.075 N 
ATOM      3  H32 UNL     1      22.191  43.510  18.642  1.00  0.00     0.277 HD
ATOM      4  H31 UNL     1      22.526  44.784  19.421  1.00  0.00     0.277 HD
BRANCH   2   5
HETATM    5  C6  UNL     1      23.600  44.681  17.625  1.00  0.00     0.234 C 
BRANCH   5   6
HETATM    6  C5  UNL     1      23.217  44.014  16.285  1.00  0.00     0.057 C 
BRANCH   6   7
HETATM    7  C4  UNL     1      24.418  44.092  15.377  1.00  0.00     0.277 C 
BRANCH   7   8
HETATM    8  N2  UNL     1      23.981  44.490  14.066  1.00  0.00     0.120 N 
HETATM    9  C3  UNL     1      25.083  45.045  13.281  1.00  0.00     0.295 C 
HETATM   10  C2  UNL     1      24.614  45.059  11.837  1.00  0.00     0.146 C 
HETATM   11  N1  UNL     1      23.368  45.709  11.638  1.00  0.00    -0.411 N 
HETATM   12  C1  UNL     1      23.414  47.038  11.118  1.00  0.00     0.143 C 
HETATM   13  C14 UNL     1      22.370  45.500  12.639  1.00  0.00     0.180 C 
HETATM   14  C13 UNL     1      22.945  45.500  14.059  1.00  0.00     0.374 C 
BRANCH  14  15
HETATM   15  O1  UNL     1      23.445  46.768  14.334  1.00  0.00    -0.366 OA
ATOM     16  H1  UNL     1      24.325  46.737  14.692  1.00  0.00     0.212 HD
ENDBRANCH  14  15
ENDBRANCH   7   8
ENDBRANCH   6   7
ENDBRANCH   5   6
ENDBRANCH   2   5
ENDBRANCH   1   2
BRANCH   1  17
HETATM   17  C8  UNL     1      20.251  45.593  18.788  1.00  0.00     0.048 C 
BRANCH  17  18
HETATM   18  C9  UNL     1      19.384  44.418  19.206  1.00  0.00     0.139 C 
BRANCH  18  19
HETATM   19  N4  UNL     1      18.404  44.193  18.134  1.00  0.00    -0.227 N 
HETATM   20  C10 UNL     1      17.721  42.938  18.182  1.00  0.00     0.667 C 
HETATM   21  N5  UNL     1      16.866  42.767  19.153  1.00  0.00    -0.235 N 
HETATM   22  N6  UNL     1      17.941  41.919  17.240  1.00  0.00    -0.225 N 
ATOM     23  H52 UNL     1      16.706  43.507  19.837  1.00  0.00     0.174 HD
ATOM     24  H51 UNL     1      16.379  41.872  19.187  1.00  0.00     0.174 HD
ATOM     25  H6  UNL     1      18.892  41.650  16.989  1.00  0.00     0.177 HD
ATOM     26  H4  UNL     1      18.224  44.884  17.406  1.00  0.00     0.177 HD
BRANCH  22  27
HETATM   27  C11 UNL     1      16.816  41.253  16.629  1.00  0.00     0.165 C 
BRANCH  27  28
HETATM   28  C12 UNL     1      16.907  41.420  15.114  1.00  0.00     0.249 C 
BRANCH  28  29
HETATM   29  N7  UNL     1      15.985  42.429  14.638  1.00  0.00    -0.078 N 
ATOM     30  H73 UNL     1      15.526  42.911  15.411  1.00  0.00     0.274 HD
ATOM     31  H72 UNL     1      16.478  43.222  14.229  1.00  0.00     0.274 HD
ATOM     32  H71 UNL     1      15.306  42.035  13.987  1.00  0.00     0.274 HD
ENDBRANCH  28  29
ENDBRANCH  27  28
ENDBRANCH  22  27
ENDBRANCH  18  19
ENDBRANCH  17  18
ENDBRANCH   1  17
TORSDOF 12
ENDMDL
MODEL 5
REMARK VINA RESULT: -6.807802831      1.430      1.629
REMARK  12 active torsions:
REMARK  status: ('A' for Active; 'I' for Inactive)
REMARK    1  A    between atoms: N2_5  and  C4_6 
REMARK    2  A    between atoms: C4_6  and  C5_7 
REMARK    3  A    between atoms: C5_7  and  C6_8 
REMARK    4  A    between atoms: C6_8  and  N3_9 
REMARK    5  A    between atoms: N3_9  and  C7_12 
REMARK    6  A    between atoms: C7_12  and  C8_13 
REMARK    7  A    between atoms: C8_13  and  C9_14 
REMARK    8  A    between atoms: C9_14  and  N4_15 
REMARK       I    between atoms: N4_15  and  C10_17 
REMARK       I    between atoms: C10_17  and  N6_21 
REMARK    9  A    between atoms: N6_21  and  C11_23 
REMARK   10  A    between atoms: C11_23  and  C12_24 
REMARK   11  A    between atoms: C12_24  and  N7_25 
REMARK   12  A    between atoms: C13_29  and  O1_30 
ROOT
HETATM    1  C7  UNL     1      22.154  46.393  17.678  1.00  0.00     0.234 C 
ENDROOT
BRANCH   1   2
HETATM    2  N3  UNL     1      23.599  46.314  17.524  1.00  0.00    -0.075 N 
ATOM      3  H32 UNL     1      24.058  47.224  17.563  1.00  0.00     0.277 HD
ATOM      4  H31 UNL     1      23.889  46.063  16.579  1.00  0.00     0.277 HD
BRANCH   2   5
HETATM    5  C6  UNL     1      24.082  45.374  18.548  1.00  0.00     0.234 C 
BRANCH   5   6
HETATM    6  C5  UNL     1      25.234  44.633  17.833  1.00  0.00     0.057 C 
BRANCH   6   7
HETATM    7  C4  UNL     1      24.617  43.625  16.898  1.00  0.00     0.277 C 
BRANCH   7   8
HETATM    8  N2  UNL     1      25.237  43.752  15.607  1.00  0.00     0.120 N 
HETATM    9  C3  UNL     1      26.396  44.643  15.656  1.00  0.00     0.295 C 
HETATM   10  C2  UNL     1      27.178  44.397  14.379  1.00  0.00     0.146 C 
HETATM   11  N1  UNL     1      26.404  44.508  13.193  1.00  0.00    -0.411 N 
HETATM   12  C1  UNL     1      26.535  45.722  12.454  1.00  0.00     0.143 C 
HETATM   13  C14 UNL     1      25.075  43.988  13.246  1.00  0.00     0.180 C 
HETATM   14  C13 UNL     1      24.373  44.286  14.576  1.00  0.00     0.374 C 
BRANCH  14  15
HETATM   15  O1  UNL     1      24.207  45.662  14.689  1.00  0.00    -0.366 OA
ATOM     16  H1  UNL     1      23.868  46.050  13.891  1.00  0.00     0.212 HD
ENDBRANCH  14  15
ENDBRANCH   7   8
ENDBRANCH   6   7
ENDBRANCH   5   6
ENDBRANCH   2   5
ENDBRANCH   1   2
BRANCH   1  17
HETATM   17  C8  UNL     1      21.704  45.505  18.827  1.00  0.00     0.048 C 
BRANCH  17  18
HETATM   18  C9  UNL     1      20.193  45.372  18.885  1.00  0.00     0.139 C 
BRANCH  18  19
HETATM   19  N4  UNL     1      19.888  43.965  19.179  1.00  0.00    -0.227 N 
HETATM   20  C10 UNL     1      18.756  43.427  18.492  1.00  0.00     0.667 C 
HETATM   21  N5  UNL     1      18.875  43.249  17.204  1.00  0.00    -0.235 N 
HETATM   22  N6  UNL     1      17.558  43.095  19.148  1.00  0.00    -0.225 N 
ATOM     23  H52 UNL     1      19.744  43.489  16.728  1.00  0.00     0.174 HD
ATOM     24  H51 UNL     1      18.067  42.865  16.714  1.00  0.00     0.174 HD
ATOM     25  H6  UNL     1      17.135  43.752  19.803  1.00  0.00     0.177 HD
ATOM     26  H4  UNL     1      20.446  43.411  19.828  1.00  0.00     0.177 HD
BRANCH  22  27
HETATM   27  C11 UNL     1      16.928  41.823  18.891  1.00  0.00     0.165 C 
BRANCH  27  28
HETATM   28  C12 UNL     1      17.897  40.707  19.273  1.00  0.00     0.249 C 
BRANCH  28  29
HETATM   29  N7  UNL     1      17.708  40.291  20.647  1.00  0.00    -0.078 N 
ATOM     30  H73 UNL     1      18.104  39.366  20.815  1.00  0.00     0.274 HD
ATOM     31  H72 UNL     1      18.293  40.831  21.284  1.00  0.00     0.274 HD
ATOM     32  H71 UNL     1      16.725  40.332  20.916  1.00  0.00     0.274 HD
ENDBRANCH  28  29
ENDBRANCH  27  28
ENDBRANCH  22  27
ENDBRANCH  18  19
ENDBRANCH  17  18
ENDBRANCH   1  17
TORSDOF 12
ENDMDL
