MODEL 1
REMARK VINA RESULT: -8.445690401      0.000      0.000
REMARK  13 active torsions:
REMARK  status: ('A' for Active; 'I' for Inactive)
REMARK    1  A    between atoms: N1_1  and  C1_5 
REMARK    2  A    between atoms: C1_5  and  C2_6 
REMARK    3  A    between atoms: C2_6  and  N2_7 
REMARK    4  A    between atoms: N2_7  and  C3_9 
REMARK    5  A    between atoms: C5_16  and  N5_17 
REMARK    6  A    between atoms: N5_17  and  C6_19 
REMARK    7  A    between atoms: C6_19  and  C7_20 
REMARK    8  A    between atoms: C7_20  and  C8_21 
REMARK    9  A    between atoms: C8_21  and  C9_22 
REMARK   10  A    between atoms: C9_22  and  C10_23 
REMARK   11  A    between atoms: C10_23  and  C11_24 
REMARK   12  A    between atoms: C11_24  and  C12_25 
REMARK   13  A    between atoms: C12_25  and  N6_26 
ROOT
HETATM    1  C3  UNL     1      17.122  42.521  18.019  1.00  0.00     0.696 A 
HETATM    2  N3  UNL     1      17.892  41.446  18.262  1.00  0.00    -0.140 N 
ATOM      3  H3  UNL     1      17.493  40.513  18.166  1.00  0.00     0.189 HD
HETATM    4  C4  UNL     1      19.179  41.579  18.629  1.00  0.00     0.352 A 
HETATM    5  O1  UNL     1      19.860  40.525  18.845  1.00  0.00    -0.246 OA
HETATM    6  N4  UNL     1      19.733  42.776  18.764  1.00  0.00    -0.140 N 
ATOM      7  H4  UNL     1      20.710  42.868  19.042  1.00  0.00     0.189 HD
HETATM    8  C5  UNL     1      18.974  43.881  18.523  1.00  0.00     0.696 A 
HETATM    9  N9  UNL     1      17.708  43.730  18.163  1.00  0.00    -0.022 N 
ATOM     10  H9  UNL     1      17.151  44.565  17.986  1.00  0.00     0.203 HD
ENDROOT
BRANCH   8  11
HETATM   11  N5  UNL     1      19.572  44.999  18.671  1.00  0.00    -0.225 N 
ATOM     12  H5  UNL     1      19.036  45.865  18.620  1.00  0.00     0.177 HD
BRANCH  11  13
HETATM   13  C6  UNL     1      20.991  45.058  18.910  1.00  0.00     0.138 C 
BRANCH  13  14
HETATM   14  C7  UNL     1      21.661  45.382  17.619  1.00  0.00     0.020 C 
BRANCH  14  15
HETATM   15  C8  UNL     1      22.593  44.269  17.123  1.00  0.00     0.002 C 
BRANCH  15  16
HETATM   16  C9  UNL     1      22.944  44.441  15.703  1.00  0.00     0.000 C 
BRANCH  16  17
HETATM   17  C10 UNL     1      22.108  45.283  14.824  1.00  0.00     0.002 C 
BRANCH  17  18
HETATM   18  C11 UNL     1      22.229  45.277  13.369  1.00  0.00     0.020 C 
BRANCH  18  19
HETATM   19  C12 UNL     1      23.526  45.450  12.694  1.00  0.00     0.122 C 
BRANCH  19  20
HETATM   20  N6  UNL     1      23.194  45.966  11.330  1.00  0.00    -0.367 N 
HETATM   21  C13 UNL     1      23.602  47.128  10.987  1.00  0.00     0.196 C 
HETATM   22  N7  UNL     1      24.355  47.910  11.886  1.00  0.00    -0.067 NA
HETATM   23  N8  UNL     1      23.292  47.620   9.703  1.00  0.00    -0.067 NA
ATOM     24  H6  UNL     1      22.648  45.397  10.681  1.00  0.00     0.161 HD
ENDBRANCH  19  20
ENDBRANCH  18  19
ENDBRANCH  17  18
ENDBRANCH  16  17
ENDBRANCH  15  16
ENDBRANCH  14  15
ENDBRANCH  13  14
ENDBRANCH  11  13
ENDBRANCH   8  11
BRANCH   1  25
HETATM   25  N2  UNL     1      15.907  42.391  17.674  1.00  0.00    -0.224 N 
ATOM     26  H2  UNL     1      15.196  42.902  18.197  1.00  0.00     0.177 HD
BRANCH  25  27
HETATM   27  C2  UNL     1      15.487  41.561  16.584  1.00  0.00     0.165 C 
BRANCH  27  28
HETATM   28  C1  UNL     1      15.958  42.093  15.250  1.00  0.00     0.249 C 
BRANCH  28  29
HETATM   29  N1  UNL     1      17.126  41.347  14.826  1.00  0.00    -0.078 N 
ATOM     30  H13 UNL     1      17.653  40.972  15.614  1.00  0.00     0.274 HD
ATOM     31  H12 UNL     1      16.880  40.463  14.382  1.00  0.00     0.274 HD
ATOM     32  H11 UNL     1      17.699  41.937  14.223  1.00  0.00     0.274 HD
ENDBRANCH  28  29
ENDBRANCH  27  28
ENDBRANCH  25  27
ENDBRANCH   1  25
TORSDOF 13
ENDMDL
MODEL 2
REMARK VINA RESULT: -8.370422789      1.323      1.820
REMARK  13 active torsions:
REMARK  status: ('A' for Active; 'I' for Inactive)
REMARK    1  A    between atoms: N1_1  and  C1_5 
REMARK    2  A    between atoms: C1_5  and  C2_6 
REMARK    3  A    between atoms: C2_6  and  N2_7 
REMARK    4  A    between atoms: N2_7  and  C3_9 
REMARK    5  A    between atoms: C5_16  and  N5_17 
REMARK    6  A    between atoms: N5_17  and  C6_19 
REMARK    7  A    between atoms: C6_19  and  C7_20 
REMARK    8  A    between atoms: C7_20  and  C8_21 
REMARK    9  A    between atoms: C8_21  and  C9_22 
REMARK   10  A    between atoms: C9_22  and  C10_23 
REMARK   11  A    between atoms: C10_23  and  C11_24 
REMARK   12  A    between atoms: C11_24  and  C12_25 
REMARK   13  A    between atoms: C12_25  and  N6_26 
ROOT
HETATM    1  C3  UNL     1      17.073  42.484  17.982  1.00  0.00     0.696 A 
HETATM    2  N3  UNL     1      17.883  41.441  18.230  1.00  0.00    -0.140 N 
ATOM      3  H3  UNL     1      17.512  40.493  18.168  1.00  0.00     0.189 HD
HETATM    4  C4  UNL     1      19.174  41.623  18.559  1.00  0.00     0.352 A 
HETATM    5  O1  UNL     1      19.894  40.597  18.784  1.00  0.00    -0.246 OA
HETATM    6  N4  UNL     1      19.692  42.840  18.650  1.00  0.00    -0.140 N 
ATOM      7  H4  UNL     1      20.673  42.970  18.900  1.00  0.00     0.189 HD
HETATM    8  C5  UNL     1      18.892  43.914  18.402  1.00  0.00     0.696 A 
HETATM    9  N9  UNL     1      17.623  43.714  18.080  1.00  0.00    -0.022 N 
ATOM     10  H9  UNL     1      17.034  44.526  17.897  1.00  0.00     0.203 HD
ENDROOT
BRANCH   8  11
HETATM   11  N5  UNL     1      19.457  45.054  18.507  1.00  0.00    -0.225 N 
ATOM     12  H5  UNL     1      19.012  45.874  18.096  1.00  0.00     0.177 HD
BRANCH  11  13
HETATM   13  C6  UNL     1      20.713  45.202  19.197  1.00  0.00     0.138 C 
BRANCH  13  14
HETATM   14  C7  UNL     1      21.648  45.933  18.297  1.00  0.00     0.020 C 
BRANCH  14  15
HETATM   15  C8  UNL     1      22.977  45.198  18.077  1.00  0.00     0.002 C 
BRANCH  15  16
HETATM   16  C9  UNL     1      22.827  44.058  17.157  1.00  0.00     0.000 C 
BRANCH  16  17
HETATM   17  C10 UNL     1      24.009  43.284  16.728  1.00  0.00     0.002 C 
BRANCH  17  18
HETATM   18  C11 UNL     1      24.624  43.436  15.413  1.00  0.00     0.020 C 
BRANCH  18  19
HETATM   19  C12 UNL     1      24.939  44.760  14.849  1.00  0.00     0.122 C 
BRANCH  19  20
HETATM   20  N6  UNL     1      24.018  44.919  13.682  1.00  0.00    -0.367 N 
HETATM   21  C13 UNL     1      23.175  45.880  13.680  1.00  0.00     0.196 C 
HETATM   22  N7  UNL     1      23.117  46.777  14.766  1.00  0.00    -0.067 NA
HETATM   23  N8  UNL     1      22.303  46.036  12.582  1.00  0.00    -0.067 NA
ATOM     24  H6  UNL     1      24.061  44.268  12.897  1.00  0.00     0.161 HD
ENDBRANCH  19  20
ENDBRANCH  18  19
ENDBRANCH  17  18
ENDBRANCH  16  17
ENDBRANCH  15  16
ENDBRANCH  14  15
ENDBRANCH  13  14
ENDBRANCH  11  13
ENDBRANCH   8  11
BRANCH   1  25
HETATM   25  N2  UNL     1      15.854  42.307  17.672  1.00  0.00    -0.224 N 
ATOM     26  H2  UNL     1      15.136  42.697  18.282  1.00  0.00     0.177 HD
BRANCH  25  27
HETATM   27  C2  UNL     1      15.439  41.585  16.505  1.00  0.00     0.165 C 
BRANCH  27  28
HETATM   28  C1  UNL     1      16.039  42.156  15.241  1.00  0.00     0.249 C 
BRANCH  28  29
HETATM   29  N1  UNL     1      17.109  41.291  14.788  1.00  0.00    -0.078 N 
ATOM     30  H13 UNL     1      17.767  41.776  14.178  1.00  0.00     0.274 HD
ATOM     31  H12 UNL     1      17.757  41.052  15.538  1.00  0.00     0.274 HD
ATOM     32  H11 UNL     1      16.707  40.465  14.345  1.00  0.00     0.274 HD
ENDBRANCH  28  29
ENDBRANCH  27  28
ENDBRANCH  25  27
ENDBRANCH   1  25
TORSDOF 13
ENDMDL
MODEL 3
REMARK VINA RESULT: -8.123221881      2.837      3.367
REMARK  13 active torsions:
REMARK  status: ('A' for Active; 'I' for Inactive)
REMARK    1  A    between atoms: N1_1  and  C1_5 
REMARK    2  A    between atoms: C1_5  and  C2_6 
REMARK    3  A    between atoms: C2_6  and  N2_7 
REMARK    4  A    between atoms: N2_7  and  C3_9 
REMARK    5  A    between atoms: C5_16  and  N5_17 
REMARK    6  A    between atoms: N5_17  and  C6_19 
REMARK    7  A    between atoms: C6_19  and  C7_20 
REMARK    8  A    between atoms: C7_20  and  C8_21 
REMARK    9  A    between atoms: C8_21  and  C9_22 
REMARK   10  A    between atoms: C9_22  and  C10_23 
REMARK   11  A    between atoms: C10_23  and  C11_24 
REMARK   12  A    between atoms: C11_24  and  C12_25 
REMARK   13  A    between atoms: C12_25  and  N6_26 
ROOT
HETATM    1  C3  UNL     1      17.110  42.494  17.995  1.00  0.00     0.696 A 
HETATM    2  N3  UNL     1      17.922  41.446  18.221  1.00  0.00    -0.140 N 
ATOM      3  H3  UNL     1      17.556  40.500  18.119  1.00  0.00     0.189 HD
HETATM    4  C4  UNL     1      19.206  41.622  18.576  1.00  0.00     0.352 A 
HETATM    5  O1  UNL     1      19.927  40.592  18.776  1.00  0.00    -0.246 OA
HETATM    6  N4  UNL     1      19.717  42.838  18.717  1.00  0.00    -0.140 N 
ATOM      7  H4  UNL     1      20.693  42.963  18.987  1.00  0.00     0.189 HD
HETATM    8  C5  UNL     1      18.916  43.916  18.494  1.00  0.00     0.696 A 
HETATM    9  N9  UNL     1      17.653  43.723  18.145  1.00  0.00    -0.022 N 
ATOM     10  H9  UNL     1      17.064  44.538  17.981  1.00  0.00     0.203 HD
ENDROOT
BRANCH   8  11
HETATM   11  N5  UNL     1      19.474  45.054  18.647  1.00  0.00    -0.225 N 
ATOM     12  H5  UNL     1      18.910  45.901  18.588  1.00  0.00     0.177 HD
BRANCH  11  13
HETATM   13  C6  UNL     1      20.888  45.162  18.901  1.00  0.00     0.138 C 
BRANCH  13  14
HETATM   14  C7  UNL     1      21.502  45.918  17.773  1.00  0.00     0.020 C 
BRANCH  14  15
HETATM   15  C8  UNL     1      22.143  45.012  16.713  1.00  0.00     0.002 C 
BRANCH  15  16
HETATM   16  C9  UNL     1      23.012  43.989  17.320  1.00  0.00     0.000 C 
BRANCH  16  17
HETATM   17  C10 UNL     1      24.068  43.336  16.521  1.00  0.00     0.002 C 
BRANCH  17  18
HETATM   18  C11 UNL     1      24.331  43.673  15.125  1.00  0.00     0.020 C 
BRANCH  18  19
HETATM   19  C12 UNL     1      25.693  43.936  14.631  1.00  0.00     0.122 C 
BRANCH  19  20
HETATM   20  N6  UNL     1      26.554  42.902  15.284  1.00  0.00    -0.367 N 
HETATM   21  C13 UNL     1      27.134  42.025  14.557  1.00  0.00     0.196 C 
HETATM   22  N7  UNL     1      26.962  42.035  13.157  1.00  0.00    -0.067 NA
HETATM   23  N8  UNL     1      27.947  41.047  15.166  1.00  0.00    -0.067 NA
ATOM     24  H6  UNL     1      26.676  42.896  16.297  1.00  0.00     0.161 HD
ENDBRANCH  19  20
ENDBRANCH  18  19
ENDBRANCH  17  18
ENDBRANCH  16  17
ENDBRANCH  15  16
ENDBRANCH  14  15
ENDBRANCH  13  14
ENDBRANCH  11  13
ENDBRANCH   8  11
BRANCH   1  25
HETATM   25  N2  UNL     1      15.897  42.323  17.660  1.00  0.00    -0.224 N 
ATOM     26  H2  UNL     1      15.168  42.703  18.264  1.00  0.00     0.177 HD
BRANCH  25  27
HETATM   27  C2  UNL     1      15.504  41.622  16.474  1.00  0.00     0.165 C 
BRANCH  27  28
HETATM   28  C1  UNL     1      16.135  42.208  15.232  1.00  0.00     0.249 C 
BRANCH  28  29
HETATM   29  N1  UNL     1      17.186  41.324  14.769  1.00  0.00    -0.078 N 
ATOM     30  H13 UNL     1      17.950  41.832  14.324  1.00  0.00     0.274 HD
ATOM     31  H12 UNL     1      17.714  40.914  15.539  1.00  0.00     0.274 HD
ATOM     32  H11 UNL     1      16.782  40.617  14.156  1.00  0.00     0.274 HD
ENDBRANCH  28  29
ENDBRANCH  27  28
ENDBRANCH  25  27
ENDBRANCH   1  25
TORSDOF 13
ENDMDL
MODEL 4
REMARK VINA RESULT: -8.095850044      2.346      3.037
REMARK  13 active torsions:
REMARK  status: ('A' for Active; 'I' for Inactive)
REMARK    1  A    between atoms: N1_1  and  C1_5 
REMARK    2  A    between atoms: C1_5  and  C2_6 
REMARK    3  A    between atoms: C2_6  and  N2_7 
REMARK    4  A    between atoms: N2_7  and  C3_9 
REMARK    5  A    between atoms: C5_16  and  N5_17 
REMARK    6  A    between atoms: N5_17  and  C6_19 
REMARK    7  A    between atoms: C6_19  and  C7_20 
REMARK    8  A    between atoms: C7_20  and  C8_21 
REMARK    9  A    between atoms: C8_21  and  C9_22 
REMARK   10  A    between atoms: C9_22  and  C10_23 
REMARK   11  A    between atoms: C10_23  and  C11_24 
REMARK   12  A    between atoms: C11_24  and  C12_25 
REMARK   13  A    between atoms: C12_25  and  N6_26 
ROOT
HETATM    1  C3  UNL     1      17.129  42.554  18.061  1.00  0.00     0.696 A 
HETATM    2  N3  UNL     1      17.934  41.503  18.293  1.00  0.00    -0.140 N 
ATOM      3  H3  UNL     1      17.554  40.559  18.232  1.00  0.00     0.189 HD
HETATM    4  C4  UNL     1      19.231  41.673  18.602  1.00  0.00     0.352 A 
HETATM    5  O1  UNL     1      19.946  40.640  18.812  1.00  0.00    -0.246 OA
HETATM    6  N4  UNL     1      19.761  42.885  18.689  1.00  0.00    -0.140 N 
ATOM      7  H4  UNL     1      20.747  43.005  18.925  1.00  0.00     0.189 HD
HETATM    8  C5  UNL     1      18.967  43.966  18.458  1.00  0.00     0.696 A 
HETATM    9  N9  UNL     1      17.691  43.779  18.155  1.00  0.00    -0.022 N 
ATOM     10  H9  UNL     1      17.107  44.597  17.984  1.00  0.00     0.203 HD
ENDROOT
BRANCH   8  11
HETATM   11  N5  UNL     1      19.543  45.101  18.559  1.00  0.00    -0.225 N 
ATOM     12  H5  UNL     1      19.021  45.950  18.341  1.00  0.00     0.177 HD
BRANCH  11  13
HETATM   13  C6  UNL     1      20.919  45.203  18.973  1.00  0.00     0.138 C 
BRANCH  13  14
HETATM   14  C7  UNL     1      21.502  46.418  18.337  1.00  0.00     0.020 C 
BRANCH  14  15
HETATM   15  C8  UNL     1      22.537  46.097  17.251  1.00  0.00     0.002 C 
BRANCH  15  16
HETATM   16  C9  UNL     1      22.060  46.475  15.910  1.00  0.00     0.000 C 
BRANCH  16  17
HETATM   17  C10 UNL     1      22.043  45.484  14.816  1.00  0.00     0.002 C 
BRANCH  17  18
HETATM   18  C11 UNL     1      23.204  45.211  13.973  1.00  0.00     0.020 C 
BRANCH  18  19
HETATM   19  C12 UNL     1      24.489  44.766  14.539  1.00  0.00     0.122 C 
BRANCH  19  20
HETATM   20  N6  UNL     1      24.164  43.547  15.342  1.00  0.00    -0.367 N 
HETATM   21  C13 UNL     1      24.840  43.299  16.398  1.00  0.00     0.196 C 
HETATM   22  N7  UNL     1      25.878  44.164  16.797  1.00  0.00    -0.067 NA
HETATM   23  N8  UNL     1      24.538  42.151  17.160  1.00  0.00    -0.067 NA
ATOM     24  H6  UNL     1      23.411  42.922  15.050  1.00  0.00     0.161 HD
ENDBRANCH  19  20
ENDBRANCH  18  19
ENDBRANCH  17  18
ENDBRANCH  16  17
ENDBRANCH  15  16
ENDBRANCH  14  15
ENDBRANCH  13  14
ENDBRANCH  11  13
ENDBRANCH   8  11
BRANCH   1  25
HETATM   25  N2  UNL     1      15.904  42.389  17.769  1.00  0.00    -0.224 N 
ATOM     26  H2  UNL     1      15.199  42.778  18.395  1.00  0.00     0.177 HD
BRANCH  25  27
HETATM   27  C2  UNL     1      15.465  41.682  16.602  1.00  0.00     0.165 C 
BRANCH  27  28
HETATM   28  C1  UNL     1      16.092  42.227  15.339  1.00  0.00     0.249 C 
BRANCH  28  29
HETATM   29  N1  UNL     1      17.047  41.264  14.829  1.00  0.00    -0.078 N 
ATOM     30  H13 UNL     1      17.795  41.071  15.494  1.00  0.00     0.274 HD
ATOM     31  H12 UNL     1      16.657  40.324  14.773  1.00  0.00     0.274 HD
ATOM     32  H11 UNL     1      17.402  41.590  13.930  1.00  0.00     0.274 HD
ENDBRANCH  28  29
ENDBRANCH  27  28
ENDBRANCH  25  27
ENDBRANCH   1  25
TORSDOF 13
ENDMDL
MODEL 5
REMARK VINA RESULT: -8.075476551      0.748      1.048
REMARK  13 active torsions:
REMARK  status: ('A' for Active; 'I' for Inactive)
REMARK    1  A    between atoms: N1_1  and  C1_5 
REMARK    2  A    between atoms: C1_5  and  C2_6 
REMARK    3  A    between atoms: C2_6  and  N2_7 
REMARK    4  A    between atoms: N2_7  and  C3_9 
REMARK    5  A    between atoms: C5_16  and  N5_17 
REMARK    6  A    between atoms: N5_17  and  C6_19 
REMARK    7  A    between atoms: C6_19  and  C7_20 
REMARK    8  A    between atoms: C7_20  and  C8_21 
REMARK    9  A    between atoms: C8_21  and  C9_22 
REMARK   10  A    between atoms: C9_22  and  C10_23 
REMARK   11  A    between atoms: C10_23  and  C11_24 
REMARK   12  A    between atoms: C11_24  and  C12_25 
REMARK   13  A    between atoms: C12_25  and  N6_26 
ROOT
HETATM    1  C3  UNL     1      17.106  42.479  18.053  1.00  0.00     0.696 A 
HETATM    2  N3  UNL     1      17.922  41.433  18.272  1.00  0.00    -0.140 N 
ATOM      3  H3  UNL     1      17.555  40.486  18.187  1.00  0.00     0.189 HD
HETATM    4  C4  UNL     1      19.214  41.613  18.599  1.00  0.00     0.352 A 
HETATM    5  O1  UNL     1      19.939  40.585  18.795  1.00  0.00    -0.246 OA
HETATM    6  N4  UNL     1      19.727  42.830  18.718  1.00  0.00    -0.140 N 
ATOM      7  H4  UNL     1      20.709  42.957  18.967  1.00  0.00     0.189 HD
HETATM    8  C5  UNL     1      18.921  43.906  18.501  1.00  0.00     0.696 A 
HETATM    9  N9  UNL     1      17.652  43.709  18.179  1.00  0.00    -0.022 N 
ATOM     10  H9  UNL     1      17.059  44.523  18.019  1.00  0.00     0.203 HD
ENDROOT
BRANCH   8  11
HETATM   11  N5  UNL     1      19.482  45.045  18.631  1.00  0.00    -0.225 N 
ATOM     12  H5  UNL     1      18.938  45.893  18.472  1.00  0.00     0.177 HD
BRANCH  11  13
HETATM   13  C6  UNL     1      20.871  45.154  19.000  1.00  0.00     0.138 C 
BRANCH  13  14
HETATM   14  C7  UNL     1      21.533  46.070  18.030  1.00  0.00     0.020 C 
BRANCH  14  15
HETATM   15  C8  UNL     1      22.883  45.543  17.523  1.00  0.00     0.002 C 
BRANCH  15  16
HETATM   16  C9  UNL     1      22.717  44.396  16.616  1.00  0.00     0.000 C 
BRANCH  16  17
HETATM   17  C10 UNL     1      23.025  44.530  15.177  1.00  0.00     0.002 C 
BRANCH  17  18
HETATM   18  C11 UNL     1      22.187  45.287  14.252  1.00  0.00     0.020 C 
BRANCH  18  19
HETATM   19  C12 UNL     1      22.481  45.353  12.811  1.00  0.00     0.122 C 
BRANCH  19  20
HETATM   20  N6  UNL     1      23.959  45.561  12.721  1.00  0.00    -0.367 N 
HETATM   21  C13 UNL     1      24.407  46.593  12.113  1.00  0.00     0.196 C 
HETATM   22  N7  UNL     1      23.515  47.520  11.536  1.00  0.00    -0.067 NA
HETATM   23  N8  UNL     1      25.799  46.796  12.025  1.00  0.00    -0.067 NA
ATOM     24  H6  UNL     1      24.602  44.888  13.140  1.00  0.00     0.161 HD
ENDBRANCH  19  20
ENDBRANCH  18  19
ENDBRANCH  17  18
ENDBRANCH  16  17
ENDBRANCH  15  16
ENDBRANCH  14  15
ENDBRANCH  13  14
ENDBRANCH  11  13
ENDBRANCH   8  11
BRANCH   1  25
HETATM   25  N2  UNL     1      15.887  42.304  17.744  1.00  0.00    -0.224 N 
ATOM     26  H2  UNL     1      15.170  42.628  18.393  1.00  0.00     0.177 HD
BRANCH  25  27
HETATM   27  C2  UNL     1      15.470  41.674  16.526  1.00  0.00     0.165 C 
BRANCH  27  28
HETATM   28  C1  UNL     1      16.186  42.237  15.321  1.00  0.00     0.249 C 
BRANCH  28  29
HETATM   29  N1  UNL     1      17.118  41.249  14.816  1.00  0.00    -0.078 N 
ATOM     30  H13 UNL     1      16.645  40.477  14.345  1.00  0.00     0.274 HD
ATOM     31  H12 UNL     1      17.656  41.594  14.021  1.00  0.00     0.274 HD
ATOM     32  H11 UNL     1      17.715  40.930  15.579  1.00  0.00     0.274 HD
ENDBRANCH  28  29
ENDBRANCH  27  28
ENDBRANCH  25  27
ENDBRANCH   1  25
TORSDOF 13
ENDMDL
