MODEL 1
REMARK VINA RESULT: -7.902632579      0.000      0.000
REMARK  12 active torsions:
REMARK  status: ('A' for Active; 'I' for Inactive)
REMARK       I    between atoms: C1_4  and  N3_6 
REMARK    1  A    between atoms: N3_6  and  C2_8 
REMARK    2  A    between atoms: C2_8  and  C3_9 
REMARK    3  A    between atoms: C3_9  and  C4_10 
REMARK    4  A    between atoms: C4_10  and  C5_11 
REMARK    5  A    between atoms: C5_11  and  C6_12 
REMARK    6  A    between atoms: C6_12  and  N4_13 
REMARK    7  A    between atoms: C8_15  and  N5_16 
REMARK    8  A    between atoms: N5_16  and  C9_18 
REMARK    9  A    between atoms: C9_18  and  C10_19 
REMARK   10  A    between atoms: C10_19  and  C11_20 
REMARK   11  A    between atoms: C11_20  and  N6_21 
REMARK   12  A    between atoms: C13_26  and  N7_27 
ROOT
HETATM    1  N4  UNL     1      22.597  45.178  16.329  1.00  0.00    -0.348 N 
HETATM    2  C7  UNL     1      22.726  44.482  17.555  1.00  0.00     0.150 C 
HETATM    3  C8  UNL     1      22.235  45.141  18.788  1.00  0.00     0.097 C 
HETATM    4  C12 UNL     1      21.928  46.585  18.740  1.00  0.00     0.069 C 
HETATM    5  C13 UNL     1      21.759  47.233  17.425  1.00  0.00     0.276 C 
HETATM    6  C14 UNL     1      22.416  46.565  16.304  1.00  0.00     0.250 C 
HETATM    7  O1  UNL     1      22.812  47.282  15.322  1.00  0.00    -0.271 OA
ENDROOT
BRANCH   1   8
HETATM    8  C6  UNL     1      22.658  44.451  15.072  1.00  0.00     0.126 C 
BRANCH   8   9
HETATM    9  C5  UNL     1      24.055  44.246  14.599  1.00  0.00     0.020 C 
BRANCH   9  10
HETATM   10  C4  UNL     1      24.212  44.783  13.206  1.00  0.00     0.003 C 
BRANCH  10  11
HETATM   11  C3  UNL     1      22.937  45.230  12.563  1.00  0.00     0.020 C 
BRANCH  11  12
HETATM   12  C2  UNL     1      23.194  46.363  11.577  1.00  0.00     0.122 C 
BRANCH  12  13
HETATM   13  N3  UNL     1      22.111  46.457  10.631  1.00  0.00    -0.365 N 
HETATM   14  C1  UNL     1      22.111  47.508   9.654  1.00  0.00     0.181 C 
HETATM   15  N1  UNL     1      22.689  47.314   8.526  1.00  0.00    -0.374 N 
HETATM   16  N2  UNL     1      21.483  48.742   9.927  1.00  0.00    -0.064 NA
ATOM     17  H12 UNL     1      22.689  48.061   7.832  1.00  0.00     0.158 HD
ATOM     18  H11 UNL     1      23.143  46.422   8.330  1.00  0.00     0.158 HD
ATOM     19  H3  UNL     1      21.349  45.779  10.656  1.00  0.00     0.162 HD
ENDBRANCH  12  13
ENDBRANCH  11  12
ENDBRANCH  10  11
ENDBRANCH   9  10
ENDBRANCH   8   9
ENDBRANCH   1   8
BRANCH   3  20
HETATM   20  N5  UNL     1      21.135  44.420  19.413  1.00  0.00    -0.415 N 
ATOM     21  H5  UNL     1      21.191  44.049  20.362  1.00  0.00     0.153 HD
BRANCH  20  22
HETATM   22  C9  UNL     1      19.975  44.273  18.601  1.00  0.00     0.115 C 
BRANCH  22  23
HETATM   23  C10 UNL     1      19.349  42.918  18.606  1.00  0.00     0.046 C 
BRANCH  23  24
HETATM   24  C11 UNL     1      17.907  43.013  18.125  1.00  0.00     0.231 C 
BRANCH  24  25
HETATM   25  N6  UNL     1      16.965  42.880  19.227  1.00  0.00    -0.079 N 
ATOM     26  H63 UNL     1      16.088  42.462  18.918  1.00  0.00     0.274 HD
ATOM     27  H62 UNL     1      17.261  42.160  19.886  1.00  0.00     0.274 HD
ATOM     28  H61 UNL     1      16.807  43.773  19.696  1.00  0.00     0.274 HD
ENDBRANCH  24  25
ENDBRANCH  23  24
ENDBRANCH  22  23
ENDBRANCH  20  22
ENDBRANCH   3  20
BRANCH   5  29
HETATM   29  N7  UNL     1      20.371  47.457  17.050  1.00  0.00    -0.066 N 
ATOM     30  H73 UNL     1      19.745  46.956  17.680  1.00  0.00     0.275 HD
ATOM     31  H72 UNL     1      20.094  48.416  17.260  1.00  0.00     0.275 HD
ATOM     32  H71 UNL     1      20.162  47.228  16.079  1.00  0.00     0.275 HD
ENDBRANCH   5  29
TORSDOF 12
ENDMDL
MODEL 2
REMARK VINA RESULT: -7.794879220      1.307      1.512
REMARK  12 active torsions:
REMARK  status: ('A' for Active; 'I' for Inactive)
REMARK       I    between atoms: C1_4  and  N3_6 
REMARK    1  A    between atoms: N3_6  and  C2_8 
REMARK    2  A    between atoms: C2_8  and  C3_9 
REMARK    3  A    between atoms: C3_9  and  C4_10 
REMARK    4  A    between atoms: C4_10  and  C5_11 
REMARK    5  A    between atoms: C5_11  and  C6_12 
REMARK    6  A    between atoms: C6_12  and  N4_13 
REMARK    7  A    between atoms: C8_15  and  N5_16 
REMARK    8  A    between atoms: N5_16  and  C9_18 
REMARK    9  A    between atoms: C9_18  and  C10_19 
REMARK   10  A    between atoms: C10_19  and  C11_20 
REMARK   11  A    between atoms: C11_20  and  N6_21 
REMARK   12  A    between atoms: C13_26  and  N7_27 
ROOT
HETATM    1  N4  UNL     1      22.463  44.940  16.462  1.00  0.00    -0.348 N 
HETATM    2  C7  UNL     1      21.548  44.088  17.124  1.00  0.00     0.150 C 
HETATM    3  C8  UNL     1      20.882  44.593  18.348  1.00  0.00     0.097 C 
HETATM    4  C12 UNL     1      21.418  45.810  18.990  1.00  0.00     0.069 C 
HETATM    5  C13 UNL     1      22.330  46.678  18.219  1.00  0.00     0.276 C 
HETATM    6  C14 UNL     1      23.045  46.027  17.124  1.00  0.00     0.250 C 
HETATM    7  O1  UNL     1      24.197  46.477  16.803  1.00  0.00    -0.271 OA
ENDROOT
BRANCH   1   8
HETATM    8  C6  UNL     1      22.814  44.689  15.074  1.00  0.00     0.126 C 
BRANCH   8   9
HETATM    9  C5  UNL     1      22.144  45.633  14.136  1.00  0.00     0.020 C 
BRANCH   9  10
HETATM   10  C4  UNL     1      22.396  45.216  12.717  1.00  0.00     0.003 C 
BRANCH  10  11
HETATM   11  C3  UNL     1      23.675  45.727  12.133  1.00  0.00     0.020 C 
BRANCH  11  12
HETATM   12  C2  UNL     1      23.423  46.949  11.259  1.00  0.00     0.122 C 
BRANCH  12  13
HETATM   13  N3  UNL     1      22.230  46.762  10.472  1.00  0.00    -0.365 N 
HETATM   14  C1  UNL     1      22.052  47.518   9.265  1.00  0.00     0.181 C 
HETATM   15  N1  UNL     1      22.501  47.047   8.160  1.00  0.00    -0.374 N 
HETATM   16  N2  UNL     1      21.390  48.764   9.288  1.00  0.00    -0.064 NA
ATOM     17  H12 UNL     1      22.374  47.583   7.303  1.00  0.00     0.158 HD
ATOM     18  H11 UNL     1      22.979  46.146   8.143  1.00  0.00     0.158 HD
ATOM     19  H3  UNL     1      21.518  46.097  10.771  1.00  0.00     0.162 HD
ENDBRANCH  12  13
ENDBRANCH  11  12
ENDBRANCH  10  11
ENDBRANCH   9  10
ENDBRANCH   8   9
ENDBRANCH   1   8
BRANCH   3  20
HETATM   20  N5  UNL     1      19.438  44.706  18.199  1.00  0.00    -0.415 N 
ATOM     21  H5  UNL     1      18.991  45.525  17.785  1.00  0.00     0.153 HD
BRANCH  20  22
HETATM   22  C9  UNL     1      18.696  43.588  18.673  1.00  0.00     0.115 C 
BRANCH  22  23
HETATM   23  C10 UNL     1      17.952  42.817  17.635  1.00  0.00     0.046 C 
BRANCH  23  24
HETATM   24  C11 UNL     1      18.636  41.476  17.398  1.00  0.00     0.231 C 
BRANCH  24  25
HETATM   25  N6  UNL     1      19.635  41.197  18.419  1.00  0.00    -0.079 N 
ATOM     26  H63 UNL     1      20.562  41.507  18.128  1.00  0.00     0.274 HD
ATOM     27  H62 UNL     1      19.514  41.800  19.234  1.00  0.00     0.274 HD
ATOM     28  H61 UNL     1      19.638  40.211  18.681  1.00  0.00     0.274 HD
ENDBRANCH  24  25
ENDBRANCH  23  24
ENDBRANCH  22  23
ENDBRANCH  20  22
ENDBRANCH   3  20
BRANCH   5  29
HETATM   29  N7  UNL     1      21.696  47.872  17.681  1.00  0.00    -0.066 N 
ATOM     30  H73 UNL     1      21.084  48.297  18.377  1.00  0.00     0.275 HD
ATOM     31  H72 UNL     1      22.378  48.622  17.572  1.00  0.00     0.275 HD
ATOM     32  H71 UNL     1      21.192  47.716  16.809  1.00  0.00     0.275 HD
ENDBRANCH   5  29
TORSDOF 12
ENDMDL
MODEL 3
REMARK VINA RESULT: -7.704166984      1.018      1.349
REMARK  12 active torsions:
REMARK  status: ('A' for Active; 'I' for Inactive)
REMARK       I    between atoms: C1_4  and  N3_6 
REMARK    1  A    between atoms: N3_6  and  C2_8 
REMARK    2  A    between atoms: C2_8  and  C3_9 
REMARK    3  A    between atoms: C3_9  and  C4_10 
REMARK    4  A    between atoms: C4_10  and  C5_11 
REMARK    5  A    between atoms: C5_11  and  C6_12 
REMARK    6  A    between atoms: C6_12  and  N4_13 
REMARK    7  A    between atoms: C8_15  and  N5_16 
REMARK    8  A    between atoms: N5_16  and  C9_18 
REMARK    9  A    between atoms: C9_18  and  C10_19 
REMARK   10  A    between atoms: C10_19  and  C11_20 
REMARK   11  A    between atoms: C11_20  and  N6_21 
REMARK   12  A    between atoms: C13_26  and  N7_27 
ROOT
HETATM    1  N4  UNL     1      22.727  45.188  16.369  1.00  0.00    -0.348 N 
HETATM    2  C7  UNL     1      22.858  44.542  17.622  1.00  0.00     0.150 C 
HETATM    3  C8  UNL     1      22.328  45.231  18.822  1.00  0.00     0.097 C 
HETATM    4  C12 UNL     1      21.976  46.661  18.715  1.00  0.00     0.069 C 
HETATM    5  C13 UNL     1      21.807  47.254  17.374  1.00  0.00     0.276 C 
HETATM    6  C14 UNL     1      22.502  46.567  16.289  1.00  0.00     0.250 C 
HETATM    7  O1  UNL     1      22.890  47.258  15.286  1.00  0.00    -0.271 OA
ENDROOT
BRANCH   1   8
HETATM    8  C6  UNL     1      22.829  44.416  15.141  1.00  0.00     0.126 C 
BRANCH   8   9
HETATM    9  C5  UNL     1      24.175  43.801  14.966  1.00  0.00     0.020 C 
BRANCH   9  10
HETATM   10  C4  UNL     1      24.983  44.601  13.986  1.00  0.00     0.003 C 
BRANCH  10  11
HETATM   11  C3  UNL     1      25.341  43.873  12.729  1.00  0.00     0.020 C 
BRANCH  11  12
HETATM   12  C2  UNL     1      24.992  44.705  11.501  1.00  0.00     0.122 C 
BRANCH  12  13
HETATM   13  N3  UNL     1      23.757  45.416  11.714  1.00  0.00    -0.365 N 
HETATM   14  C1  UNL     1      23.624  46.765  11.242  1.00  0.00     0.181 C 
HETATM   15  N1  UNL     1      23.196  46.970  10.051  1.00  0.00    -0.374 N 
HETATM   16  N2  UNL     1      23.958  47.854  12.074  1.00  0.00    -0.064 NA
ATOM     17  H12 UNL     1      23.101  47.928   9.715  1.00  0.00     0.158 HD
ATOM     18  H11 UNL     1      22.954  46.183   9.449  1.00  0.00     0.158 HD
ATOM     19  H3  UNL     1      22.981  44.963  12.198  1.00  0.00     0.162 HD
ENDBRANCH  12  13
ENDBRANCH  11  12
ENDBRANCH  10  11
ENDBRANCH   9  10
ENDBRANCH   8   9
ENDBRANCH   1   8
BRANCH   3  20
HETATM   20  N5  UNL     1      21.242  44.499  19.458  1.00  0.00    -0.415 N 
ATOM     21  H5  UNL     1      21.327  44.090  20.390  1.00  0.00     0.153 HD
BRANCH  20  22
HETATM   22  C9  UNL     1      20.052  44.396  18.683  1.00  0.00     0.115 C 
BRANCH  22  23
HETATM   23  C10 UNL     1      19.404  43.052  18.669  1.00  0.00     0.046 C 
BRANCH  23  24
HETATM   24  C11 UNL     1      17.968  43.176  18.174  1.00  0.00     0.231 C 
BRANCH  24  25
HETATM   25  N6  UNL     1      17.010  42.894  19.233  1.00  0.00    -0.079 N 
ATOM     26  H63 UNL     1      17.478  42.722  20.123  1.00  0.00     0.274 HD
ATOM     27  H62 UNL     1      16.482  43.729  19.490  1.00  0.00     0.274 HD
ATOM     28  H61 UNL     1      16.391  42.123  18.983  1.00  0.00     0.274 HD
ENDBRANCH  24  25
ENDBRANCH  23  24
ENDBRANCH  22  23
ENDBRANCH  20  22
ENDBRANCH   3  20
BRANCH   5  29
HETATM   29  N7  UNL     1      20.419  47.419  16.972  1.00  0.00    -0.066 N 
ATOM     30  H73 UNL     1      19.934  46.523  16.982  1.00  0.00     0.275 HD
ATOM     31  H72 UNL     1      19.892  47.908  17.695  1.00  0.00     0.275 HD
ATOM     32  H71 UNL     1      20.301  47.880  16.069  1.00  0.00     0.275 HD
ENDBRANCH   5  29
TORSDOF 12
ENDMDL
MODEL 4
REMARK VINA RESULT: -7.563854116      1.323      1.540
REMARK  12 active torsions:
REMARK  status: ('A' for Active; 'I' for Inactive)
REMARK       I    between atoms: C1_4  and  N3_6 
REMARK    1  A    between atoms: N3_6  and  C2_8 
REMARK    2  A    between atoms: C2_8  and  C3_9 
REMARK    3  A    between atoms: C3_9  and  C4_10 
REMARK    4  A    between atoms: C4_10  and  C5_11 
REMARK    5  A    between atoms: C5_11  and  C6_12 
REMARK    6  A    between atoms: C6_12  and  N4_13 
REMARK    7  A    between atoms: C8_15  and  N5_16 
REMARK    8  A    between atoms: N5_16  and  C9_18 
REMARK    9  A    between atoms: C9_18  and  C10_19 
REMARK   10  A    between atoms: C10_19  and  C11_20 
REMARK   11  A    between atoms: C11_20  and  N6_21 
REMARK   12  A    between atoms: C13_26  and  N7_27 
ROOT
HETATM    1  N4  UNL     1      22.325  45.045  16.423  1.00  0.00    -0.348 N 
HETATM    2  C7  UNL     1      21.463  44.165  17.119  1.00  0.00     0.150 C 
HETATM    3  C8  UNL     1      20.917  44.607  18.424  1.00  0.00     0.097 C 
HETATM    4  C12 UNL     1      21.523  45.784  19.078  1.00  0.00     0.069 C 
HETATM    5  C13 UNL     1      22.372  46.686  18.275  1.00  0.00     0.276 C 
HETATM    6  C14 UNL     1      22.977  46.090  17.086  1.00  0.00     0.250 C 
HETATM    7  O1  UNL     1      24.101  46.549  16.686  1.00  0.00    -0.271 OA
ENDROOT
BRANCH   1   8
HETATM    8  C6  UNL     1      22.546  44.867  14.997  1.00  0.00     0.126 C 
BRANCH   8   9
HETATM    9  C5  UNL     1      23.799  44.116  14.704  1.00  0.00     0.020 C 
BRANCH   9  10
HETATM   10  C4  UNL     1      24.397  44.596  13.413  1.00  0.00     0.003 C 
BRANCH  10  11
HETATM   11  C3  UNL     1      23.495  45.461  12.591  1.00  0.00     0.020 C 
BRANCH  11  12
HETATM   12  C2  UNL     1      24.275  46.166  11.488  1.00  0.00     0.122 C 
BRANCH  12  13
HETATM   13  N3  UNL     1      23.588  47.365  11.079  1.00  0.00    -0.365 N 
HETATM   14  C1  UNL     1      22.810  47.359   9.873  1.00  0.00     0.181 C 
HETATM   15  N1  UNL     1      21.574  47.022   9.928  1.00  0.00    -0.374 N 
HETATM   16  N2  UNL     1      23.393  47.721   8.639  1.00  0.00    -0.064 NA
ATOM     17  H12 UNL     1      21.021  47.018   9.071  1.00  0.00     0.158 HD
ATOM     18  H11 UNL     1      21.153  46.760  10.819  1.00  0.00     0.158 HD
ATOM     19  H3  UNL     1      23.655  48.212  11.643  1.00  0.00     0.162 HD
ENDBRANCH  12  13
ENDBRANCH  11  12
ENDBRANCH  10  11
ENDBRANCH   9  10
ENDBRANCH   8   9
ENDBRANCH   1   8
BRANCH   3  20
HETATM   20  N5  UNL     1      19.467  44.738  18.413  1.00  0.00    -0.415 N 
ATOM     21  H5  UNL     1      18.996  45.605  18.150  1.00  0.00     0.153 HD
BRANCH  20  22
HETATM   22  C9  UNL     1      18.755  43.567  18.796  1.00  0.00     0.115 C 
BRANCH  22  23
HETATM   23  C10 UNL     1      17.993  42.888  17.707  1.00  0.00     0.046 C 
BRANCH  23  24
HETATM   24  C11 UNL     1      18.563  41.495  17.468  1.00  0.00     0.231 C 
BRANCH  24  25
HETATM   25  N6  UNL     1      19.647  41.195  18.392  1.00  0.00    -0.079 N 
ATOM     26  H63 UNL     1      20.477  40.866  17.899  1.00  0.00     0.274 HD
ATOM     27  H62 UNL     1      20.034  42.045  18.803  1.00  0.00     0.274 HD
ATOM     28  H61 UNL     1      19.354  40.532  19.111  1.00  0.00     0.274 HD
ENDBRANCH  24  25
ENDBRANCH  23  24
ENDBRANCH  22  23
ENDBRANCH  20  22
ENDBRANCH   3  20
BRANCH   5  29
HETATM   29  N7  UNL     1      21.706  47.912  17.861  1.00  0.00    -0.066 N 
ATOM     30  H73 UNL     1      22.230  48.370  17.116  1.00  0.00     0.275 HD
ATOM     31  H72 UNL     1      20.844  47.699  17.360  1.00  0.00     0.275 HD
ATOM     32  H71 UNL     1      21.526  48.564  18.625  1.00  0.00     0.275 HD
ENDBRANCH   5  29
TORSDOF 12
ENDMDL
MODEL 5
REMARK VINA RESULT: -7.464011185      3.127      5.095
REMARK  12 active torsions:
REMARK  status: ('A' for Active; 'I' for Inactive)
REMARK       I    between atoms: C1_4  and  N3_6 
REMARK    1  A    between atoms: N3_6  and  C2_8 
REMARK    2  A    between atoms: C2_8  and  C3_9 
REMARK    3  A    between atoms: C3_9  and  C4_10 
REMARK    4  A    between atoms: C4_10  and  C5_11 
REMARK    5  A    between atoms: C5_11  and  C6_12 
REMARK    6  A    between atoms: C6_12  and  N4_13 
REMARK    7  A    between atoms: C8_15  and  N5_16 
REMARK    8  A    between atoms: N5_16  and  C9_18 
REMARK    9  A    between atoms: C9_18  and  C10_19 
REMARK   10  A    between atoms: C10_19  and  C11_20 
REMARK   11  A    between atoms: C11_20  and  N6_21 
REMARK   12  A    between atoms: C13_26  and  N7_27 
ROOT
HETATM    1  N4  UNL     1      22.821  45.239  16.338  1.00  0.00    -0.348 N 
HETATM    2  C7  UNL     1      23.009  44.613  17.593  1.00  0.00     0.150 C 
HETATM    3  C8  UNL     1      22.454  45.277  18.796  1.00  0.00     0.097 C 
HETATM    4  C12 UNL     1      22.014  46.682  18.685  1.00  0.00     0.069 C 
HETATM    5  C13 UNL     1      21.791  47.254  17.342  1.00  0.00     0.276 C 
HETATM    6  C14 UNL     1      22.511  46.601  16.252  1.00  0.00     0.250 C 
HETATM    7  O1  UNL     1      22.843  47.308  15.239  1.00  0.00    -0.271 OA
ENDROOT
BRANCH   1   8
HETATM    8  C6  UNL     1      22.953  44.466  15.114  1.00  0.00     0.126 C 
BRANCH   8   9
HETATM    9  C5  UNL     1      24.336  44.509  14.560  1.00  0.00     0.020 C 
BRANCH   9  10
HETATM   10  C4  UNL     1      25.090  43.275  14.962  1.00  0.00     0.003 C 
BRANCH  10  11
HETATM   11  C3  UNL     1      26.196  42.888  14.032  1.00  0.00     0.020 C 
BRANCH  11  12
HETATM   12  C2  UNL     1      27.115  41.859  14.679  1.00  0.00     0.122 C 
BRANCH  12  13
HETATM   13  N3  UNL     1      26.338  40.847  15.348  1.00  0.00    -0.365 N 
HETATM   14  C1  UNL     1      26.887  39.533  15.526  1.00  0.00     0.181 C 
HETATM   15  N1  UNL     1      27.577  39.281  16.577  1.00  0.00    -0.374 N 
HETATM   16  N2  UNL     1      26.673  38.527  14.559  1.00  0.00    -0.064 NA
ATOM     17  H12 UNL     1      27.967  38.348  16.703  1.00  0.00     0.158 HD
ATOM     18  H11 UNL     1      27.732  40.008  17.275  1.00  0.00     0.158 HD
ATOM     19  H3  UNL     1      25.402  41.063  15.692  1.00  0.00     0.162 HD
ENDBRANCH  12  13
ENDBRANCH  11  12
ENDBRANCH  10  11
ENDBRANCH   9  10
ENDBRANCH   8   9
ENDBRANCH   1   8
BRANCH   3  20
HETATM   20  N5  UNL     1      21.423  44.485  19.452  1.00  0.00    -0.415 N 
ATOM     21  H5  UNL     1      21.410  44.327  20.461  1.00  0.00     0.153 HD
BRANCH  20  22
HETATM   22  C9  UNL     1      20.434  43.946  18.582  1.00  0.00     0.115 C 
BRANCH  22  23
HETATM   23  C10 UNL     1      19.021  44.096  19.036  1.00  0.00     0.046 C 
BRANCH  23  24
HETATM   24  C11 UNL     1      18.188  42.926  18.528  1.00  0.00     0.231 C 
BRANCH  24  25
HETATM   25  N6  UNL     1      16.926  42.816  19.245  1.00  0.00    -0.079 N 
ATOM     26  H63 UNL     1      16.450  43.717  19.303  1.00  0.00     0.274 HD
ATOM     27  H62 UNL     1      16.231  42.305  18.701  1.00  0.00     0.274 HD
ATOM     28  H61 UNL     1      17.054  42.403  20.170  1.00  0.00     0.274 HD
ENDBRANCH  24  25
ENDBRANCH  23  24
ENDBRANCH  22  23
ENDBRANCH  20  22
ENDBRANCH   3  20
BRANCH   5  29
HETATM   29  N7  UNL     1      20.390  47.331  16.958  1.00  0.00    -0.066 N 
ATOM     30  H73 UNL     1      20.136  48.290  16.721  1.00  0.00     0.275 HD
ATOM     31  H72 UNL     1      20.241  46.886  16.053  1.00  0.00     0.275 HD
ATOM     32  H71 UNL     1      19.748  46.952  17.654  1.00  0.00     0.275 HD
ENDBRANCH   5  29
TORSDOF 12
ENDMDL
