MODEL 1
REMARK VINA RESULT: -6.326316769      0.000      0.000
REMARK  5 active torsions:
REMARK  status: ('A' for Active; 'I' for Inactive)
REMARK    1  A    between atoms: N1_2  and  C3_4 
REMARK    2  A    between atoms: N1_2  and  C4_6 
REMARK    3  A    between atoms: C5_8  and  O3_9 
REMARK    4  A    between atoms: C6_11  and  O4_12 
REMARK    5  A    between atoms: C7_14  and  O5_15 
ROOT
HETATM    1  C4  UNL     1      19.444  43.293  17.653  1.00  0.00     0.367 C 
HETATM    2  O2  UNL     1      20.723  42.947  17.294  1.00  0.00    -0.323 OA
HETATM    3  C5  UNL     1      21.502  44.063  17.476  1.00  0.00     0.291 C 
HETATM    4  C6  UNL     1      20.784  44.999  18.403  1.00  0.00     0.206 C 
HETATM    5  C7  UNL     1      19.675  44.071  18.927  1.00  0.00     0.209 C 
ENDROOT
BRANCH   1   6
HETATM    6  N1  UNL     1      18.510  42.253  17.738  1.00  0.00     0.008 N 
HETATM    7  C1  UNL     1      17.590  42.299  18.826  1.00  0.00     0.285 C 
HETATM    8  C2  UNL     1      17.744  42.202  16.490  1.00  0.00     0.285 C 
BRANCH   6   9
HETATM    9  C3  UNL     1      19.228  41.000  17.791  1.00  0.00     0.461 C 
HETATM   10  O1  UNL     1      19.628  40.598  18.879  1.00  0.00    -0.275 OA
ENDBRANCH   6   9
ENDBRANCH   1   6
BRANCH   5  11
HETATM   11  O5  UNL     1      20.280  43.288  19.911  1.00  0.00    -0.388 OA
ATOM     12  H5  UNL     1      21.002  42.780  19.563  1.00  0.00     0.210 HD
ENDBRANCH   5  11
BRANCH   3  13
HETATM   13  O3  UNL     1      21.821  44.703  16.279  1.00  0.00    -0.368 OA
ATOM     14  H3  UNL     1      22.085  45.607  16.402  1.00  0.00     0.212 HD
ENDBRANCH   3  13
BRANCH   4  15
HETATM   15  O4  UNL     1      21.557  45.504  19.408  1.00  0.00    -0.388 OA
ATOM     16  H4  UNL     1      21.328  46.386  19.677  1.00  0.00     0.210 HD
ENDBRANCH   4  15
TORSDOF 5
ENDMDL
MODEL 2
REMARK VINA RESULT: -6.323595895      2.947      4.840
REMARK  5 active torsions:
REMARK  status: ('A' for Active; 'I' for Inactive)
REMARK    1  A    between atoms: N1_2  and  C3_4 
REMARK    2  A    between atoms: N1_2  and  C4_6 
REMARK    3  A    between atoms: C5_8  and  O3_9 
REMARK    4  A    between atoms: C6_11  and  O4_12 
REMARK    5  A    between atoms: C7_14  and  O5_15 
ROOT
HETATM    1  C4  UNL     1      22.917  44.880  17.948  1.00  0.00     0.367 C 
HETATM    2  O2  UNL     1      21.997  43.864  17.864  1.00  0.00    -0.323 OA
HETATM    3  C5  UNL     1      20.865  44.299  18.510  1.00  0.00     0.291 C 
HETATM    4  C6  UNL     1      20.917  45.794  18.607  1.00  0.00     0.206 C 
HETATM    5  C7  UNL     1      22.073  46.095  17.637  1.00  0.00     0.209 C 
ENDROOT
BRANCH   1   6
HETATM    6  N1  UNL     1      24.083  44.740  17.184  1.00  0.00     0.008 N 
HETATM    7  C1  UNL     1      24.363  45.770  16.240  1.00  0.00     0.285 C 
HETATM    8  C2  UNL     1      25.229  44.620  18.089  1.00  0.00     0.285 C 
BRANCH   6   9
HETATM    9  C3  UNL     1      24.020  43.477  16.486  1.00  0.00     0.461 C 
HETATM   10  O1  UNL     1      24.773  42.574  16.834  1.00  0.00    -0.275 OA
ENDBRANCH   6   9
ENDBRANCH   1   6
BRANCH   5  11
HETATM   11  O5  UNL     1      21.514  46.026  16.361  1.00  0.00    -0.388 OA
ATOM     12  H5  UNL     1      22.095  45.598  15.744  1.00  0.00     0.210 HD
ENDBRANCH   5  11
BRANCH   3  13
HETATM   13  O3  UNL     1      20.711  43.727  19.772  1.00  0.00    -0.368 OA
ATOM     14  H3  UNL     1      21.372  43.073  19.964  1.00  0.00     0.212 HD
ENDBRANCH   3  13
BRANCH   4  15
HETATM   15  O4  UNL     1      19.761  46.425  18.248  1.00  0.00    -0.388 OA
ATOM     16  H4  UNL     1      19.159  45.889  17.746  1.00  0.00     0.210 HD
ENDBRANCH   4  15
TORSDOF 5
ENDMDL
MODEL 3
REMARK VINA RESULT: -6.070261055      2.247      4.342
REMARK  5 active torsions:
REMARK  status: ('A' for Active; 'I' for Inactive)
REMARK    1  A    between atoms: N1_2  and  C3_4 
REMARK    2  A    between atoms: N1_2  and  C4_6 
REMARK    3  A    between atoms: C5_8  and  O3_9 
REMARK    4  A    between atoms: C6_11  and  O4_12 
REMARK    5  A    between atoms: C7_14  and  O5_15 
ROOT
HETATM    1  C4  UNL     1      21.921  44.263  17.810  1.00  0.00     0.367 C 
HETATM    2  O2  UNL     1      20.765  43.685  17.346  1.00  0.00    -0.323 OA
HETATM    3  C5  UNL     1      19.889  43.643  18.403  1.00  0.00     0.291 C 
HETATM    4  C6  UNL     1      20.343  44.631  19.437  1.00  0.00     0.206 C 
HETATM    5  C7  UNL     1      21.389  45.417  18.628  1.00  0.00     0.209 C 
ENDROOT
BRANCH   1   6
HETATM    6  N1  UNL     1      22.890  44.592  16.854  1.00  0.00     0.008 N 
HETATM    7  C1  UNL     1      23.694  45.738  17.119  1.00  0.00     0.285 C 
HETATM    8  C2  UNL     1      23.776  43.442  16.663  1.00  0.00     0.285 C 
BRANCH   6   9
HETATM    9  C3  UNL     1      22.229  44.774  15.582  1.00  0.00     0.461 C 
HETATM   10  O1  UNL     1      22.123  45.911  15.132  1.00  0.00    -0.275 OA
ENDBRANCH   6   9
ENDBRANCH   1   6
BRANCH   5  11
HETATM   11  O5  UNL     1      20.657  46.313  17.847  1.00  0.00    -0.388 OA
ATOM     12  H5  UNL     1      20.665  47.189  18.213  1.00  0.00     0.210 HD
ENDBRANCH   5  11
BRANCH   3  13
HETATM   13  O3  UNL     1      19.770  42.369  18.957  1.00  0.00    -0.368 OA
ATOM     14  H3  UNL     1      18.931  41.964  18.772  1.00  0.00     0.212 HD
ENDBRANCH   3  13
BRANCH   4  15
HETATM   15  O4  UNL     1      19.354  45.434  19.926  1.00  0.00    -0.388 OA
ATOM     16  H4  UNL     1      18.910  45.091  20.692  1.00  0.00     0.210 HD
ENDBRANCH   4  15
TORSDOF 5
ENDMDL
MODEL 4
REMARK VINA RESULT: -6.009855221      3.489      5.171
REMARK  5 active torsions:
REMARK  status: ('A' for Active; 'I' for Inactive)
REMARK    1  A    between atoms: N1_2  and  C3_4 
REMARK    2  A    between atoms: N1_2  and  C4_6 
REMARK    3  A    between atoms: C5_8  and  O3_9 
REMARK    4  A    between atoms: C6_11  and  O4_12 
REMARK    5  A    between atoms: C7_14  and  O5_15 
ROOT
HETATM    1  C4  UNL     1      22.757  45.950  17.086  1.00  0.00     0.367 C 
HETATM    2  O2  UNL     1      23.413  46.205  18.264  1.00  0.00    -0.323 OA
HETATM    3  C5  UNL     1      22.460  46.585  19.177  1.00  0.00     0.291 C 
HETATM    4  C6  UNL     1      21.120  46.120  18.688  1.00  0.00     0.206 C 
HETATM    5  C7  UNL     1      21.554  45.167  17.560  1.00  0.00     0.209 C 
ENDROOT
BRANCH   1   6
HETATM    6  N1  UNL     1      23.504  45.353  16.063  1.00  0.00     0.008 N 
HETATM    7  C1  UNL     1      24.343  44.261  16.430  1.00  0.00     0.285 C 
HETATM    8  C2  UNL     1      22.590  44.898  15.013  1.00  0.00     0.285 C 
BRANCH   6   9
HETATM    9  C3  UNL     1      24.317  46.372  15.441  1.00  0.00     0.461 C 
HETATM   10  O1  UNL     1      23.771  47.395  15.039  1.00  0.00    -0.275 OA
ENDBRANCH   6   9
ENDBRANCH   1   6
BRANCH   5  11
HETATM   11  O5  UNL     1      21.924  43.982  18.197  1.00  0.00    -0.388 OA
ATOM     12  H5  UNL     1      21.168  43.486  18.487  1.00  0.00     0.210 HD
ENDBRANCH   5  11
BRANCH   3  13
HETATM   13  O3  UNL     1      22.450  47.960  19.408  1.00  0.00    -0.368 OA
ATOM     14  H3  UNL     1      21.682  48.248  19.886  1.00  0.00     0.212 HD
ENDBRANCH   3  13
BRANCH   4  15
HETATM   15  O4  UNL     1      20.359  45.494  19.632  1.00  0.00    -0.388 OA
ATOM     16  H4  UNL     1      20.540  44.567  19.733  1.00  0.00     0.210 HD
ENDBRANCH   4  15
TORSDOF 5
ENDMDL
MODEL 5
REMARK VINA RESULT: -5.976540441      2.289      4.097
REMARK  5 active torsions:
REMARK  status: ('A' for Active; 'I' for Inactive)
REMARK    1  A    between atoms: N1_2  and  C3_4 
REMARK    2  A    between atoms: N1_2  and  C4_6 
REMARK    3  A    between atoms: C5_8  and  O3_9 
REMARK    4  A    between atoms: C6_11  and  O4_12 
REMARK    5  A    between atoms: C7_14  and  O5_15 
ROOT
HETATM    1  C4  UNL     1      21.894  44.280  17.600  1.00  0.00     0.367 C 
HETATM    2  O2  UNL     1      20.717  43.695  17.204  1.00  0.00    -0.323 OA
HETATM    3  C5  UNL     1      19.918  43.614  18.318  1.00  0.00     0.291 C 
HETATM    4  C6  UNL     1      20.429  44.584  19.342  1.00  0.00     0.206 C 
HETATM    5  C7  UNL     1      21.403  45.407  18.481  1.00  0.00     0.209 C 
ENDROOT
BRANCH   1   6
HETATM    6  N1  UNL     1      22.789  44.648  16.587  1.00  0.00     0.008 N 
HETATM    7  C1  UNL     1      22.224  45.049  15.342  1.00  0.00     0.285 C 
HETATM    8  C2  UNL     1      23.638  45.736  17.079  1.00  0.00     0.285 C 
BRANCH   6   9
HETATM    9  C3  UNL     1      23.689  43.542  16.354  1.00  0.00     0.461 C 
HETATM   10  O1  UNL     1      23.744  42.643  17.187  1.00  0.00    -0.275 OA
ENDBRANCH   6   9
ENDBRANCH   1   6
BRANCH   5  11
HETATM   11  O5  UNL     1      20.606  46.308  17.775  1.00  0.00    -0.388 OA
ATOM     12  H5  UNL     1      20.441  46.013  16.887  1.00  0.00     0.210 HD
ENDBRANCH   5  11
BRANCH   3  13
HETATM   13  O3  UNL     1      19.857  42.325  18.847  1.00  0.00    -0.368 OA
ATOM     14  H3  UNL     1      19.413  42.293  19.687  1.00  0.00     0.212 HD
ENDBRANCH   3  13
BRANCH   4  15
HETATM   15  O4  UNL     1      19.464  45.360  19.917  1.00  0.00    -0.388 OA
ATOM     16  H4  UNL     1      19.663  46.288  19.934  1.00  0.00     0.210 HD
ENDBRANCH   4  15
TORSDOF 5
ENDMDL
