MODEL 1
REMARK VINA RESULT: -6.416629785      0.000      0.000
REMARK  5 active torsions:
REMARK  status: ('A' for Active; 'I' for Inactive)
REMARK    1  A    between atoms: O1_2  and  S1_3 
REMARK    2  A    between atoms: S1_3  and  N1_5 
REMARK    3  A    between atoms: S1_3  and  N3_10 
REMARK    4  A    between atoms: N1_5  and  N2_7 
REMARK    5  A    between atoms: N3_10  and  N4_12 
ROOT
HETATM    1  S1  UNL     1      19.172  42.250  18.689  1.00  0.00     0.268 S 
HETATM    2  O2  UNL     1      19.734  40.854  18.786  1.00  0.00    -0.195 OA
ENDROOT
BRANCH   1   3
HETATM    3  O1  UNL     1      20.220  43.328  19.424  1.00  0.00    -0.279 OA
HETATM    4  C1  UNL     1      20.065  44.623  18.953  1.00  0.00     0.225 C 
ENDBRANCH   1   3
BRANCH   1   5
HETATM    5  N1  UNL     1      17.870  42.202  19.593  1.00  0.00    -0.227 N 
ATOM      6  H1  UNL     1      17.408  43.043  19.939  1.00  0.00     0.200 HD
BRANCH   5   7
HETATM    7  N2  UNL     1      17.406  40.914  19.877  1.00  0.00    -0.335 N 
ATOM      8  H22 UNL     1      18.028  40.182  20.222  1.00  0.00     0.177 HD
ATOM      9  H21 UNL     1      16.409  40.775  19.712  1.00  0.00     0.177 HD
ENDBRANCH   5   7
ENDBRANCH   1   5
BRANCH   1  10
HETATM   10  N3  UNL     1      18.741  42.696  17.109  1.00  0.00    -0.201 N 
ATOM     11  H3  UNL     1      19.373  43.321  16.608  1.00  0.00     0.202 HD
BRANCH  10  12
HETATM   12  N4  UNL     1      17.593  42.275  16.442  1.00  0.00    -0.181 N 
HETATM   13  C2  UNL     1      17.358  41.986  15.162  1.00  0.00     0.153 A 
HETATM   14  C3  UNL     1      16.052  41.596  14.984  1.00  0.00     0.125 A 
HETATM   15  N5  UNL     1      15.503  41.656  16.201  1.00  0.00    -0.292 N 
HETATM   16  N6  UNL     1      16.439  42.064  17.070  1.00  0.00     0.000 NA
ATOM     17  H5  UNL     1      14.535  41.431  16.430  1.00  0.00     0.183 HD
ENDBRANCH  10  12
ENDBRANCH   1  10
TORSDOF 5
ENDMDL
MODEL 2
REMARK VINA RESULT: -6.043583963      2.309      4.504
REMARK  5 active torsions:
REMARK  status: ('A' for Active; 'I' for Inactive)
REMARK    1  A    between atoms: O1_2  and  S1_3 
REMARK    2  A    between atoms: S1_3  and  N1_5 
REMARK    3  A    between atoms: S1_3  and  N3_10 
REMARK    4  A    between atoms: N1_5  and  N2_7 
REMARK    5  A    between atoms: N3_10  and  N4_12 
ROOT
HETATM    1  S1  UNL     1      17.747  42.122  18.209  1.00  0.00     0.268 S 
HETATM    2  O2  UNL     1      16.946  41.109  18.987  1.00  0.00    -0.195 OA
ENDROOT
BRANCH   1   3
HETATM    3  O1  UNL     1      16.798  42.769  16.991  1.00  0.00    -0.279 OA
HETATM    4  C1  UNL     1      17.141  42.283  15.738  1.00  0.00     0.225 C 
ENDBRANCH   1   3
BRANCH   1   5
HETATM    5  N1  UNL     1      18.868  41.257  17.493  1.00  0.00    -0.227 N 
ATOM      6  H1  UNL     1      18.936  41.173  16.479  1.00  0.00     0.200 HD
BRANCH   5   7
HETATM    7  N2  UNL     1      19.755  40.619  18.365  1.00  0.00    -0.335 N 
ATOM      8  H22 UNL     1      20.071  41.060  19.230  1.00  0.00     0.177 HD
ATOM      9  H21 UNL     1      20.052  39.691  18.064  1.00  0.00     0.177 HD
ENDBRANCH   5   7
ENDBRANCH   1   5
BRANCH   1  10
HETATM   10  N3  UNL     1      18.485  43.296  19.187  1.00  0.00    -0.201 N 
ATOM     11  H3  UNL     1      18.027  43.528  20.069  1.00  0.00     0.202 HD
BRANCH  10  12
HETATM   12  N4  UNL     1      19.667  43.967  18.880  1.00  0.00    -0.181 N 
HETATM   13  C2  UNL     1      20.049  45.232  19.061  1.00  0.00     0.153 A 
HETATM   14  C3  UNL     1      21.330  45.422  18.601  1.00  0.00     0.125 A 
HETATM   15  N5  UNL     1      21.713  44.228  18.137  1.00  0.00    -0.292 N 
HETATM   16  N6  UNL     1      20.706  43.361  18.312  1.00  0.00     0.000 NA
ATOM     17  H5  UNL     1      22.618  44.014  17.719  1.00  0.00     0.183 HD
ENDBRANCH  10  12
ENDBRANCH   1  10
TORSDOF 5
ENDMDL
MODEL 3
REMARK VINA RESULT: -6.029686327      2.429      4.448
REMARK  5 active torsions:
REMARK  status: ('A' for Active; 'I' for Inactive)
REMARK    1  A    between atoms: O1_2  and  S1_3 
REMARK    2  A    between atoms: S1_3  and  N1_5 
REMARK    3  A    between atoms: S1_3  and  N3_10 
REMARK    4  A    between atoms: N1_5  and  N2_7 
REMARK    5  A    between atoms: N3_10  and  N4_12 
ROOT
HETATM    1  S1  UNL     1      17.347  41.935  17.210  1.00  0.00     0.268 S 
HETATM    2  O2  UNL     1      16.993  42.771  16.006  1.00  0.00    -0.195 OA
ENDROOT
BRANCH   1   3
HETATM    3  O1  UNL     1      16.533  40.474  17.135  1.00  0.00    -0.279 OA
HETATM    4  C1  UNL     1      15.445  40.517  16.277  1.00  0.00     0.225 C 
ENDBRANCH   1   3
BRANCH   1   5
HETATM    5  N1  UNL     1      16.722  42.734  18.429  1.00  0.00    -0.227 N 
ATOM      6  H1  UNL     1      16.300  43.657  18.326  1.00  0.00     0.200 HD
BRANCH   5   7
HETATM    7  N2  UNL     1      16.796  42.071  19.658  1.00  0.00    -0.335 N 
ATOM      8  H22 UNL     1      16.425  42.482  20.515  1.00  0.00     0.177 HD
ATOM      9  H21 UNL     1      17.246  41.156  19.620  1.00  0.00     0.177 HD
ENDBRANCH   5   7
ENDBRANCH   1   5
BRANCH   1  10
HETATM   10  N3  UNL     1      19.018  41.767  17.449  1.00  0.00    -0.201 N 
ATOM     11  H3  UNL     1      19.440  40.870  17.206  1.00  0.00     0.202 HD
BRANCH  10  12
HETATM   12  N4  UNL     1      19.861  42.758  17.949  1.00  0.00    -0.181 N 
HETATM   13  C2  UNL     1      20.754  43.553  17.359  1.00  0.00     0.153 A 
HETATM   14  C3  UNL     1      21.338  44.392  18.279  1.00  0.00     0.125 A 
HETATM   15  N5  UNL     1      20.766  44.079  19.446  1.00  0.00    -0.292 N 
HETATM   16  N6  UNL     1      19.878  43.097  19.235  1.00  0.00     0.000 NA
ATOM     17  H5  UNL     1      20.972  44.514  20.345  1.00  0.00     0.183 HD
ENDBRANCH  10  12
ENDBRANCH   1  10
TORSDOF 5
ENDMDL
MODEL 4
REMARK VINA RESULT: -6.023302023      2.382      3.149
REMARK  5 active torsions:
REMARK  status: ('A' for Active; 'I' for Inactive)
REMARK    1  A    between atoms: O1_2  and  S1_3 
REMARK    2  A    between atoms: S1_3  and  N1_5 
REMARK    3  A    between atoms: S1_3  and  N3_10 
REMARK    4  A    between atoms: N1_5  and  N2_7 
REMARK    5  A    between atoms: N3_10  and  N4_12 
ROOT
HETATM    1  S1  UNL     1      20.609  44.170  18.386  1.00  0.00     0.268 S 
HETATM    2  O2  UNL     1      20.801  43.686  19.801  1.00  0.00    -0.195 OA
ENDROOT
BRANCH   1   3
HETATM    3  O1  UNL     1      22.083  44.653  17.756  1.00  0.00    -0.279 OA
HETATM    4  C1  UNL     1      22.431  43.941  16.617  1.00  0.00     0.225 C 
ENDBRANCH   1   3
BRANCH   1   5
HETATM    5  N1  UNL     1      19.737  45.485  18.545  1.00  0.00    -0.227 N 
ATOM      6  H1  UNL     1      18.853  45.503  19.053  1.00  0.00     0.200 HD
BRANCH   5   7
HETATM    7  N2  UNL     1      20.279  46.620  17.932  1.00  0.00    -0.335 N 
ATOM      8  H22 UNL     1      20.057  46.868  16.967  1.00  0.00     0.177 HD
ATOM      9  H21 UNL     1      20.904  47.165  18.525  1.00  0.00     0.177 HD
ENDBRANCH   5   7
ENDBRANCH   1   5
BRANCH   1  10
HETATM   10  N3  UNL     1      19.782  43.065  17.400  1.00  0.00    -0.201 N 
ATOM     11  H3  UNL     1      20.308  42.620  16.648  1.00  0.00     0.202 HD
BRANCH  10  12
HETATM   12  N4  UNL     1      18.439  42.716  17.538  1.00  0.00    -0.181 N 
HETATM   13  C2  UNL     1      17.516  42.348  16.649  1.00  0.00     0.153 A 
HETATM   14  C3  UNL     1      16.319  42.088  17.273  1.00  0.00     0.125 A 
HETATM   15  N5  UNL     1      16.549  42.310  18.571  1.00  0.00    -0.292 N 
HETATM   16  N6  UNL     1      17.828  42.685  18.719  1.00  0.00     0.000 NA
ATOM     17  H5  UNL     1      15.866  42.211  19.323  1.00  0.00     0.183 HD
ENDBRANCH  10  12
ENDBRANCH   1  10
TORSDOF 5
ENDMDL
MODEL 5
REMARK VINA RESULT: -5.991998750      2.772      4.810
REMARK  5 active torsions:
REMARK  status: ('A' for Active; 'I' for Inactive)
REMARK    1  A    between atoms: O1_2  and  S1_3 
REMARK    2  A    between atoms: S1_3  and  N1_5 
REMARK    3  A    between atoms: S1_3  and  N3_10 
REMARK    4  A    between atoms: N1_5  and  N2_7 
REMARK    5  A    between atoms: N3_10  and  N4_12 
ROOT
HETATM    1  S1  UNL     1      18.758  42.425  18.456  1.00  0.00     0.268 S 
HETATM    2  O2  UNL     1      19.882  41.421  18.418  1.00  0.00    -0.195 OA
ENDROOT
BRANCH   1   3
HETATM    3  O1  UNL     1      17.363  41.683  19.005  1.00  0.00    -0.279 OA
HETATM    4  C1  UNL     1      17.622  40.491  19.666  1.00  0.00     0.225 C 
ENDBRANCH   1   3
BRANCH   1   5
HETATM    5  N1  UNL     1      18.508  42.778  16.930  1.00  0.00    -0.227 N 
ATOM      6  H1  UNL     1      19.257  42.798  16.239  1.00  0.00     0.200 HD
BRANCH   5   7
HETATM    7  N2  UNL     1      17.176  43.060  16.610  1.00  0.00    -0.335 N 
ATOM      8  H22 UNL     1      16.409  42.467  16.927  1.00  0.00     0.177 HD
ATOM      9  H21 UNL     1      17.045  43.898  16.043  1.00  0.00     0.177 HD
ENDBRANCH   5   7
ENDBRANCH   1   5
BRANCH   1  10
HETATM   10  N3  UNL     1      19.148  43.843  19.303  1.00  0.00    -0.201 N 
ATOM     11  H3  UNL     1      18.588  44.069  20.125  1.00  0.00     0.202 HD
BRANCH  10  12
HETATM   12  N4  UNL     1      20.174  44.724  18.964  1.00  0.00    -0.181 N 
HETATM   13  C2  UNL     1      21.430  44.520  18.564  1.00  0.00     0.153 A 
HETATM   14  C3  UNL     1      22.064  45.718  18.331  1.00  0.00     0.125 A 
HETATM   15  N5  UNL     1      21.149  46.654  18.602  1.00  0.00    -0.292 N 
HETATM   16  N6  UNL     1      20.016  46.044  18.979  1.00  0.00     0.000 NA
ATOM     17  H5  UNL     1      21.289  47.662  18.534  1.00  0.00     0.183 HD
ENDBRANCH  10  12
ENDBRANCH   1  10
TORSDOF 5
ENDMDL
