MODEL 1
REMARK VINA RESULT: -7.416754101      0.000      0.000
REMARK  6 active torsions:
REMARK  status: ('A' for Active; 'I' for Inactive)
REMARK    1  A    between atoms: O1_2  and  C2_3 
REMARK    2  A    between atoms: C3_7  and  C4_8 
REMARK    3  A    between atoms: C4_8  and  S1_9 
REMARK    4  A    between atoms: S1_9  and  N2_10 
REMARK    5  A    between atoms: C5_14  and  O3_15 
REMARK    6  A    between atoms: C6_17  and  O4_18 
ROOT
HETATM    1  C2  UNL     1      18.870  42.779  19.181  1.00  0.00     0.352 C 
HETATM    2  N1  UNL     1      18.329  43.337  17.980  1.00  0.00    -0.039 N 
ATOM      3  H11 UNL     1      19.051  43.700  17.357  1.00  0.00     0.281 HD
ATOM      4  H12 UNL     1      17.833  44.212  18.143  1.00  0.00     0.281 HD
HETATM    5  C3  UNL     1      17.509  42.349  17.352  1.00  0.00     0.233 C 
HETATM    6  C5  UNL     1      17.404  41.176  18.278  1.00  0.00     0.182 C 
HETATM    7  C6  UNL     1      18.670  41.263  19.091  1.00  0.00     0.205 C 
ENDROOT
BRANCH   5   8
HETATM    8  C4  UNL     1      18.010  41.915  15.996  1.00  0.00     0.167 C 
BRANCH   8   9
HETATM    9  S1  UNL     1      16.600  41.575  14.984  1.00  0.00     0.109 S 
HETATM   10  O2  UNL     1      16.230  42.807  13.940  1.00  0.00    -0.236 OA
BRANCH   9  11
HETATM   11  N2  UNL     1      15.263  40.993  15.865  1.00  0.00    -0.350 NA
ATOM     12  H22 UNL     1      15.133  39.983  15.800  1.00  0.00     0.166 HD
ATOM     13  H21 UNL     1      14.407  41.521  15.696  1.00  0.00     0.166 HD
ENDBRANCH   9  11
ENDBRANCH   8   9
ENDBRANCH   5   8
BRANCH   6  14
HETATM   14  O3  UNL     1      16.305  41.370  19.123  1.00  0.00    -0.391 OA
ATOM     15  H3  UNL     1      16.524  42.043  19.756  1.00  0.00     0.210 HD
ENDBRANCH   6  14
BRANCH   1  16
HETATM   16  O1  UNL     1      20.226  43.077  19.288  1.00  0.00    -0.362 OA
HETATM   17  C1  UNL     1      20.476  44.381  18.904  1.00  0.00     0.204 C 
ENDBRANCH   1  16
BRANCH   7  18
HETATM   18  O4  UNL     1      19.755  40.679  18.430  1.00  0.00    -0.389 OA
ATOM     19  H4  UNL     1      19.497  40.418  17.554  1.00  0.00     0.210 HD
ENDBRANCH   7  18
TORSDOF 6
ENDMDL
MODEL 2
REMARK VINA RESULT: -7.323152666      1.219      1.219
REMARK  6 active torsions:
REMARK  status: ('A' for Active; 'I' for Inactive)
REMARK    1  A    between atoms: O1_2  and  C2_3 
REMARK    2  A    between atoms: C3_7  and  C4_8 
REMARK    3  A    between atoms: C4_8  and  S1_9 
REMARK    4  A    between atoms: S1_9  and  N2_10 
REMARK    5  A    between atoms: C5_14  and  O3_15 
REMARK    6  A    between atoms: C6_17  and  O4_18 
ROOT
HETATM    1  C2  UNL     1      19.244  43.102  18.902  1.00  0.00     0.352 C 
HETATM    2  N1  UNL     1      18.512  43.510  17.744  1.00  0.00    -0.039 N 
ATOM      3  H11 UNL     1      19.116  43.692  16.942  1.00  0.00     0.281 HD
ATOM      4  H12 UNL     1      18.120  44.446  17.838  1.00  0.00     0.281 HD
HETATM    5  C3  UNL     1      17.516  42.523  17.467  1.00  0.00     0.233 C 
HETATM    6  C5  UNL     1      17.520  41.531  18.591  1.00  0.00     0.182 C 
HETATM    7  C6  UNL     1      18.928  41.619  19.123  1.00  0.00     0.205 C 
ENDROOT
BRANCH   5   8
HETATM    8  C4  UNL     1      17.702  41.826  16.141  1.00  0.00     0.167 C 
BRANCH   8   9
HETATM    9  S1  UNL     1      16.131  41.784  15.330  1.00  0.00     0.109 S 
HETATM   10  O2  UNL     1      15.430  40.282  15.337  1.00  0.00    -0.236 OA
BRANCH   9  11
HETATM   11  N2  UNL     1      16.143  42.532  13.799  1.00  0.00    -0.350 NA
ATOM     12  H22 UNL     1      15.907  43.524  13.822  1.00  0.00     0.166 HD
ATOM     13  H21 UNL     1      15.625  42.011  13.091  1.00  0.00     0.166 HD
ENDBRANCH   9  11
ENDBRANCH   8   9
ENDBRANCH   5   8
BRANCH   6  14
HETATM   14  O3  UNL     1      16.631  41.971  19.578  1.00  0.00    -0.391 OA
ATOM     15  H3  UNL     1      17.088  41.991  20.411  1.00  0.00     0.210 HD
ENDBRANCH   6  14
BRANCH   1  16
HETATM   16  O1  UNL     1      20.612  43.273  18.699  1.00  0.00    -0.362 OA
HETATM   17  C1  UNL     1      20.969  44.600  18.843  1.00  0.00     0.204 C 
ENDBRANCH   1  16
BRANCH   7  18
HETATM   18  O4  UNL     1      19.814  40.828  18.386  1.00  0.00    -0.389 OA
ATOM     19  H4  UNL     1      19.519  40.765  17.485  1.00  0.00     0.210 HD
ENDBRANCH   7  18
TORSDOF 6
ENDMDL
MODEL 3
REMARK VINA RESULT: -7.088597559      2.582      4.762
REMARK  6 active torsions:
REMARK  status: ('A' for Active; 'I' for Inactive)
REMARK    1  A    between atoms: O1_2  and  C2_3 
REMARK    2  A    between atoms: C3_7  and  C4_8 
REMARK    3  A    between atoms: C4_8  and  S1_9 
REMARK    4  A    between atoms: S1_9  and  N2_10 
REMARK    5  A    between atoms: C5_14  and  O3_15 
REMARK    6  A    between atoms: C6_17  and  O4_18 
ROOT
HETATM    1  C2  UNL     1      17.712  41.858  17.054  1.00  0.00     0.352 C 
HETATM    2  N1  UNL     1      18.747  42.836  16.935  1.00  0.00    -0.039 N 
ATOM      3  H11 UNL     1      18.383  43.771  16.750  1.00  0.00     0.281 HD
ATOM      4  H12 UNL     1      19.292  42.728  16.080  1.00  0.00     0.281 HD
HETATM    5  C3  UNL     1      19.555  42.785  18.112  1.00  0.00     0.233 C 
HETATM    6  C5  UNL     1      19.102  41.618  18.936  1.00  0.00     0.182 C 
HETATM    7  C6  UNL     1      17.661  41.447  18.529  1.00  0.00     0.205 C 
ENDROOT
BRANCH   5   8
HETATM    8  C4  UNL     1      19.525  44.056  18.927  1.00  0.00     0.167 C 
BRANCH   8   9
HETATM    9  S1  UNL     1      20.884  45.061  18.408  1.00  0.00     0.109 S 
HETATM   10  O2  UNL     1      22.292  44.209  18.212  1.00  0.00    -0.236 OA
BRANCH   9  11
HETATM   11  N2  UNL     1      21.061  46.482  19.331  1.00  0.00    -0.350 NA
ATOM     12  H22 UNL     1      21.735  47.144  18.944  1.00  0.00     0.166 HD
ATOM     13  H21 UNL     1      21.196  46.304  20.326  1.00  0.00     0.166 HD
ENDBRANCH   9  11
ENDBRANCH   8   9
ENDBRANCH   5   8
BRANCH   6  14
HETATM   14  O3  UNL     1      19.825  40.486  18.542  1.00  0.00    -0.391 OA
ATOM     15  H3  UNL     1      20.106  40.019  19.321  1.00  0.00     0.210 HD
ENDBRANCH   6  14
BRANCH   1  16
HETATM   16  O1  UNL     1      16.486  42.395  16.665  1.00  0.00    -0.362 OA
HETATM   17  C1  UNL     1      15.787  41.505  15.872  1.00  0.00     0.204 C 
ENDBRANCH   1  16
BRANCH   7  18
HETATM   18  O4  UNL     1      16.815  42.307  19.234  1.00  0.00    -0.389 OA
ATOM     19  H4  UNL     1      16.237  42.759  18.630  1.00  0.00     0.210 HD
ENDBRANCH   7  18
TORSDOF 6
ENDMDL
MODEL 4
REMARK VINA RESULT: -6.699406165      1.797      2.961
REMARK  6 active torsions:
REMARK  status: ('A' for Active; 'I' for Inactive)
REMARK    1  A    between atoms: O1_2  and  C2_3 
REMARK    2  A    between atoms: C3_7  and  C4_8 
REMARK    3  A    between atoms: C4_8  and  S1_9 
REMARK    4  A    between atoms: S1_9  and  N2_10 
REMARK    5  A    between atoms: C5_14  and  O3_15 
REMARK    6  A    between atoms: C6_17  and  O4_18 
ROOT
HETATM    1  C2  UNL     1      18.405  40.800  18.817  1.00  0.00     0.352 C 
HETATM    2  N1  UNL     1      18.113  40.631  17.427  1.00  0.00    -0.039 N 
ATOM      3  H11 UNL     1      17.176  40.261  17.265  1.00  0.00     0.281 HD
ATOM      4  H12 UNL     1      18.639  39.866  17.007  1.00  0.00     0.281 HD
HETATM    5  C3  UNL     1      18.333  41.877  16.764  1.00  0.00     0.233 C 
HETATM    6  C5  UNL     1      18.940  42.828  17.751  1.00  0.00     0.182 C 
HETATM    7  C6  UNL     1      18.446  42.309  19.077  1.00  0.00     0.205 C 
ENDROOT
BRANCH   5   8
HETATM    8  C4  UNL     1      17.087  42.469  16.151  1.00  0.00     0.167 C 
BRANCH   8   9
HETATM    9  S1  UNL     1      15.765  41.322  16.406  1.00  0.00     0.109 S 
HETATM   10  O2  UNL     1      14.645  41.331  15.185  1.00  0.00    -0.236 OA
BRANCH   9  11
HETATM   11  N2  UNL     1      15.085  41.414  17.966  1.00  0.00    -0.350 NA
ATOM     12  H22 UNL     1      15.767  41.590  18.704  1.00  0.00     0.166 HD
ATOM     13  H21 UNL     1      14.452  40.642  18.176  1.00  0.00     0.166 HD
ENDBRANCH   9  11
ENDBRANCH   8   9
ENDBRANCH   5   8
BRANCH   6  14
HETATM   14  O3  UNL     1      20.332  42.698  17.700  1.00  0.00    -0.391 OA
ATOM     15  H3  UNL     1      20.724  43.514  17.990  1.00  0.00     0.210 HD
ENDBRANCH   6  14
BRANCH   1  16
HETATM   16  O1  UNL     1      17.415  40.207  19.598  1.00  0.00    -0.362 OA
HETATM   17  C1  UNL     1      17.929  39.789  20.811  1.00  0.00     0.204 C 
ENDBRANCH   1  16
BRANCH   7  18
HETATM   18  O4  UNL     1      17.163  42.776  19.375  1.00  0.00    -0.389 OA
ATOM     19  H4  UNL     1      16.546  42.054  19.367  1.00  0.00     0.210 HD
ENDBRANCH   7  18
TORSDOF 6
ENDMDL
MODEL 5
REMARK VINA RESULT: -6.551288671      2.348      4.323
REMARK  6 active torsions:
REMARK  status: ('A' for Active; 'I' for Inactive)
REMARK    1  A    between atoms: O1_2  and  C2_3 
REMARK    2  A    between atoms: C3_7  and  C4_8 
REMARK    3  A    between atoms: C4_8  and  S1_9 
REMARK    4  A    between atoms: S1_9  and  N2_10 
REMARK    5  A    between atoms: C5_14  and  O3_15 
REMARK    6  A    between atoms: C6_17  and  O4_18 
ROOT
HETATM    1  C2  UNL     1      17.609  41.592  16.678  1.00  0.00     0.352 C 
HETATM    2  N1  UNL     1      18.922  41.866  17.175  1.00  0.00    -0.039 N 
ATOM      3  H11 UNL     1      19.258  42.791  16.903  1.00  0.00     0.281 HD
ATOM      4  H12 UNL     1      19.641  41.314  16.709  1.00  0.00     0.281 HD
HETATM    5  C3  UNL     1      18.917  41.678  18.591  1.00  0.00     0.233 C 
HETATM    6  C5  UNL     1      17.586  41.109  18.980  1.00  0.00     0.182 C 
HETATM    7  C6  UNL     1      16.670  41.598  17.888  1.00  0.00     0.205 C 
ENDROOT
BRANCH   5   8
HETATM    8  C4  UNL     1      19.207  42.936  19.373  1.00  0.00     0.167 C 
BRANCH   8   9
HETATM    9  S1  UNL     1      19.970  44.092  18.272  1.00  0.00     0.109 S 
HETATM   10  O2  UNL     1      21.536  43.704  17.896  1.00  0.00    -0.236 OA
BRANCH   9  11
HETATM   11  N2  UNL     1      19.755  45.715  18.743  1.00  0.00    -0.350 NA
ATOM     12  H22 UNL     1      20.602  46.155  19.104  1.00  0.00     0.166 HD
ATOM     13  H21 UNL     1      18.941  45.857  19.341  1.00  0.00     0.166 HD
ENDBRANCH   9  11
ENDBRANCH   8   9
ENDBRANCH   5   8
BRANCH   6  14
HETATM   14  O3  UNL     1      17.663  39.713  18.921  1.00  0.00    -0.391 OA
ATOM     15  H3  UNL     1      17.362  39.428  18.066  1.00  0.00     0.210 HD
ENDBRANCH   6  14
BRANCH   1  16
HETATM   16  O1  UNL     1      17.219  42.570  15.765  1.00  0.00    -0.362 OA
HETATM   17  C1  UNL     1      16.510  42.012  14.719  1.00  0.00     0.204 C 
ENDBRANCH   1  16
BRANCH   7  18
HETATM   18  O4  UNL     1      16.216  42.897  18.131  1.00  0.00    -0.389 OA
ATOM     19  H4  UNL     1      16.919  43.519  17.983  1.00  0.00     0.210 HD
ENDBRANCH   7  18
TORSDOF 6
ENDMDL
