MODEL 1
REMARK VINA RESULT: -9.323974069      0.000      0.000
REMARK  10 active torsions:
REMARK  status: ('A' for Active; 'I' for Inactive)
REMARK    1  A    between atoms: C2_2  and  C5_5 
REMARK    2  A    between atoms: N1_8  and  C8_9 
REMARK    3  A    between atoms: C8_9  and  C9_10 
REMARK    4  A    between atoms: C9_10  and  C10_11 
REMARK    5  A    between atoms: C10_11  and  C11_12 
REMARK    6  A    between atoms: C11_12  and  O1_13 
REMARK    7  A    between atoms: O1_13  and  C12_14 
REMARK    8  A    between atoms: N3_21  and  C16_23 
REMARK    9  A    between atoms: C16_23  and  C17_24 
REMARK   10  A    between atoms: C17_24  and  C18_25 
ROOT
HETATM    1  C12 UNL     1      47.074  27.470  32.715  1.00  0.00     0.160 A 
HETATM    2  C13 UNL     1      46.230  28.617  32.766  1.00  0.00     0.099 A 
HETATM    3  C14 UNL     1      46.678  29.777  33.288  1.00  0.00     0.123 A 
HETATM    4 CL1  UNL     1      45.671  31.224  33.357  1.00  0.00    -0.064 Cl
HETATM    5  N2  UNL     1      47.939  29.800  33.757  1.00  0.00    -0.181 N 
ATOM      6  H2  UNL     1      48.287  30.673  34.152  1.00  0.00     0.185 HD
HETATM    7  C15 UNL     1      48.767  28.741  33.734  1.00  0.00     0.681 A 
HETATM    8  N3  UNL     1      49.897  28.759  34.294  1.00  0.00    -0.226 N 
ATOM      9  H3  UNL     1      50.416  27.887  34.191  1.00  0.00     0.177 HD
HETATM   10  N4  UNL     1      48.308  27.571  33.198  1.00  0.00    -0.171 N 
ATOM     11  H4  UNL     1      48.925  26.759  33.167  1.00  0.00     0.186 HD
ENDROOT
BRANCH   1  12
HETATM   12  O1  UNL     1      46.516  26.388  32.188  1.00  0.00    -0.335 OA
BRANCH  12  13
HETATM   13  C11 UNL     1      46.401  25.060  32.243  1.00  0.00     0.177 C 
BRANCH  13  14
HETATM   14  C10 UNL     1      46.878  24.466  30.904  1.00  0.00     0.028 C 
BRANCH  14  15
HETATM   15  C9  UNL     1      48.240  24.980  30.578  1.00  0.00     0.024 C 
BRANCH  15  16
HETATM   16  C8  UNL     1      48.293  25.979  29.478  1.00  0.00     0.148 C 
BRANCH  16  17
HETATM   17  N1  UNL     1      47.119  26.107  28.637  1.00  0.00    -0.303 N 
HETATM   18  C7  UNL     1      47.055  25.700  27.333  1.00  0.00     0.112 A 
HETATM   19  C6  UNL     1      45.812  25.970  26.841  1.00  0.00     0.046 A 
HETATM   20  C5  UNL     1      45.114  26.558  27.896  1.00  0.00     0.035 A 
HETATM   21  N5  UNL     1      45.956  26.610  28.940  1.00  0.00    -0.302 N 
ATOM     22  H5  UNL     1      45.715  26.994  29.854  1.00  0.00     0.186 HD
BRANCH  20  23
HETATM   23  C2  UNL     1      43.685  27.000  27.814  1.00  0.00    -0.007 C 
HETATM   24  C1  UNL     1      43.632  28.396  27.273  1.00  0.00     0.021 C 
HETATM   25  C3  UNL     1      42.932  26.083  26.858  1.00  0.00     0.021 C 
HETATM   26  C4  UNL     1      43.010  26.954  29.159  1.00  0.00     0.021 C 
ENDBRANCH  20  23
ENDBRANCH  16  17
ENDBRANCH  15  16
ENDBRANCH  14  15
ENDBRANCH  13  14
ENDBRANCH  12  13
ENDBRANCH   1  12
BRANCH   8  27
HETATM   27  C16 UNL     1      50.593  29.751  35.041  1.00  0.00     0.138 C 
BRANCH  27  28
HETATM   28  C17 UNL     1      50.751  29.362  36.471  1.00  0.00     0.025 C 
BRANCH  28  29
HETATM   29  C18 UNL     1      50.566  30.359  37.536  1.00  0.00    -0.013 C 
HETATM   30  C19 UNL     1      49.337  31.246  37.430  1.00  0.00     0.005 C 
HETATM   31  C20 UNL     1      49.743  32.507  38.239  1.00  0.00     0.000 C 
HETATM   32  C21 UNL     1      50.078  32.104  39.637  1.00  0.00     0.000 C 
HETATM   33  C22 UNL     1      49.801  30.647  39.896  1.00  0.00     0.000 C 
HETATM   34  C23 UNL     1      50.566  29.731  38.929  1.00  0.00     0.005 C 
ENDBRANCH  28  29
ENDBRANCH  27  28
ENDBRANCH   8  27
TORSDOF 10
ENDMDL
MODEL 2
REMARK VINA RESULT: -9.150196620      0.680      1.007
REMARK  10 active torsions:
REMARK  status: ('A' for Active; 'I' for Inactive)
REMARK    1  A    between atoms: C2_2  and  C5_5 
REMARK    2  A    between atoms: N1_8  and  C8_9 
REMARK    3  A    between atoms: C8_9  and  C9_10 
REMARK    4  A    between atoms: C9_10  and  C10_11 
REMARK    5  A    between atoms: C10_11  and  C11_12 
REMARK    6  A    between atoms: C11_12  and  O1_13 
REMARK    7  A    between atoms: O1_13  and  C12_14 
REMARK    8  A    between atoms: N3_21  and  C16_23 
REMARK    9  A    between atoms: C16_23  and  C17_24 
REMARK   10  A    between atoms: C17_24  and  C18_25 
ROOT
HETATM    1  C12 UNL     1      47.052  27.525  32.811  1.00  0.00     0.160 A 
HETATM    2  C13 UNL     1      46.166  28.639  32.742  1.00  0.00     0.099 A 
HETATM    3  C14 UNL     1      46.549  29.852  33.190  1.00  0.00     0.123 A 
HETATM    4 CL1  UNL     1      45.488  31.258  33.109  1.00  0.00    -0.064 Cl
HETATM    5  N2  UNL     1      47.788  29.960  33.704  1.00  0.00    -0.181 N 
ATOM      6  H2  UNL     1      48.088  30.873  34.044  1.00  0.00     0.185 HD
HETATM    7  C15 UNL     1      48.654  28.936  33.794  1.00  0.00     0.681 A 
HETATM    8  N3  UNL     1      49.759  29.040  34.394  1.00  0.00    -0.226 N 
ATOM      9  H3  UNL     1      50.313  28.184  34.378  1.00  0.00     0.177 HD
HETATM   10  N4  UNL     1      48.261  27.711  33.332  1.00  0.00    -0.171 N 
ATOM     11  H4  UNL     1      48.908  26.924  33.387  1.00  0.00     0.186 HD
ENDROOT
BRANCH   1  12
HETATM   12  O1  UNL     1      46.557  26.386  32.347  1.00  0.00    -0.335 OA
BRANCH  12  13
HETATM   13  C11 UNL     1      46.586  25.053  32.415  1.00  0.00     0.177 C 
BRANCH  13  14
HETATM   14  C10 UNL     1      46.988  24.497  31.037  1.00  0.00     0.028 C 
BRANCH  14  15
HETATM   15  C9  UNL     1      48.331  25.021  30.650  1.00  0.00     0.024 C 
BRANCH  15  16
HETATM   16  C8  UNL     1      48.325  26.031  29.559  1.00  0.00     0.148 C 
BRANCH  16  17
HETATM   17  N1  UNL     1      47.135  26.117  28.737  1.00  0.00    -0.303 N 
HETATM   18  C7  UNL     1      47.050  25.660  27.450  1.00  0.00     0.112 A 
HETATM   19  C6  UNL     1      45.796  25.901  26.972  1.00  0.00     0.046 A 
HETATM   20  C5  UNL     1      45.112  26.522  28.017  1.00  0.00     0.035 A 
HETATM   21  N5  UNL     1      45.972  26.621  29.042  1.00  0.00    -0.302 N 
ATOM     22  H5  UNL     1      45.745  27.037  29.945  1.00  0.00     0.186 HD
BRANCH  20  23
HETATM   23  C2  UNL     1      43.677  26.948  27.945  1.00  0.00    -0.007 C 
HETATM   24  C1  UNL     1      43.599  28.312  27.330  1.00  0.00     0.021 C 
HETATM   25  C3  UNL     1      42.911  25.975  27.060  1.00  0.00     0.021 C 
HETATM   26  C4  UNL     1      43.035  26.971  29.307  1.00  0.00     0.021 C 
ENDBRANCH  20  23
ENDBRANCH  16  17
ENDBRANCH  15  16
ENDBRANCH  14  15
ENDBRANCH  13  14
ENDBRANCH  12  13
ENDBRANCH   1  12
BRANCH   8  27
HETATM   27  C16 UNL     1      50.387  30.112  35.089  1.00  0.00     0.138 C 
BRANCH  27  28
HETATM   28  C17 UNL     1      49.706  30.414  36.379  1.00  0.00     0.025 C 
BRANCH  28  29
HETATM   29  C18 UNL     1      50.438  30.297  37.650  1.00  0.00    -0.013 C 
HETATM   30  C19 UNL     1      49.613  30.398  38.921  1.00  0.00     0.005 C 
HETATM   31  C20 UNL     1      50.649  30.869  39.977  1.00  0.00     0.000 C 
HETATM   32  C21 UNL     1      51.756  29.872  40.054  1.00  0.00     0.000 C 
HETATM   33  C22 UNL     1      51.492  28.654  39.208  1.00  0.00     0.000 C 
HETATM   34  C23 UNL     1      51.262  29.013  37.733  1.00  0.00     0.005 C 
ENDBRANCH  28  29
ENDBRANCH  27  28
ENDBRANCH   8  27
TORSDOF 10
ENDMDL
MODEL 3
REMARK VINA RESULT: -9.043048591      1.976      9.819
REMARK  10 active torsions:
REMARK  status: ('A' for Active; 'I' for Inactive)
REMARK    1  A    between atoms: C2_2  and  C5_5 
REMARK    2  A    between atoms: N1_8  and  C8_9 
REMARK    3  A    between atoms: C8_9  and  C9_10 
REMARK    4  A    between atoms: C9_10  and  C10_11 
REMARK    5  A    between atoms: C10_11  and  C11_12 
REMARK    6  A    between atoms: C11_12  and  O1_13 
REMARK    7  A    between atoms: O1_13  and  C12_14 
REMARK    8  A    between atoms: N3_21  and  C16_23 
REMARK    9  A    between atoms: C16_23  and  C17_24 
REMARK   10  A    between atoms: C17_24  and  C18_25 
ROOT
HETATM    1  C12 UNL     1      48.846  26.858  32.729  1.00  0.00     0.160 A 
HETATM    2  C13 UNL     1      48.308  28.041  33.314  1.00  0.00     0.099 A 
HETATM    3  C14 UNL     1      47.006  28.355  33.157  1.00  0.00     0.123 A 
HETATM    4 CL1  UNL     1      46.298  29.802  33.877  1.00  0.00    -0.064 Cl
HETATM    5  N2  UNL     1      46.249  27.515  32.427  1.00  0.00    -0.181 N 
ATOM      6  H2  UNL     1      45.263  27.744  32.304  1.00  0.00     0.185 HD
HETATM    7  C15 UNL     1      46.715  26.393  31.852  1.00  0.00     0.681 A 
HETATM    8  N3  UNL     1      46.012  25.695  31.072  1.00  0.00    -0.226 N 
ATOM      9  H3  UNL     1      46.496  24.870  30.716  1.00  0.00     0.177 HD
HETATM   10  N4  UNL     1      48.034  26.077  32.022  1.00  0.00    -0.171 N 
ATOM     11  H4  UNL     1      48.404  25.226  31.598  1.00  0.00     0.186 HD
ENDROOT
BRANCH   1  12
HETATM   12  O1  UNL     1      50.139  26.664  32.948  1.00  0.00    -0.335 OA
BRANCH  12  13
HETATM   13  C11 UNL     1      51.339  26.460  32.400  1.00  0.00     0.177 C 
BRANCH  13  14
HETATM   14  C10 UNL     1      52.415  26.640  33.486  1.00  0.00     0.028 C 
BRANCH  14  15
HETATM   15  C9  UNL     1      52.344  28.021  34.047  1.00  0.00     0.024 C 
BRANCH  15  16
HETATM   16  C8  UNL     1      52.090  28.097  35.510  1.00  0.00     0.148 C 
BRANCH  16  17
HETATM   17  N1  UNL     1      51.185  29.129  35.977  1.00  0.00    -0.303 N 
HETATM   18  C7  UNL     1      50.400  29.895  35.160  1.00  0.00     0.112 A 
HETATM   19  C6  UNL     1      49.678  30.765  35.922  1.00  0.00     0.046 A 
HETATM   20  C5  UNL     1      50.049  30.501  37.240  1.00  0.00     0.035 A 
HETATM   21  N5  UNL     1      50.954  29.512  37.201  1.00  0.00    -0.302 N 
ATOM     22  H5  UNL     1      51.404  29.111  38.024  1.00  0.00     0.186 HD
BRANCH  20  23
HETATM   23  C2  UNL     1      49.481  31.213  38.431  1.00  0.00    -0.007 C 
HETATM   24  C1  UNL     1      50.456  32.251  38.895  1.00  0.00     0.021 C 
HETATM   25  C3  UNL     1      48.190  31.912  38.026  1.00  0.00     0.021 C 
HETATM   26  C4  UNL     1      49.181  30.261  39.557  1.00  0.00     0.021 C 
ENDBRANCH  20  23
ENDBRANCH  16  17
ENDBRANCH  15  16
ENDBRANCH  14  15
ENDBRANCH  13  14
ENDBRANCH  12  13
ENDBRANCH   1  12
BRANCH   8  27
HETATM   27  C16 UNL     1      44.680  25.825  30.589  1.00  0.00     0.138 C 
BRANCH  27  28
HETATM   28  C17 UNL     1      44.607  26.706  29.390  1.00  0.00     0.025 C 
BRANCH  28  29
HETATM   29  C18 UNL     1      44.371  26.129  28.058  1.00  0.00    -0.013 C 
HETATM   30  C19 UNL     1      43.115  26.581  27.333  1.00  0.00     0.005 C 
HETATM   31  C20 UNL     1      42.829  25.408  26.358  1.00  0.00     0.000 C 
HETATM   32  C21 UNL     1      44.007  25.218  25.462  1.00  0.00     0.000 C 
HETATM   33  C22 UNL     1      45.056  26.281  25.661  1.00  0.00     0.000 C 
HETATM   34  C23 UNL     1      45.553  26.339  27.113  1.00  0.00     0.005 C 
ENDBRANCH  28  29
ENDBRANCH  27  28
ENDBRANCH   8  27
TORSDOF 10
ENDMDL
MODEL 4
REMARK VINA RESULT: -8.999605991      1.915      9.857
REMARK  10 active torsions:
REMARK  status: ('A' for Active; 'I' for Inactive)
REMARK    1  A    between atoms: C2_2  and  C5_5 
REMARK    2  A    between atoms: N1_8  and  C8_9 
REMARK    3  A    between atoms: C8_9  and  C9_10 
REMARK    4  A    between atoms: C9_10  and  C10_11 
REMARK    5  A    between atoms: C10_11  and  C11_12 
REMARK    6  A    between atoms: C11_12  and  O1_13 
REMARK    7  A    between atoms: O1_13  and  C12_14 
REMARK    8  A    between atoms: N3_21  and  C16_23 
REMARK    9  A    between atoms: C16_23  and  C17_24 
REMARK   10  A    between atoms: C17_24  and  C18_25 
ROOT
HETATM    1  C12 UNL     1      48.676  26.868  32.604  1.00  0.00     0.160 A 
HETATM    2  C13 UNL     1      48.174  28.009  33.294  1.00  0.00     0.099 A 
HETATM    3  C14 UNL     1      46.894  28.401  33.134  1.00  0.00     0.123 A 
HETATM    4 CL1  UNL     1      46.231  29.799  33.981  1.00  0.00    -0.064 Cl
HETATM    5  N2  UNL     1      46.124  27.679  32.300  1.00  0.00    -0.181 N 
ATOM      6  H2  UNL     1      45.154  27.967  32.174  1.00  0.00     0.185 HD
HETATM    7  C15 UNL     1      46.557  26.600  31.625  1.00  0.00     0.681 A 
HETATM    8  N3  UNL     1      45.848  26.022  30.757  1.00  0.00    -0.226 N 
ATOM      9  H3  UNL     1      46.305  25.215  30.330  1.00  0.00     0.177 HD
HETATM   10  N4  UNL     1      47.854  26.205  31.797  1.00  0.00    -0.171 N 
ATOM     11  H4  UNL     1      48.197  25.385  31.297  1.00  0.00     0.186 HD
ENDROOT
BRANCH   1  12
HETATM   12  O1  UNL     1      49.951  26.589  32.837  1.00  0.00    -0.335 OA
BRANCH  12  13
HETATM   13  C11 UNL     1      51.162  26.403  32.306  1.00  0.00     0.177 C 
BRANCH  13  14
HETATM   14  C10 UNL     1      52.221  26.616  33.403  1.00  0.00     0.028 C 
BRANCH  14  15
HETATM   15  C9  UNL     1      52.129  28.008  33.933  1.00  0.00     0.024 C 
BRANCH  15  16
HETATM   16  C8  UNL     1      51.923  28.113  35.401  1.00  0.00     0.148 C 
BRANCH  16  17
HETATM   17  N1  UNL     1      51.060  29.175  35.879  1.00  0.00    -0.303 N 
HETATM   18  C7  UNL     1      50.344  30.012  35.067  1.00  0.00     0.112 A 
HETATM   19  C6  UNL     1      49.644  30.892  35.839  1.00  0.00     0.046 A 
HETATM   20  C5  UNL     1      49.957  30.561  37.158  1.00  0.00     0.035 A 
HETATM   21  N5  UNL     1      50.810  29.526  37.109  1.00  0.00    -0.302 N 
ATOM     22  H5  UNL     1      51.211  29.072  37.929  1.00  0.00     0.186 HD
BRANCH  20  23
HETATM   23  C2  UNL     1      49.389  31.259  38.356  1.00  0.00    -0.007 C 
HETATM   24  C1  UNL     1      49.174  30.259  39.451  1.00  0.00     0.021 C 
HETATM   25  C3  UNL     1      50.384  32.303  38.845  1.00  0.00     0.021 C 
HETATM   26  C4  UNL     1      48.088  31.944  38.036  1.00  0.00     0.021 C 
ENDBRANCH  20  23
ENDBRANCH  16  17
ENDBRANCH  15  16
ENDBRANCH  14  15
ENDBRANCH  13  14
ENDBRANCH  12  13
ENDBRANCH   1  12
BRANCH   8  27
HETATM   27  C16 UNL     1      44.539  26.266  30.253  1.00  0.00     0.138 C 
BRANCH  27  28
HETATM   28  C17 UNL     1      44.558  27.178  29.075  1.00  0.00     0.025 C 
BRANCH  28  29
HETATM   29  C18 UNL     1      44.267  26.658  27.730  1.00  0.00    -0.013 C 
HETATM   30  C19 UNL     1      45.200  25.584  27.199  1.00  0.00     0.005 C 
HETATM   31  C20 UNL     1      45.052  25.718  25.660  1.00  0.00     0.000 C 
HETATM   32  C21 UNL     1      43.622  25.513  25.287  1.00  0.00     0.000 C 
HETATM   33  C22 UNL     1      42.774  25.107  26.464  1.00  0.00     0.000 C 
HETATM   34  C23 UNL     1      42.837  26.135  27.603  1.00  0.00     0.005 C 
ENDBRANCH  28  29
ENDBRANCH  27  28
ENDBRANCH   8  27
TORSDOF 10
ENDMDL
MODEL 5
REMARK VINA RESULT: -8.934874417      2.480      5.111
REMARK  10 active torsions:
REMARK  status: ('A' for Active; 'I' for Inactive)
REMARK    1  A    between atoms: C2_2  and  C5_5 
REMARK    2  A    between atoms: N1_8  and  C8_9 
REMARK    3  A    between atoms: C8_9  and  C9_10 
REMARK    4  A    between atoms: C9_10  and  C10_11 
REMARK    5  A    between atoms: C10_11  and  C11_12 
REMARK    6  A    between atoms: C11_12  and  O1_13 
REMARK    7  A    between atoms: O1_13  and  C12_14 
REMARK    8  A    between atoms: N3_21  and  C16_23 
REMARK    9  A    between atoms: C16_23  and  C17_24 
REMARK   10  A    between atoms: C17_24  and  C18_25 
ROOT
HETATM    1  C12 UNL     1      47.014  27.882  32.878  1.00  0.00     0.160 A 
HETATM    2  C13 UNL     1      46.207  29.053  32.796  1.00  0.00     0.099 A 
HETATM    3  C14 UNL     1      46.657  30.234  33.268  1.00  0.00     0.123 A 
HETATM    4 CL1  UNL     1      45.694  31.709  33.172  1.00  0.00    -0.064 Cl
HETATM    5  N2  UNL     1      47.885  30.254  33.817  1.00  0.00    -0.181 N 
ATOM      6  H2  UNL     1      48.235  31.142  34.175  1.00  0.00     0.185 HD
HETATM    7  C15 UNL     1      48.679  29.174  33.920  1.00  0.00     0.681 A 
HETATM    8  N3  UNL     1      49.770  29.199  34.551  1.00  0.00    -0.226 N 
ATOM      9  H3  UNL     1      50.267  28.308  34.542  1.00  0.00     0.177 HD
HETATM   10  N4  UNL     1      48.218  27.982  33.434  1.00  0.00    -0.171 N 
ATOM     11  H4  UNL     1      48.809  27.153  33.499  1.00  0.00     0.186 HD
ENDROOT
BRANCH   1  12
HETATM   12  O1  UNL     1      46.458  26.783  32.389  1.00  0.00    -0.335 OA
BRANCH  12  13
HETATM   13  C11 UNL     1      45.797  26.233  31.368  1.00  0.00     0.177 C 
BRANCH  13  14
HETATM   14  C10 UNL     1      46.655  26.364  30.096  1.00  0.00     0.028 C 
BRANCH  14  15
HETATM   15  C9  UNL     1      47.861  25.493  30.206  1.00  0.00     0.024 C 
BRANCH  15  16
HETATM   16  C8  UNL     1      49.130  26.106  29.731  1.00  0.00     0.148 C 
BRANCH  16  17
HETATM   17  N1  UNL     1      50.167  26.338  30.716  1.00  0.00    -0.303 N 
HETATM   18  C7  UNL     1      50.138  25.858  31.996  1.00  0.00     0.112 A 
HETATM   19  C6  UNL     1      51.263  26.264  32.652  1.00  0.00     0.046 A 
HETATM   20  C5  UNL     1      51.986  27.011  31.722  1.00  0.00     0.035 A 
HETATM   21  N5  UNL     1      51.273  27.016  30.585  1.00  0.00    -0.302 N 
ATOM     22  H5  UNL     1      51.559  27.490  29.729  1.00  0.00     0.186 HD
BRANCH  20  23
HETATM   23  C2  UNL     1      53.317  27.640  32.003  1.00  0.00    -0.007 C 
HETATM   24  C1  UNL     1      53.112  28.883  32.814  1.00  0.00     0.021 C 
HETATM   25  C3  UNL     1      54.167  26.670  32.813  1.00  0.00     0.021 C 
HETATM   26  C4  UNL     1      54.050  27.981  30.733  1.00  0.00     0.021 C 
ENDBRANCH  20  23
ENDBRANCH  16  17
ENDBRANCH  15  16
ENDBRANCH  14  15
ENDBRANCH  13  14
ENDBRANCH  12  13
ENDBRANCH   1  12
BRANCH   8  27
HETATM   27  C16 UNL     1      50.448  30.220  35.275  1.00  0.00     0.138 C 
BRANCH  27  28
HETATM   28  C17 UNL     1      49.992  30.296  36.691  1.00  0.00     0.025 C 
BRANCH  28  29
HETATM   29  C18 UNL     1      50.887  29.885  37.783  1.00  0.00    -0.013 C 
HETATM   30  C19 UNL     1      50.335  29.998  39.194  1.00  0.00     0.005 C 
HETATM   31  C20 UNL     1      51.615  30.124  40.064  1.00  0.00     0.000 C 
HETATM   32  C21 UNL     1      52.474  28.924  39.846  1.00  0.00     0.000 C 
HETATM   33  C22 UNL     1      51.809  27.893  38.972  1.00  0.00     0.000 C 
HETATM   34  C23 UNL     1      51.413  28.462  37.603  1.00  0.00     0.005 C 
ENDBRANCH  28  29
ENDBRANCH  27  28
ENDBRANCH   8  27
TORSDOF 10
ENDMDL
