MODEL 1
REMARK VINA RESULT: -8.053664571      0.000      0.000
REMARK  10 active torsions:
REMARK  status: ('A' for Active; 'I' for Inactive)
REMARK    1  A    between atoms: O1_2  and  C2_3 
REMARK    2  A    between atoms: C6_7  and  C7_8 
REMARK    3  A    between atoms: C7_8  and  N1_9 
REMARK    4  A    between atoms: N2_12  and  C10_13 
REMARK    5  A    between atoms: C10_13  and  C11_14 
REMARK    6  A    between atoms: C11_14  and  C12_15 
REMARK    7  A    between atoms: C12_15  and  C13_16 
REMARK    8  A    between atoms: C13_16  and  C14_17 
REMARK    9  A    between atoms: C14_17  and  C15_18 
REMARK   10  A    between atoms: N3_28  and  O2_29 
ROOT
HETATM    1  N1  UNL     1      53.324  27.829  36.012  1.00  0.00     0.099 N 
HETATM    2  C8  UNL     1      53.860  26.739  35.279  1.00  0.00     0.303 C 
HETATM    3  C9  UNL     1      54.303  27.129  33.884  1.00  0.00     0.306 C 
HETATM    4  N2  UNL     1      53.320  27.825  33.102  1.00  0.00     0.125 N 
HETATM    5  C21 UNL     1      52.652  28.849  33.881  1.00  0.00     0.432 C 
HETATM    6  F1  UNL     1      51.326  28.547  34.078  1.00  0.00    -0.214 F 
HETATM    7  C22 UNL     1      53.266  29.057  35.250  1.00  0.00     0.342 C 
ENDROOT
BRANCH   1   8
HETATM    8  C7  UNL     1      52.148  27.595  36.762  1.00  0.00     0.313 C 
BRANCH   8   9
HETATM    9  C6  UNL     1      52.005  28.500  37.925  1.00  0.00     0.000 A 
HETATM   10  C5  UNL     1      51.109  29.590  37.948  1.00  0.00     0.003 A 
HETATM   11  C4  UNL     1      50.218  30.074  37.016  1.00  0.00     0.017 A 
HETATM   12  C24 UNL     1      51.185  30.251  39.146  1.00  0.00     0.075 A 
HETATM   13  C3  UNL     1      49.429  31.172  37.258  1.00  0.00     0.038 A 
HETATM   14  C2  UNL     1      49.523  31.829  38.487  1.00  0.00     0.070 A 
HETATM   15  C25 UNL     1      50.408  31.354  39.421  1.00  0.00     0.069 A 
HETATM   16  N3  UNL     1      52.111  29.599  39.874  1.00  0.00    -0.235 N 
HETATM   17  C23 UNL     1      52.609  28.548  39.149  1.00  0.00     0.133 A 
BRANCH  14  18
HETATM   18  O1  UNL     1      48.709  32.928  38.686  1.00  0.00    -0.356 OA
HETATM   19  C1  UNL     1      47.562  33.256  37.966  1.00  0.00     0.210 C 
ENDBRANCH  14  18
BRANCH  16  20
HETATM   20  O2  UNL     1      52.538  29.885  41.141  1.00  0.00    -0.283 OA
ATOM     21  H2  UNL     1      51.945  29.927  41.883  1.00  0.00     0.245 HD
ENDBRANCH  16  20
ENDBRANCH   8   9
ENDBRANCH   1   8
BRANCH   4  22
HETATM   22  C10 UNL     1      52.377  26.920  32.534  1.00  0.00     0.276 C 
BRANCH  22  23
HETATM   23  C11 UNL     1      51.981  27.295  31.103  1.00  0.00     0.030 C 
BRANCH  23  24
HETATM   24  C12 UNL     1      50.693  26.588  30.759  1.00  0.00     0.002 C 
BRANCH  24  25
HETATM   25  C13 UNL     1      49.961  26.190  31.999  1.00  0.00     0.001 C 
BRANCH  25  26
HETATM   26  C14 UNL     1      48.718  25.422  31.645  1.00  0.00     0.009 C 
BRANCH  26  27
HETATM   27  C15 UNL     1      47.467  26.130  32.137  1.00  0.00    -0.044 C 
HETATM   28  C16 UNL     1      47.819  27.383  32.911  1.00  0.00     0.015 C 
HETATM   29  C17 UNL     1      46.684  26.550  30.905  1.00  0.00     0.009 C 
HETATM   30  C18 UNL     1      45.230  26.356  31.380  1.00  0.00     0.001 C 
HETATM   31  C19 UNL     1      45.371  25.019  32.062  1.00  0.00     0.001 C 
HETATM   32  C20 UNL     1      46.622  25.173  32.887  1.00  0.00     0.009 C 
ENDBRANCH  26  27
ENDBRANCH  25  26
ENDBRANCH  24  25
ENDBRANCH  23  24
ENDBRANCH  22  23
ENDBRANCH   4  22
TORSDOF 10
ENDMDL
MODEL 2
REMARK VINA RESULT: -7.892529066      0.402      1.011
REMARK  10 active torsions:
REMARK  status: ('A' for Active; 'I' for Inactive)
REMARK    1  A    between atoms: O1_2  and  C2_3 
REMARK    2  A    between atoms: C6_7  and  C7_8 
REMARK    3  A    between atoms: C7_8  and  N1_9 
REMARK    4  A    between atoms: N2_12  and  C10_13 
REMARK    5  A    between atoms: C10_13  and  C11_14 
REMARK    6  A    between atoms: C11_14  and  C12_15 
REMARK    7  A    between atoms: C12_15  and  C13_16 
REMARK    8  A    between atoms: C13_16  and  C14_17 
REMARK    9  A    between atoms: C14_17  and  C15_18 
REMARK   10  A    between atoms: N3_28  and  O2_29 
ROOT
HETATM    1  N1  UNL     1      53.288  27.885  36.068  1.00  0.00     0.099 N 
HETATM    2  C8  UNL     1      53.823  26.804  35.323  1.00  0.00     0.303 C 
HETATM    3  C9  UNL     1      54.161  27.182  33.896  1.00  0.00     0.306 C 
HETATM    4  N2  UNL     1      53.101  27.820  33.164  1.00  0.00     0.125 N 
HETATM    5  C21 UNL     1      52.440  28.831  33.965  1.00  0.00     0.432 C 
HETATM    6  F1  UNL     1      51.143  28.478  34.251  1.00  0.00    -0.214 F 
HETATM    7  C22 UNL     1      53.129  29.094  35.288  1.00  0.00     0.342 C 
ENDROOT
BRANCH   1   8
HETATM    8  C7  UNL     1      52.172  27.618  36.895  1.00  0.00     0.313 C 
BRANCH   8   9
HETATM    9  C6  UNL     1      52.045  28.562  38.029  1.00  0.00     0.000 A 
HETATM   10  C5  UNL     1      51.130  29.636  38.041  1.00  0.00     0.003 A 
HETATM   11  C4  UNL     1      50.204  30.070  37.119  1.00  0.00     0.017 A 
HETATM   12  C24 UNL     1      51.228  30.340  39.212  1.00  0.00     0.075 A 
HETATM   13  C3  UNL     1      49.401  31.161  37.346  1.00  0.00     0.038 A 
HETATM   14  C2  UNL     1      49.517  31.863  38.547  1.00  0.00     0.070 A 
HETATM   15  C25 UNL     1      50.437  31.438  39.471  1.00  0.00     0.069 A 
HETATM   16  N3  UNL     1      52.186  29.731  39.935  1.00  0.00    -0.235 N 
HETATM   17  C23 UNL     1      52.683  28.665  39.233  1.00  0.00     0.133 A 
BRANCH  14  18
HETATM   18  O1  UNL     1      48.688  32.953  38.731  1.00  0.00    -0.356 OA
HETATM   19  C1  UNL     1      47.552  33.270  37.990  1.00  0.00     0.210 C 
ENDBRANCH  14  18
BRANCH  16  20
HETATM   20  O2  UNL     1      52.643  30.070  41.178  1.00  0.00    -0.283 OA
ATOM     21  H2  UNL     1      52.350  29.631  41.968  1.00  0.00     0.245 HD
ENDBRANCH  16  20
ENDBRANCH   8   9
ENDBRANCH   1   8
BRANCH   4  22
HETATM   22  C10 UNL     1      52.164  26.864  32.675  1.00  0.00     0.276 C 
BRANCH  22  23
HETATM   23  C11 UNL     1      51.916  26.993  31.169  1.00  0.00     0.030 C 
BRANCH  23  24
HETATM   24  C12 UNL     1      50.456  26.724  30.897  1.00  0.00     0.002 C 
BRANCH  24  25
HETATM   25  C13 UNL     1      49.873  25.847  31.958  1.00  0.00     0.001 C 
BRANCH  25  26
HETATM   26  C14 UNL     1      48.533  26.372  32.387  1.00  0.00     0.009 C 
BRANCH  26  27
HETATM   27  C15 UNL     1      47.398  25.618  31.715  1.00  0.00    -0.044 C 
HETATM   28  C16 UNL     1      47.929  24.522  30.817  1.00  0.00     0.015 C 
HETATM   29  C17 UNL     1      46.587  24.962  32.819  1.00  0.00     0.009 C 
HETATM   30  C18 UNL     1      45.154  25.077  32.262  1.00  0.00     0.001 C 
HETATM   31  C19 UNL     1      45.195  26.500  31.769  1.00  0.00     0.001 C 
HETATM   32  C20 UNL     1      46.505  26.581  31.029  1.00  0.00     0.009 C 
ENDBRANCH  26  27
ENDBRANCH  25  26
ENDBRANCH  24  25
ENDBRANCH  23  24
ENDBRANCH  22  23
ENDBRANCH   4  22
TORSDOF 10
ENDMDL
MODEL 3
REMARK VINA RESULT: -7.884807863      5.623     10.524
REMARK  10 active torsions:
REMARK  status: ('A' for Active; 'I' for Inactive)
REMARK    1  A    between atoms: O1_2  and  C2_3 
REMARK    2  A    between atoms: C6_7  and  C7_8 
REMARK    3  A    between atoms: C7_8  and  N1_9 
REMARK    4  A    between atoms: N2_12  and  C10_13 
REMARK    5  A    between atoms: C10_13  and  C11_14 
REMARK    6  A    between atoms: C11_14  and  C12_15 
REMARK    7  A    between atoms: C12_15  and  C13_16 
REMARK    8  A    between atoms: C13_16  and  C14_17 
REMARK    9  A    between atoms: C14_17  and  C15_18 
REMARK   10  A    between atoms: N3_28  and  O2_29 
ROOT
HETATM    1  N1  UNL     1      45.472  25.944  31.142  1.00  0.00     0.099 N 
HETATM    2  C8  UNL     1      46.402  25.006  30.627  1.00  0.00     0.303 C 
HETATM    3  C9  UNL     1      47.424  24.566  31.653  1.00  0.00     0.306 C 
HETATM    4  N2  UNL     1      48.110  25.632  32.331  1.00  0.00     0.125 N 
HETATM    5  C21 UNL     1      47.192  26.677  32.735  1.00  0.00     0.432 C 
HETATM    6  F1  UNL     1      47.425  27.845  32.050  1.00  0.00    -0.214 F 
HETATM    7  C22 UNL     1      45.737  26.317  32.515  1.00  0.00     0.342 C 
ENDROOT
BRANCH   1   8
HETATM    8  C7  UNL     1      45.146  27.054  30.327  1.00  0.00     0.313 C 
BRANCH   8   9
HETATM    9  C6  UNL     1      45.151  26.739  28.880  1.00  0.00     0.000 A 
HETATM   10  C5  UNL     1      44.045  26.176  28.209  1.00  0.00     0.003 A 
HETATM   11  C4  UNL     1      42.795  25.798  28.645  1.00  0.00     0.017 A 
HETATM   12  C24 UNL     1      44.328  25.994  26.881  1.00  0.00     0.075 A 
HETATM   13  C3  UNL     1      41.856  25.261  27.799  1.00  0.00     0.038 A 
HETATM   14  C2  UNL     1      42.166  25.086  26.448  1.00  0.00     0.070 A 
HETATM   15  C25 UNL     1      43.409  25.460  26.006  1.00  0.00     0.069 A 
HETATM   16  N3  UNL     1      45.590  26.431  26.705  1.00  0.00    -0.235 N 
HETATM   17  C23 UNL     1      46.091  26.879  27.899  1.00  0.00     0.133 A 
BRANCH  14  18
HETATM   18  O1  UNL     1      41.190  24.543  25.635  1.00  0.00    -0.356 OA
HETATM   19  C1  UNL     1      39.935  24.087  26.031  1.00  0.00     0.210 C 
ENDBRANCH  14  18
BRANCH  16  20
HETATM   20  O2  UNL     1      46.317  26.453  25.548  1.00  0.00    -0.283 OA
ATOM     21  H2  UNL     1      45.948  26.208  24.707  1.00  0.00     0.245 HD
ENDBRANCH  16  20
ENDBRANCH   8   9
ENDBRANCH   1   8
BRANCH   4  22
HETATM   22  C10 UNL     1      49.163  26.159  31.529  1.00  0.00     0.276 C 
BRANCH  22  23
HETATM   23  C11 UNL     1      50.537  26.031  32.194  1.00  0.00     0.030 C 
BRANCH  23  24
HETATM   24  C12 UNL     1      51.530  26.851  31.407  1.00  0.00     0.002 C 
BRANCH  24  25
HETATM   25  C13 UNL     1      52.582  27.414  32.306  1.00  0.00     0.001 C 
BRANCH  25  26
HETATM   26  C14 UNL     1      52.324  27.005  33.728  1.00  0.00     0.009 C 
BRANCH  26  27
HETATM   27  C15 UNL     1      52.373  28.198  34.668  1.00  0.00    -0.044 C 
HETATM   28  C16 UNL     1      53.209  29.318  34.084  1.00  0.00     0.015 C 
HETATM   29  C17 UNL     1      50.949  28.708  34.811  1.00  0.00     0.009 C 
HETATM   30  C18 UNL     1      50.925  29.150  36.288  1.00  0.00     0.001 C 
HETATM   31  C19 UNL     1      51.628  27.971  36.910  1.00  0.00     0.001 C 
HETATM   32  C20 UNL     1      52.815  27.751  36.009  1.00  0.00     0.009 C 
ENDBRANCH  26  27
ENDBRANCH  25  26
ENDBRANCH  24  25
ENDBRANCH  23  24
ENDBRANCH  22  23
ENDBRANCH   4  22
TORSDOF 10
ENDMDL
MODEL 4
REMARK VINA RESULT: -7.747965829      4.028      6.456
REMARK  10 active torsions:
REMARK  status: ('A' for Active; 'I' for Inactive)
REMARK    1  A    between atoms: O1_2  and  C2_3 
REMARK    2  A    between atoms: C6_7  and  C7_8 
REMARK    3  A    between atoms: C7_8  and  N1_9 
REMARK    4  A    between atoms: N2_12  and  C10_13 
REMARK    5  A    between atoms: C10_13  and  C11_14 
REMARK    6  A    between atoms: C11_14  and  C12_15 
REMARK    7  A    between atoms: C12_15  and  C13_16 
REMARK    8  A    between atoms: C13_16  and  C14_17 
REMARK    9  A    between atoms: C14_17  and  C15_18 
REMARK   10  A    between atoms: N3_28  and  O2_29 
ROOT
HETATM    1  N1  UNL     1      46.782  26.849  32.552  1.00  0.00     0.099 N 
HETATM    2  C8  UNL     1      46.127  27.105  31.320  1.00  0.00     0.303 C 
HETATM    3  C9  UNL     1      45.907  25.853  30.498  1.00  0.00     0.306 C 
HETATM    4  N2  UNL     1      47.077  25.046  30.286  1.00  0.00     0.125 N 
HETATM    5  C21 UNL     1      47.843  24.895  31.507  1.00  0.00     0.432 C 
HETATM    6  F1  UNL     1      49.063  25.522  31.416  1.00  0.00    -0.214 F 
HETATM    7  C22 UNL     1      47.145  25.459  32.727  1.00  0.00     0.342 C 
ENDROOT
BRANCH   1   8
HETATM    8  C7  UNL     1      47.813  27.736  32.939  1.00  0.00     0.313 C 
BRANCH   8   9
HETATM    9  C6  UNL     1      47.317  29.079  33.320  1.00  0.00     0.000 A 
HETATM   10  C5  UNL     1      47.985  29.916  34.238  1.00  0.00     0.003 A 
HETATM   11  C4  UNL     1      49.146  29.753  34.962  1.00  0.00     0.017 A 
HETATM   12  C24 UNL     1      47.306  31.094  34.399  1.00  0.00     0.075 A 
HETATM   13  C3  UNL     1      49.619  30.721  35.814  1.00  0.00     0.038 A 
HETATM   14  C2  UNL     1      48.910  31.915  35.961  1.00  0.00     0.070 A 
HETATM   15  C25 UNL     1      47.753  32.086  35.244  1.00  0.00     0.069 A 
HETATM   16  N3  UNL     1      46.224  31.014  33.601  1.00  0.00    -0.235 N 
HETATM   17  C23 UNL     1      46.222  29.808  32.951  1.00  0.00     0.133 A 
BRANCH  14  18
HETATM   18  O1  UNL     1      49.426  32.860  36.828  1.00  0.00    -0.356 OA
HETATM   19  C1  UNL     1      49.687  32.690  38.185  1.00  0.00     0.210 C 
ENDBRANCH  14  18
BRANCH  16  20
HETATM   20  O2  UNL     1      45.242  31.948  33.421  1.00  0.00    -0.283 OA
ATOM     21  H2  UNL     1      44.380  31.864  33.811  1.00  0.00     0.245 HD
ENDBRANCH  16  20
ENDBRANCH   8   9
ENDBRANCH   1   8
BRANCH   4  22
HETATM   22  C10 UNL     1      47.885  25.574  29.238  1.00  0.00     0.276 C 
BRANCH  22  23
HETATM   23  C11 UNL     1      47.106  26.493  28.293  1.00  0.00     0.030 C 
BRANCH  23  24
HETATM   24  C12 UNL     1      47.038  25.840  26.934  1.00  0.00     0.002 C 
BRANCH  24  25
HETATM   25  C13 UNL     1      45.855  24.932  26.841  1.00  0.00     0.001 C 
BRANCH  25  26
HETATM   26  C14 UNL     1      44.902  25.426  25.790  1.00  0.00     0.009 C 
BRANCH  26  27
HETATM   27  C15 UNL     1      43.623  25.965  26.408  1.00  0.00    -0.044 C 
HETATM   28  C16 UNL     1      42.404  25.316  25.787  1.00  0.00     0.015 C 
HETATM   29  C17 UNL     1      43.650  25.589  27.880  1.00  0.00     0.009 C 
HETATM   30  C18 UNL     1      42.984  26.820  28.527  1.00  0.00     0.001 C 
HETATM   31  C19 UNL     1      43.691  27.911  27.765  1.00  0.00     0.001 C 
HETATM   32  C20 UNL     1      43.624  27.444  26.334  1.00  0.00     0.009 C 
ENDBRANCH  26  27
ENDBRANCH  25  26
ENDBRANCH  24  25
ENDBRANCH  23  24
ENDBRANCH  22  23
ENDBRANCH   4  22
TORSDOF 10
ENDMDL
MODEL 5
REMARK VINA RESULT: -7.699727342      3.601      5.739
REMARK  10 active torsions:
REMARK  status: ('A' for Active; 'I' for Inactive)
REMARK    1  A    between atoms: O1_2  and  C2_3 
REMARK    2  A    between atoms: C6_7  and  C7_8 
REMARK    3  A    between atoms: C7_8  and  N1_9 
REMARK    4  A    between atoms: N2_12  and  C10_13 
REMARK    5  A    between atoms: C10_13  and  C11_14 
REMARK    6  A    between atoms: C11_14  and  C12_15 
REMARK    7  A    between atoms: C12_15  and  C13_16 
REMARK    8  A    between atoms: C13_16  and  C14_17 
REMARK    9  A    between atoms: C14_17  and  C15_18 
REMARK   10  A    between atoms: N3_28  and  O2_29 
ROOT
HETATM    1  N1  UNL     1      47.714  31.800  34.061  1.00  0.00     0.099 N 
HETATM    2  C8  UNL     1      47.335  31.893  32.697  1.00  0.00     0.303 C 
HETATM    3  C9  UNL     1      45.963  31.313  32.427  1.00  0.00     0.306 C 
HETATM    4  N2  UNL     1      45.755  29.978  32.916  1.00  0.00     0.125 N 
HETATM    5  C21 UNL     1      46.273  29.821  34.260  1.00  0.00     0.432 C 
HETATM    6  F1  UNL     1      47.344  28.960  34.289  1.00  0.00    -0.214 F 
HETATM    7  C22 UNL     1      46.733  31.123  34.882  1.00  0.00     0.342 C 
ENDROOT
BRANCH   1   8
HETATM    8  C7  UNL     1      49.039  31.392  34.343  1.00  0.00     0.313 C 
BRANCH   8   9
HETATM    9  C6  UNL     1      49.364  31.418  35.788  1.00  0.00     0.000 A 
HETATM   10  C5  UNL     1      50.105  30.404  36.431  1.00  0.00     0.003 A 
HETATM   11  C4  UNL     1      50.670  29.238  35.966  1.00  0.00     0.017 A 
HETATM   12  C24 UNL     1      50.256  30.688  37.762  1.00  0.00     0.075 A 
HETATM   13  C3  UNL     1      51.362  28.382  36.788  1.00  0.00     0.038 A 
HETATM   14  C2  UNL     1      51.505  28.693  38.142  1.00  0.00     0.070 A 
HETATM   15  C25 UNL     1      50.945  29.853  38.613  1.00  0.00     0.069 A 
HETATM   16  N3  UNL     1      49.625  31.860  37.968  1.00  0.00    -0.235 N 
HETATM   17  C23 UNL     1      49.086  32.304  36.790  1.00  0.00     0.133 A 
BRANCH  14  18
HETATM   18  O1  UNL     1      52.211  27.803  38.929  1.00  0.00    -0.356 OA
HETATM   19  C1  UNL     1      51.725  26.627  39.497  1.00  0.00     0.210 C 
ENDBRANCH  14  18
BRANCH  16  20
HETATM   20  O2  UNL     1      49.500  32.552  39.141  1.00  0.00    -0.283 OA
ATOM     21  H2  UNL     1      50.048  32.378  39.897  1.00  0.00     0.245 HD
ENDBRANCH  16  20
ENDBRANCH   8   9
ENDBRANCH   1   8
BRANCH   4  22
HETATM   22  C10 UNL     1      46.321  29.012  32.035  1.00  0.00     0.276 C 
BRANCH  22  23
HETATM   23  C11 UNL     1      45.545  27.691  32.024  1.00  0.00     0.030 C 
BRANCH  23  24
HETATM   24  C12 UNL     1      45.936  26.914  30.790  1.00  0.00     0.002 C 
BRANCH  24  25
HETATM   25  C13 UNL     1      44.822  26.906  29.795  1.00  0.00     0.001 C 
BRANCH  25  26
HETATM   26  C14 UNL     1      45.267  27.550  28.512  1.00  0.00     0.009 C 
BRANCH  26  27
HETATM   27  C15 UNL     1      44.205  27.429  27.431  1.00  0.00    -0.044 C 
HETATM   28  C16 UNL     1      43.834  28.789  26.878  1.00  0.00     0.015 C 
HETATM   29  C17 UNL     1      44.817  26.619  26.300  1.00  0.00     0.009 C 
HETATM   30  C18 UNL     1      43.602  25.804  25.812  1.00  0.00     0.001 C 
HETATM   31  C19 UNL     1      43.035  25.384  27.143  1.00  0.00     0.001 C 
HETATM   32  C20 UNL     1      43.056  26.654  27.953  1.00  0.00     0.009 C 
ENDBRANCH  26  27
ENDBRANCH  25  26
ENDBRANCH  24  25
ENDBRANCH  23  24
ENDBRANCH  22  23
ENDBRANCH   4  22
TORSDOF 10
ENDMDL
