MODEL 1
REMARK VINA RESULT: -9.339128399      0.000      0.000
REMARK  6 active torsions:
REMARK  status: ('A' for Active; 'I' for Inactive)
REMARK    1  A    between atoms: C3_3  and  C4_4 
REMARK    2  A    between atoms: C4_4  and  C5_5 
REMARK    3  A    between atoms: C5_5  and  C7_7 
REMARK    4  A    between atoms: C7_7  and  C8_8 
REMARK       I    between atoms: C8_8  and  N1_10 
REMARK    5  A    between atoms: N1_10  and  C9_12 
REMARK    6  A    between atoms: C22_34  and  C23_35 
ROOT
HETATM    1  C9  UNL     1      35.518  28.854  19.147  1.00  0.00     0.176 C 
HETATM    2  C10 UNL     1      36.538  27.716  19.361  1.00  0.00     0.036 C 
HETATM    3  C11 UNL     1      37.512  27.688  18.204  1.00  0.00     0.022 C 
HETATM    4  C12 UNL     1      36.846  27.372  16.902  1.00  0.00     0.125 C 
HETATM    5  N2  UNL     1      37.847  26.875  15.952  1.00  0.00    -0.337 N 
ATOM      6  H2  UNL     1      38.553  26.213  16.274  1.00  0.00     0.164 HD
HETATM    7  C13 UNL     1      37.859  27.292  14.593  1.00  0.00     0.360 C 
HETATM    8  O2  UNL     1      38.906  26.981  13.921  1.00  0.00    -0.239 OA
HETATM    9  O3  UNL     1      36.805  27.982  14.063  1.00  0.00    -0.304 OA
HETATM   10  C14 UNL     1      35.465  27.603  13.998  1.00  0.00     0.180 C 
HETATM   11  C15 UNL     1      34.631  28.883  13.846  1.00  0.00     0.027 C 
HETATM   12  C16 UNL     1      33.202  28.576  13.501  1.00  0.00     0.008 C 
HETATM   13  C17 UNL     1      32.437  28.157  14.735  1.00  0.00     0.079 C 
HETATM   14  C18 UNL     1      32.245  29.319  15.693  1.00  0.00     0.246 C 
HETATM   15  F1  UNL     1      30.910  29.312  16.052  1.00  0.00    -0.206 F 
HETATM   16  F2  UNL     1      32.447  30.532  15.064  1.00  0.00    -0.206 F 
HETATM   17  C19 UNL     1      33.150  29.131  16.903  1.00  0.00     0.113 C 
HETATM   18  C20 UNL     1      32.323  28.897  18.150  1.00  0.00     0.185 C 
HETATM   19  C21 UNL     1      31.804  30.209  18.612  1.00  0.00     0.241 C 
HETATM   20  O4  UNL     1      32.721  31.081  18.831  1.00  0.00    -0.271 OA
HETATM   21  N3  UNL     1      30.469  30.566  18.820  1.00  0.00    -0.346 N 
ATOM     22  H3  UNL     1      30.182  31.447  18.395  1.00  0.00     0.163 HD
HETATM   23  C22 UNL     1      29.450  29.880  19.539  1.00  0.00     0.180 C 
HETATM   24  C26 UNL     1      29.320  28.443  19.303  1.00  0.00     0.243 C 
HETATM   25  O5  UNL     1      28.624  28.093  18.285  1.00  0.00    -0.271 OA
HETATM   26  N4  UNL     1      29.868  27.394  20.058  1.00  0.00    -0.327 N 
ATOM     27  H4  UNL     1      29.293  26.561  20.184  1.00  0.00     0.165 HD
HETATM   28  C27 UNL     1      31.182  27.394  20.673  1.00  0.00     0.289 C 
HETATM   29  F3  UNL     1      31.428  28.560  21.349  1.00  0.00    -0.225 F 
HETATM   30  C28 UNL     1      32.264  26.993  19.714  1.00  0.00     0.185 C 
HETATM   31  N5  UNL     1      33.004  28.163  19.198  1.00  0.00    -0.332 N 
HETATM   32  C29 UNL     1      34.240  28.450  19.764  1.00  0.00     0.243 C 
HETATM   33  O6  UNL     1      34.314  28.353  21.046  1.00  0.00    -0.271 OA
ENDROOT
BRANCH   1  34
HETATM   34  N1  UNL     1      36.090  29.980  19.907  1.00  0.00    -0.348 N 
HETATM   35  C8  UNL     1      36.298  31.251  19.329  1.00  0.00     0.218 C 
HETATM   36  O1  UNL     1      35.989  31.441  18.125  1.00  0.00    -0.274 OA
ATOM     37  H1  UNL     1      36.345  29.837  20.885  1.00  0.00     0.163 HD
BRANCH  35  38
HETATM   38  C7  UNL     1      36.870  32.330  20.136  1.00  0.00     0.107 C 
BRANCH  38  39
HETATM   39  C5  UNL     1      36.487  33.707  19.538  1.00  0.00    -0.007 C 
HETATM   40  C6  UNL     1      35.252  34.161  20.386  1.00  0.00     0.011 C 
BRANCH  39  41
HETATM   41  C4  UNL     1      37.554  34.704  19.804  1.00  0.00     0.031 C 
BRANCH  41  42
HETATM   42  C3  UNL     1      37.413  35.493  21.035  1.00  0.00    -0.031 C 
HETATM   43  C2  UNL     1      38.386  36.132  21.616  1.00  0.00    -0.035 C 
HETATM   44  C1  UNL     1      38.147  36.902  22.863  1.00  0.00     0.036 C 
ENDBRANCH  41  42
ENDBRANCH  39  41
ENDBRANCH  38  39
ENDBRANCH  35  38
ENDBRANCH   1  34
BRANCH  23  45
HETATM   45  C23 UNL     1      28.083  30.496  19.239  1.00  0.00     0.009 C 
HETATM   46  C24 UNL     1      27.282  30.671  20.510  1.00  0.00     0.012 C 
HETATM   47  C25 UNL     1      28.183  31.782  18.485  1.00  0.00     0.012 C 
ENDBRANCH  23  45
TORSDOF 6
ENDMDL
MODEL 2
REMARK VINA RESULT: -9.214070918      2.908      5.233
REMARK  6 active torsions:
REMARK  status: ('A' for Active; 'I' for Inactive)
REMARK    1  A    between atoms: C3_3  and  C4_4 
REMARK    2  A    between atoms: C4_4  and  C5_5 
REMARK    3  A    between atoms: C5_5  and  C7_7 
REMARK    4  A    between atoms: C7_7  and  C8_8 
REMARK       I    between atoms: C8_8  and  N1_10 
REMARK    5  A    between atoms: N1_10  and  C9_12 
REMARK    6  A    between atoms: C22_34  and  C23_35 
ROOT
HETATM    1  C9  UNL     1      34.770  28.852  16.807  1.00  0.00     0.176 C 
HETATM    2  C10 UNL     1      35.093  28.451  15.353  1.00  0.00     0.036 C 
HETATM    3  C11 UNL     1      34.036  29.014  14.428  1.00  0.00     0.022 C 
HETATM    4  C12 UNL     1      32.679  28.445  14.695  1.00  0.00     0.125 C 
HETATM    5  N2  UNL     1      31.835  28.622  13.509  1.00  0.00    -0.337 N 
ATOM      6  H2  UNL     1      32.231  28.441  12.586  1.00  0.00     0.164 HD
HETATM    7  C13 UNL     1      30.480  29.039  13.610  1.00  0.00     0.360 C 
HETATM    8  O2  UNL     1      29.916  29.383  12.512  1.00  0.00    -0.239 OA
HETATM    9  O3  UNL     1      29.844  29.061  14.820  1.00  0.00    -0.304 OA
HETATM   10  C14 UNL     1      29.652  28.013  15.719  1.00  0.00     0.180 C 
HETATM   11  C15 UNL     1      29.407  28.631  17.102  1.00  0.00     0.027 C 
HETATM   12  C16 UNL     1      28.928  27.607  18.091  1.00  0.00     0.008 C 
HETATM   13  C17 UNL     1      30.085  26.781  18.603  1.00  0.00     0.079 C 
HETATM   14  C18 UNL     1      31.009  27.603  19.484  1.00  0.00     0.246 C 
HETATM   15  F1  UNL     1      31.237  26.848  20.619  1.00  0.00    -0.206 F 
HETATM   16  F2  UNL     1      30.391  28.755  19.929  1.00  0.00    -0.206 F 
HETATM   17  C19 UNL     1      32.303  27.887  18.733  1.00  0.00     0.113 C 
HETATM   18  C20 UNL     1      33.466  27.180  19.399  1.00  0.00     0.185 C 
HETATM   19  C21 UNL     1      33.863  27.971  20.591  1.00  0.00     0.241 C 
HETATM   20  O4  UNL     1      34.162  29.192  20.329  1.00  0.00    -0.271 OA
HETATM   21  N3  UNL     1      33.937  27.527  21.915  1.00  0.00    -0.346 N 
ATOM     22  H3  UNL     1      33.478  28.125  22.601  1.00  0.00     0.163 HD
HETATM   23  C22 UNL     1      34.560  26.363  22.446  1.00  0.00     0.180 C 
HETATM   24  C26 UNL     1      34.326  25.103  21.743  1.00  0.00     0.243 C 
HETATM   25  O5  UNL     1      33.248  24.475  22.041  1.00  0.00    -0.271 OA
HETATM   26  N4  UNL     1      35.140  24.492  20.776  1.00  0.00    -0.327 N 
ATOM     27  H4  UNL     1      35.218  23.476  20.807  1.00  0.00     0.165 HD
HETATM   28  C27 UNL     1      35.881  25.185  19.738  1.00  0.00     0.289 C 
HETATM   29  F3  UNL     1      36.567  26.262  20.233  1.00  0.00    -0.225 F 
HETATM   30  C28 UNL     1      35.035  25.487  18.535  1.00  0.00     0.185 C 
HETATM   31  N5  UNL     1      34.583  26.894  18.520  1.00  0.00    -0.332 N 
HETATM   32  C29 UNL     1      35.264  27.785  17.700  1.00  0.00     0.243 C 
HETATM   33  O6  UNL     1      36.547  27.687  17.696  1.00  0.00    -0.271 OA
ENDROOT
BRANCH   1  34
HETATM   34  N1  UNL     1      35.571  30.071  17.018  1.00  0.00    -0.348 N 
HETATM   35  C8  UNL     1      35.024  31.244  17.581  1.00  0.00     0.218 C 
HETATM   36  O1  UNL     1      33.814  31.262  17.918  1.00  0.00    -0.274 OA
ATOM     37  H1  UNL     1      36.555  30.067  16.747  1.00  0.00     0.163 HD
BRANCH  35  38
HETATM   38  C7  UNL     1      35.872  32.423  17.764  1.00  0.00     0.107 C 
BRANCH  38  39
HETATM   39  C5  UNL     1      35.832  32.888  19.241  1.00  0.00    -0.007 C 
HETATM   40  C6  UNL     1      36.878  31.971  19.959  1.00  0.00     0.011 C 
BRANCH  39  41
HETATM   41  C4  UNL     1      36.350  34.273  19.365  1.00  0.00     0.031 C 
BRANCH  41  42
HETATM   42  C3  UNL     1      37.491  34.461  20.271  1.00  0.00    -0.031 C 
HETATM   43  C2  UNL     1      38.263  35.508  20.276  1.00  0.00    -0.035 C 
HETATM   44  C1  UNL     1      39.397  35.606  21.230  1.00  0.00     0.036 C 
ENDBRANCH  41  42
ENDBRANCH  39  41
ENDBRANCH  38  39
ENDBRANCH  35  38
ENDBRANCH   1  34
BRANCH  23  45
HETATM   45  C23 UNL     1      34.123  26.141  23.895  1.00  0.00     0.009 C 
HETATM   46  C24 UNL     1      35.323  26.044  24.809  1.00  0.00     0.012 C 
HETATM   47  C25 UNL     1      33.165  27.183  24.373  1.00  0.00     0.012 C 
ENDBRANCH  23  45
TORSDOF 6
ENDMDL
MODEL 3
REMARK VINA RESULT: -8.997050413      3.180      7.206
REMARK  6 active torsions:
REMARK  status: ('A' for Active; 'I' for Inactive)
REMARK    1  A    between atoms: C3_3  and  C4_4 
REMARK    2  A    between atoms: C4_4  and  C5_5 
REMARK    3  A    between atoms: C5_5  and  C7_7 
REMARK    4  A    between atoms: C7_7  and  C8_8 
REMARK       I    between atoms: C8_8  and  N1_10 
REMARK    5  A    between atoms: N1_10  and  C9_12 
REMARK    6  A    between atoms: C22_34  and  C23_35 
ROOT
HETATM    1  C9  UNL     1      33.024  29.175  17.317  1.00  0.00     0.176 C 
HETATM    2  C10 UNL     1      31.809  28.226  17.383  1.00  0.00     0.036 C 
HETATM    3  C11 UNL     1      31.073  28.258  16.062  1.00  0.00     0.022 C 
HETATM    4  C12 UNL     1      30.497  29.605  15.758  1.00  0.00     0.125 C 
HETATM    5  N2  UNL     1      29.417  29.463  14.776  1.00  0.00    -0.337 N 
ATOM      6  H2  UNL     1      28.752  28.696  14.876  1.00  0.00     0.164 HD
HETATM    7  C13 UNL     1      29.273  30.366  13.688  1.00  0.00     0.360 C 
HETATM    8  O2  UNL     1      28.448  30.012  12.772  1.00  0.00    -0.239 OA
HETATM    9  O3  UNL     1      29.984  31.533  13.648  1.00  0.00    -0.304 OA
HETATM   10  C14 UNL     1      30.008  32.567  14.582  1.00  0.00     0.180 C 
HETATM   11  C15 UNL     1      31.318  33.340  14.379  1.00  0.00     0.027 C 
HETATM   12  C16 UNL     1      31.326  34.629  15.150  1.00  0.00     0.008 C 
HETATM   13  C17 UNL     1      31.637  34.374  16.607  1.00  0.00     0.079 C 
HETATM   14  C18 UNL     1      33.075  33.929  16.800  1.00  0.00     0.246 C 
HETATM   15  F1  UNL     1      33.584  34.693  17.834  1.00  0.00    -0.206 F 
HETATM   16  F2  UNL     1      33.852  34.237  15.701  1.00  0.00    -0.206 F 
HETATM   17  C19 UNL     1      33.104  32.444  17.137  1.00  0.00     0.113 C 
HETATM   18  C20 UNL     1      33.600  32.233  18.553  1.00  0.00     0.185 C 
HETATM   19  C21 UNL     1      35.079  32.366  18.547  1.00  0.00     0.241 C 
HETATM   20  O4  UNL     1      35.669  31.566  17.733  1.00  0.00    -0.271 OA
HETATM   21  N3  UNL     1      35.853  33.244  19.312  1.00  0.00    -0.346 N 
ATOM     22  H3  UNL     1      36.553  33.773  18.792  1.00  0.00     0.163 HD
HETATM   23  C22 UNL     1      35.808  33.509  20.709  1.00  0.00     0.180 C 
HETATM   24  C26 UNL     1      34.488  33.708  21.307  1.00  0.00     0.243 C 
HETATM   25  O5  UNL     1      33.998  34.890  21.223  1.00  0.00    -0.271 OA
HETATM   26  N4  UNL     1      33.689  32.760  21.964  1.00  0.00    -0.327 N 
ATOM     27  H4  UNL     1      33.166  33.077  22.780  1.00  0.00     0.165 HD
HETATM   28  C27 UNL     1      33.545  31.368  21.582  1.00  0.00     0.289 C 
HETATM   29  F3  UNL     1      34.756  30.780  21.328  1.00  0.00    -0.225 F 
HETATM   30  C28 UNL     1      32.523  31.174  20.500  1.00  0.00     0.185 C 
HETATM   31  N5  UNL     1      33.151  31.002  19.174  1.00  0.00    -0.332 N 
HETATM   32  C29 UNL     1      33.263  29.712  18.671  1.00  0.00     0.243 C 
HETATM   33  O6  UNL     1      33.637  28.807  19.507  1.00  0.00    -0.271 OA
ENDROOT
BRANCH   1  34
HETATM   34  N1  UNL     1      34.139  28.287  16.943  1.00  0.00    -0.348 N 
HETATM   35  C8  UNL     1      34.631  28.211  15.622  1.00  0.00     0.218 C 
HETATM   36  O1  UNL     1      34.109  28.920  14.726  1.00  0.00    -0.274 OA
ATOM     37  H1  UNL     1      34.570  27.706  17.663  1.00  0.00     0.163 HD
BRANCH  35  38
HETATM   38  C7  UNL     1      35.741  27.308  15.313  1.00  0.00     0.107 C 
BRANCH  38  39
HETATM   39  C5  UNL     1      36.990  28.121  14.889  1.00  0.00    -0.007 C 
HETATM   40  C6  UNL     1      38.188  27.345  15.533  1.00  0.00     0.011 C 
BRANCH  39  41
HETATM   41  C4  UNL     1      37.191  28.037  13.421  1.00  0.00     0.031 C 
BRANCH  41  42
HETATM   42  C3  UNL     1      38.584  28.072  12.953  1.00  0.00    -0.031 C 
HETATM   43  C2  UNL     1      39.026  28.859  12.016  1.00  0.00    -0.035 C 
HETATM   44  C1  UNL     1      40.454  28.820  11.608  1.00  0.00     0.036 C 
ENDBRANCH  41  42
ENDBRANCH  39  41
ENDBRANCH  38  39
ENDBRANCH  35  38
ENDBRANCH   1  34
BRANCH  23  45
HETATM   45  C23 UNL     1      36.629  34.756  21.040  1.00  0.00     0.009 C 
HETATM   46  C24 UNL     1      37.043  34.756  22.494  1.00  0.00     0.012 C 
HETATM   47  C25 UNL     1      37.813  34.920  20.143  1.00  0.00     0.012 C 
ENDBRANCH  23  45
TORSDOF 6
ENDMDL
MODEL 4
REMARK VINA RESULT: -8.650325924      2.575      6.608
REMARK  6 active torsions:
REMARK  status: ('A' for Active; 'I' for Inactive)
REMARK    1  A    between atoms: C3_3  and  C4_4 
REMARK    2  A    between atoms: C4_4  and  C5_5 
REMARK    3  A    between atoms: C5_5  and  C7_7 
REMARK    4  A    between atoms: C7_7  and  C8_8 
REMARK       I    between atoms: C8_8  and  N1_10 
REMARK    5  A    between atoms: N1_10  and  C9_12 
REMARK    6  A    between atoms: C22_34  and  C23_35 
ROOT
HETATM    1  C9  UNL     1      33.242  30.248  19.576  1.00  0.00     0.176 C 
HETATM    2  C10 UNL     1      31.831  30.427  20.174  1.00  0.00     0.036 C 
HETATM    3  C11 UNL     1      31.785  29.806  21.553  1.00  0.00     0.022 C 
HETATM    4  C12 UNL     1      32.009  28.327  21.523  1.00  0.00     0.125 C 
HETATM    5  N2  UNL     1      31.473  27.729  22.750  1.00  0.00    -0.337 N 
ATOM      6  H2  UNL     1      30.571  28.045  23.105  1.00  0.00     0.164 HD
HETATM    7  C13 UNL     1      32.179  26.719  23.460  1.00  0.00     0.360 C 
HETATM    8  O2  UNL     1      31.735  26.442  24.630  1.00  0.00    -0.239 OA
HETATM    9  O3  UNL     1      33.264  26.101  22.902  1.00  0.00    -0.304 OA
HETATM   10  C14 UNL     1      33.338  25.395  21.703  1.00  0.00     0.180 C 
HETATM   11  C15 UNL     1      34.808  25.390  21.262  1.00  0.00     0.027 C 
HETATM   12  C16 UNL     1      35.043  24.436  20.126  1.00  0.00     0.008 C 
HETATM   13  C17 UNL     1      34.595  25.047  18.818  1.00  0.00     0.079 C 
HETATM   14  C18 UNL     1      35.495  26.196  18.403  1.00  0.00     0.246 C 
HETATM   15  F1  UNL     1      35.808  25.985  17.073  1.00  0.00    -0.206 F 
HETATM   16  F2  UNL     1      36.702  26.162  19.073  1.00  0.00    -0.206 F 
HETATM   17  C19 UNL     1      34.756  27.514  18.600  1.00  0.00     0.113 C 
HETATM   18  C20 UNL     1      34.493  28.176  17.263  1.00  0.00     0.185 C 
HETATM   19  C21 UNL     1      35.750  28.829  16.817  1.00  0.00     0.241 C 
HETATM   20  O4  UNL     1      36.223  29.675  17.660  1.00  0.00    -0.271 OA
HETATM   21  N3  UNL     1      36.436  28.615  15.618  1.00  0.00    -0.346 N 
ATOM     22  H3  UNL     1      37.437  28.449  15.713  1.00  0.00     0.163 HD
HETATM   23  C22 UNL     1      35.942  28.595  14.284  1.00  0.00     0.180 C 
HETATM   24  C26 UNL     1      34.713  27.841  14.040  1.00  0.00     0.243 C 
HETATM   25  O5  UNL     1      34.847  26.581  13.846  1.00  0.00    -0.271 OA
HETATM   26  N4  UNL     1      33.398  28.331  13.991  1.00  0.00    -0.327 N 
ATOM     27  H4  UNL     1      32.776  27.926  13.293  1.00  0.00     0.165 HD
HETATM   28  C27 UNL     1      32.851  29.364  14.850  1.00  0.00     0.289 C 
HETATM   29  F3  UNL     1      33.689  30.444  14.947  1.00  0.00    -0.225 F 
HETATM   30  C28 UNL     1      32.381  28.824  16.169  1.00  0.00     0.185 C 
HETATM   31  N5  UNL     1      33.358  29.078  17.248  1.00  0.00    -0.332 N 
HETATM   32  C29 UNL     1      33.111  30.139  18.110  1.00  0.00     0.243 C 
HETATM   33  O6  UNL     1      32.692  31.228  17.565  1.00  0.00    -0.271 OA
ENDROOT
BRANCH   1  34
HETATM   34  N1  UNL     1      33.924  31.511  19.911  1.00  0.00    -0.348 N 
HETATM   35  C8  UNL     1      35.207  31.542  20.498  1.00  0.00     0.218 C 
HETATM   36  O1  UNL     1      35.798  30.461  20.749  1.00  0.00    -0.274 OA
ATOM     37  H1  UNL     1      33.453  32.394  19.711  1.00  0.00     0.163 HD
BRANCH  35  38
HETATM   38  C7  UNL     1      35.832  32.829  20.807  1.00  0.00     0.107 C 
BRANCH  38  39
HETATM   39  C5  UNL     1      36.949  33.143  19.781  1.00  0.00    -0.007 C 
HETATM   40  C6  UNL     1      36.374  34.333  18.942  1.00  0.00     0.011 C 
BRANCH  39  41
HETATM   41  C4  UNL     1      38.153  33.671  20.468  1.00  0.00     0.031 C 
BRANCH  41  42
HETATM   42  C3  UNL     1      38.091  35.075  20.898  1.00  0.00    -0.031 C 
HETATM   43  C2  UNL     1      38.091  35.466  22.139  1.00  0.00    -0.035 C 
HETATM   44  C1  UNL     1      38.023  36.911  22.476  1.00  0.00     0.036 C 
ENDBRANCH  41  42
ENDBRANCH  39  41
ENDBRANCH  38  39
ENDBRANCH  35  38
ENDBRANCH   1  34
BRANCH  23  45
HETATM   45  C23 UNL     1      36.998  28.026  13.335  1.00  0.00     0.009 C 
HETATM   46  C24 UNL     1      37.494  29.091  12.383  1.00  0.00     0.012 C 
HETATM   47  C25 UNL     1      38.134  27.380  14.059  1.00  0.00     0.012 C 
ENDBRANCH  23  45
TORSDOF 6
ENDMDL
MODEL 5
REMARK VINA RESULT: -8.446161271      0.958      1.809
REMARK  6 active torsions:
REMARK  status: ('A' for Active; 'I' for Inactive)
REMARK    1  A    between atoms: C3_3  and  C4_4 
REMARK    2  A    between atoms: C4_4  and  C5_5 
REMARK    3  A    between atoms: C5_5  and  C7_7 
REMARK    4  A    between atoms: C7_7  and  C8_8 
REMARK       I    between atoms: C8_8  and  N1_10 
REMARK    5  A    between atoms: N1_10  and  C9_12 
REMARK    6  A    between atoms: C22_34  and  C23_35 
ROOT
HETATM    1  C9  UNL     1      35.483  28.792  19.126  1.00  0.00     0.176 C 
HETATM    2  C10 UNL     1      36.490  27.643  19.341  1.00  0.00     0.036 C 
HETATM    3  C11 UNL     1      37.464  27.602  18.185  1.00  0.00     0.022 C 
HETATM    4  C12 UNL     1      36.796  27.293  16.883  1.00  0.00     0.125 C 
HETATM    5  N2  UNL     1      37.792  26.784  15.934  1.00  0.00    -0.337 N 
ATOM      6  H2  UNL     1      38.490  26.115  16.258  1.00  0.00     0.164 HD
HETATM    7  C13 UNL     1      37.810  27.200  14.575  1.00  0.00     0.360 C 
HETATM    8  O2  UNL     1      38.854  26.877  13.904  1.00  0.00    -0.239 OA
HETATM    9  O3  UNL     1      36.764  27.901  14.043  1.00  0.00    -0.304 OA
HETATM   10  C14 UNL     1      35.420  27.537  13.977  1.00  0.00     0.180 C 
HETATM   11  C15 UNL     1      34.601  28.826  13.823  1.00  0.00     0.027 C 
HETATM   12  C16 UNL     1      33.168  28.535  13.478  1.00  0.00     0.008 C 
HETATM   13  C17 UNL     1      32.397  28.125  14.711  1.00  0.00     0.079 C 
HETATM   14  C18 UNL     1      32.218  29.289  15.668  1.00  0.00     0.246 C 
HETATM   15  F1  UNL     1      30.883  29.297  16.026  1.00  0.00    -0.206 F 
HETATM   16  F2  UNL     1      32.433  30.500  15.038  1.00  0.00    -0.206 F 
HETATM   17  C19 UNL     1      33.120  29.093  16.879  1.00  0.00     0.113 C 
HETATM   18  C20 UNL     1      32.289  28.868  18.126  1.00  0.00     0.185 C 
HETATM   19  C21 UNL     1      31.784  30.187  18.586  1.00  0.00     0.241 C 
HETATM   20  O4  UNL     1      32.710  31.049  18.805  1.00  0.00    -0.271 OA
HETATM   21  N3  UNL     1      30.452  30.558  18.793  1.00  0.00    -0.346 N 
ATOM     22  H3  UNL     1      30.176  31.442  18.366  1.00  0.00     0.163 HD
HETATM   23  C22 UNL     1      29.426  29.884  19.511  1.00  0.00     0.180 C 
HETATM   24  C26 UNL     1      29.280  28.449  19.276  1.00  0.00     0.243 C 
HETATM   25  O5  UNL     1      28.581  28.106  18.257  1.00  0.00    -0.271 OA
HETATM   26  N4  UNL     1      29.815  27.394  20.032  1.00  0.00    -0.327 N 
ATOM     27  H4  UNL     1      29.231  26.568  20.159  1.00  0.00     0.165 HD
HETATM   28  C27 UNL     1      31.129  27.380  20.649  1.00  0.00     0.289 C 
HETATM   29  F3  UNL     1      31.387  28.544  21.324  1.00  0.00    -0.225 F 
HETATM   30  C28 UNL     1      32.208  26.966  19.691  1.00  0.00     0.185 C 
HETATM   31  N5  UNL     1      32.961  28.129  19.175  1.00  0.00    -0.332 N 
HETATM   32  C29 UNL     1      34.199  28.402  19.742  1.00  0.00     0.243 C 
HETATM   33  O6  UNL     1      34.271  28.306  21.024  1.00  0.00    -0.271 OA
ENDROOT
BRANCH   1  34
HETATM   34  N1  UNL     1      36.066  29.912  19.885  1.00  0.00    -0.348 N 
HETATM   35  C8  UNL     1      36.560  31.074  19.254  1.00  0.00     0.218 C 
HETATM   36  O1  UNL     1      36.507  31.167  18.002  1.00  0.00    -0.274 OA
ATOM     37  H1  UNL     1      36.114  29.846  20.902  1.00  0.00     0.163 HD
BRANCH  35  38
HETATM   38  C7  UNL     1      37.129  32.152  20.064  1.00  0.00     0.107 C 
BRANCH  38  39
HETATM   39  C5  UNL     1      36.092  33.290  20.244  1.00  0.00    -0.007 C 
HETATM   40  C6  UNL     1      36.719  34.207  21.347  1.00  0.00     0.011 C 
BRANCH  39  41
HETATM   41  C4  UNL     1      36.015  34.122  19.018  1.00  0.00     0.031 C 
BRANCH  41  42
HETATM   42  C3  UNL     1      34.756  34.048  18.262  1.00  0.00    -0.031 C 
HETATM   43  C2  UNL     1      34.679  33.883  16.974  1.00  0.00    -0.035 C 
HETATM   44  C1  UNL     1      33.359  33.825  16.297  1.00  0.00     0.036 C 
ENDBRANCH  41  42
ENDBRANCH  39  41
ENDBRANCH  38  39
ENDBRANCH  35  38
ENDBRANCH   1  34
BRANCH  23  45
HETATM   45  C23 UNL     1      28.065  30.515  19.210  1.00  0.00     0.009 C 
HETATM   46  C24 UNL     1      27.338  30.861  20.489  1.00  0.00     0.012 C 
HETATM   47  C25 UNL     1      28.168  31.704  18.311  1.00  0.00     0.012 C 
ENDBRANCH  23  45
TORSDOF 6
ENDMDL
