MODEL 1
REMARK VINA RESULT: -7.215366001      0.000      0.000
REMARK  10 active torsions:
REMARK  status: ('A' for Active; 'I' for Inactive)
REMARK    1  A    between atoms: C3_3  and  O1_4 
REMARK       I    between atoms: N1_8  and  C6_9 
REMARK       I    between atoms: C6_9  and  N2_11 
REMARK    2  A    between atoms: N2_11  and  C7_13 
REMARK    3  A    between atoms: C7_13  and  C8_14 
REMARK    4  A    between atoms: C7_13  and  C9_19 
REMARK    5  A    between atoms: C8_14  and  N3_15 
REMARK    6  A    between atoms: C9_19  and  O3_20 
REMARK    7  A    between atoms: C9_19  and  N4_22 
REMARK       I    between atoms: N5_25  and  C12_26 
REMARK       I    between atoms: C12_26  and  N7_33 
REMARK    8  A    between atoms: N6_27  and  C13_29 
REMARK    9  A    between atoms: C13_29  and  C15_31 
REMARK   10  A    between atoms: N7_33  and  C17_35 
ROOT
HETATM    1  C1  UNL     1      30.809  31.291  13.986  1.00  0.00     0.015 C 
HETATM    2  C2  UNL     1      30.644  30.089  13.893  1.00  0.00    -0.079 C 
HETATM    3  C3  UNL     1      30.445  28.649  13.756  1.00  0.00     0.123 C 
HETATM    4  C4  UNL     1      30.726  28.006  15.082  1.00  0.00     0.071 C 
HETATM    5  C5  UNL     1      32.139  28.354  15.504  1.00  0.00     0.131 C 
HETATM    6  N1  UNL     1      33.130  28.118  14.503  1.00  0.00    -0.334 N 
HETATM    7  C6  UNL     1      34.380  27.524  14.780  1.00  0.00     0.319 C 
HETATM    8  O2  UNL     1      35.228  27.343  13.830  1.00  0.00    -0.247 OA
HETATM    9  N2  UNL     1      34.749  27.114  16.056  1.00  0.00    -0.329 N 
ATOM     10  H2  UNL     1      34.084  27.246  16.818  1.00  0.00     0.165 HD
HETATM   11  C26 UNL     1      32.854  28.517  13.125  1.00  0.00     0.131 C 
HETATM   12  C27 UNL     1      31.458  28.077  12.770  1.00  0.00     0.071 C 
ENDROOT
BRANCH   3  13
HETATM   13  O1  UNL     1      29.174  28.343  13.278  1.00  0.00    -0.377 OA
ATOM     14  H1  UNL     1      28.936  27.440  13.454  1.00  0.00     0.211 HD
ENDBRANCH   3  13
BRANCH   9  15
HETATM   15  C7  UNL     1      36.065  26.494  16.366  1.00  0.00     0.186 C 
BRANCH  15  16
HETATM   16  C8  UNL     1      35.822  25.386  17.308  1.00  0.00     0.263 C 
BRANCH  16  17
HETATM   17  N3  UNL     1      36.976  25.138  18.185  1.00  0.00    -0.077 N 
ATOM     18  H33 UNL     1      37.050  24.150  18.426  1.00  0.00     0.274 HD
ATOM     19  H32 UNL     1      37.855  25.248  17.677  1.00  0.00     0.274 HD
ATOM     20  H31 UNL     1      36.959  25.722  19.022  1.00  0.00     0.274 HD
ENDBRANCH  16  17
ENDBRANCH  15  16
BRANCH  15  21
HETATM   21  C9  UNL     1      36.973  27.553  16.829  1.00  0.00     0.138 C 
BRANCH  21  22
HETATM   22  O3  UNL     1      38.224  27.317  16.503  1.00  0.00    -0.348 OA
ATOM     23  H3  UNL     1      38.525  27.873  15.795  1.00  0.00     0.219 HD
ENDBRANCH  21  22
BRANCH  21  24
HETATM   24  N4  UNL     1      36.782  28.728  17.526  1.00  0.00    -0.359 N 
HETATM   25  C10 UNL     1      36.194  29.918  16.976  1.00  0.00     0.145 C 
HETATM   26  C11 UNL     1      36.407  31.064  17.955  1.00  0.00     0.163 C 
HETATM   27  N5  UNL     1      35.811  30.726  19.214  1.00  0.00    -0.197 N 
HETATM   28  C12 UNL     1      35.108  31.689  19.977  1.00  0.00     0.678 C 
HETATM   29  C24 UNL     1      35.994  29.348  19.668  1.00  0.00     0.217 C 
HETATM   30  N6  UNL     1      33.986  32.118  19.627  1.00  0.00    -0.222 N 
HETATM   31  N7  UNL     1      35.674  32.210  21.209  1.00  0.00    -0.189 N 
ATOM     32  H6  UNL     1      33.604  32.805  20.277  1.00  0.00     0.178 HD
ATOM     33  H7  UNL     1      36.586  31.874  21.516  1.00  0.00     0.184 HD
HETATM   34 CL3  UNL     1      34.616  28.310  19.270  1.00  0.00    -0.100 Cl
HETATM   35  C25 UNL     1      37.213  28.744  18.949  1.00  0.00     0.166 C 
BRANCH  30  36
HETATM   36  C13 UNL     1      33.131  31.862  18.537  1.00  0.00     0.095 C 
HETATM   37  C14 UNL     1      32.505  33.123  17.953  1.00  0.00     0.032 C 
BRANCH  36  38
HETATM   38  C15 UNL     1      32.004  30.915  19.006  1.00  0.00     0.021 C 
HETATM   39  C16 UNL     1      30.880  30.864  17.993  1.00  0.00     0.007 C 
ENDBRANCH  36  38
ENDBRANCH  30  36
BRANCH  31  40
HETATM   40  C17 UNL     1      35.000  33.161  21.989  1.00  0.00     0.091 A 
HETATM   41  C18 UNL     1      35.120  34.515  21.746  1.00  0.00     0.064 A 
HETATM   42 CL1  UNL     1      36.152  35.042  20.426  1.00  0.00    -0.082 Cl
HETATM   43  C19 UNL     1      34.437  35.439  22.527  1.00  0.00     0.050 A 
HETATM   44  C20 UNL     1      33.619  35.048  23.570  1.00  0.00     0.037 A 
HETATM   45 CL2  UNL     1      32.756  36.236  24.553  1.00  0.00    -0.084 Cl
HETATM   46  C21 UNL     1      33.499  33.697  23.813  1.00  0.00     0.049 A 
HETATM   47  C22 UNL     1      34.172  32.774  23.044  1.00  0.00     0.075 A 
HETATM   48  C23 UNL     1      34.050  31.355  23.294  1.00  0.00     0.102 C 
HETATM   49  N8  UNL     1      33.968  30.225  23.485  1.00  0.00    -0.191 NA
ENDBRANCH  31  40
ENDBRANCH  21  24
ENDBRANCH  15  21
ENDBRANCH   9  15
TORSDOF 10
ENDMDL
MODEL 2
REMARK VINA RESULT: -7.214908005      3.889      8.981
REMARK  10 active torsions:
REMARK  status: ('A' for Active; 'I' for Inactive)
REMARK    1  A    between atoms: C3_3  and  O1_4 
REMARK       I    between atoms: N1_8  and  C6_9 
REMARK       I    between atoms: C6_9  and  N2_11 
REMARK    2  A    between atoms: N2_11  and  C7_13 
REMARK    3  A    between atoms: C7_13  and  C8_14 
REMARK    4  A    between atoms: C7_13  and  C9_19 
REMARK    5  A    between atoms: C8_14  and  N3_15 
REMARK    6  A    between atoms: C9_19  and  O3_20 
REMARK    7  A    between atoms: C9_19  and  N4_22 
REMARK       I    between atoms: N5_25  and  C12_26 
REMARK       I    between atoms: C12_26  and  N7_33 
REMARK    8  A    between atoms: N6_27  and  C13_29 
REMARK    9  A    between atoms: C13_29  and  C15_31 
REMARK   10  A    between atoms: N7_33  and  C17_35 
ROOT
HETATM    1  C1  UNL     1      36.928  34.846  20.288  1.00  0.00     0.015 C 
HETATM    2  C2  UNL     1      36.505  35.116  21.397  1.00  0.00    -0.079 C 
HETATM    3  C3  UNL     1      35.993  35.465  22.718  1.00  0.00     0.123 C 
HETATM    4  C4  UNL     1      35.839  34.202  23.513  1.00  0.00     0.071 C 
HETATM    5  C5  UNL     1      34.914  33.264  22.765  1.00  0.00     0.131 C 
HETATM    6  N1  UNL     1      33.685  33.858  22.344  1.00  0.00    -0.334 N 
HETATM    7  C6  UNL     1      32.436  33.211  22.460  1.00  0.00     0.319 C 
HETATM    8  O2  UNL     1      31.367  33.803  22.057  1.00  0.00    -0.247 OA
HETATM    9  N2  UNL     1      32.298  31.937  23.001  1.00  0.00    -0.329 N 
ATOM     10  H2  UNL     1      33.136  31.458  23.330  1.00  0.00     0.165 HD
HETATM   11  C26 UNL     1      33.710  35.192  21.752  1.00  0.00     0.131 C 
HETATM   12  C27 UNL     1      34.599  36.071  22.591  1.00  0.00     0.071 C 
ENDROOT
BRANCH   3  13
HETATM   13  O1  UNL     1      36.801  36.400  23.361  1.00  0.00    -0.377 OA
ATOM     14  H1  UNL     1      36.437  37.276  23.312  1.00  0.00     0.211 HD
ENDBRANCH   3  13
BRANCH   9  15
HETATM   15  C7  UNL     1      30.991  31.239  23.123  1.00  0.00     0.186 C 
BRANCH  15  16
HETATM   16  C8  UNL     1      30.666  31.154  24.559  1.00  0.00     0.263 C 
BRANCH  16  17
HETATM   17  N3  UNL     1      31.788  30.639  25.355  1.00  0.00    -0.077 N 
ATOM     18  H33 UNL     1      32.667  30.708  24.841  1.00  0.00     0.274 HD
ATOM     19  H32 UNL     1      32.006  31.262  26.133  1.00  0.00     0.274 HD
ATOM     20  H31 UNL     1      31.626  29.685  25.680  1.00  0.00     0.274 HD
ENDBRANCH  16  17
ENDBRANCH  15  16
BRANCH  15  21
HETATM   21  C9  UNL     1      31.084  29.961  22.403  1.00  0.00     0.138 C 
BRANCH  21  22
HETATM   22  O3  UNL     1      30.585  28.960  23.092  1.00  0.00    -0.348 OA
ATOM     23  H3  UNL     1      30.397  28.204  22.549  1.00  0.00     0.219 HD
ENDBRANCH  21  22
BRANCH  21  24
HETATM   24  N4  UNL     1      31.582  29.604  21.167  1.00  0.00    -0.359 N 
HETATM   25  C10 UNL     1      31.390  30.358  19.960  1.00  0.00     0.145 C 
HETATM   26  C11 UNL     1      31.846  29.513  18.778  1.00  0.00     0.163 C 
HETATM   27  N5  UNL     1      33.225  29.159  18.956  1.00  0.00    -0.197 N 
HETATM   28  C12 UNL     1      34.128  29.156  17.866  1.00  0.00     0.678 C 
HETATM   29  C24 UNL     1      33.628  28.782  20.309  1.00  0.00     0.217 C 
HETATM   30  N6  UNL     1      34.529  30.217  17.337  1.00  0.00    -0.222 N 
HETATM   31  N7  UNL     1      34.630  27.904  17.328  1.00  0.00    -0.189 N 
ATOM     32  H6  UNL     1      35.176  30.055  16.566  1.00  0.00     0.178 HD
ATOM     33  H7  UNL     1      34.320  27.026  17.744  1.00  0.00     0.184 HD
HETATM   34 CL3  UNL     1      34.345  30.130  21.208  1.00  0.00    -0.100 Cl
HETATM   35  C25 UNL     1      32.379  28.350  21.100  1.00  0.00     0.166 C 
BRANCH  30  36
HETATM   36  C13 UNL     1      34.286  31.584  17.569  1.00  0.00     0.095 C 
HETATM   37  C14 UNL     1      33.418  32.234  16.498  1.00  0.00     0.032 C 
BRANCH  36  38
HETATM   38  C15 UNL     1      35.642  32.323  17.630  1.00  0.00     0.021 C 
HETATM   39  C16 UNL     1      35.495  33.767  17.202  1.00  0.00     0.007 C 
ENDBRANCH  36  38
ENDBRANCH  30  36
BRANCH  31  40
HETATM   40  C17 UNL     1      35.529  27.868  16.252  1.00  0.00     0.091 A 
HETATM   41  C18 UNL     1      35.103  27.996  14.945  1.00  0.00     0.064 A 
HETATM   42 CL1  UNL     1      33.386  28.201  14.640  1.00  0.00    -0.082 Cl
HETATM   43  C19 UNL     1      36.013  27.964  13.896  1.00  0.00     0.050 A 
HETATM   44  C20 UNL     1      37.369  27.805  14.112  1.00  0.00     0.037 A 
HETATM   45 CL2  UNL     1      38.513  27.769  12.766  1.00  0.00    -0.084 Cl
HETATM   46  C21 UNL     1      37.795  27.677  15.416  1.00  0.00     0.049 A 
HETATM   47  C22 UNL     1      36.900  27.707  16.463  1.00  0.00     0.075 A 
HETATM   48  C23 UNL     1      37.341  27.573  17.833  1.00  0.00     0.102 C 
HETATM   49  N8  UNL     1      37.675  27.463  18.927  1.00  0.00    -0.191 NA
ENDBRANCH  31  40
ENDBRANCH  21  24
ENDBRANCH  15  21
ENDBRANCH   9  15
TORSDOF 10
ENDMDL
MODEL 3
REMARK VINA RESULT: -7.204620158      1.049      1.715
REMARK  10 active torsions:
REMARK  status: ('A' for Active; 'I' for Inactive)
REMARK    1  A    between atoms: C3_3  and  O1_4 
REMARK       I    between atoms: N1_8  and  C6_9 
REMARK       I    between atoms: C6_9  and  N2_11 
REMARK    2  A    between atoms: N2_11  and  C7_13 
REMARK    3  A    between atoms: C7_13  and  C8_14 
REMARK    4  A    between atoms: C7_13  and  C9_19 
REMARK    5  A    between atoms: C8_14  and  N3_15 
REMARK    6  A    between atoms: C9_19  and  O3_20 
REMARK    7  A    between atoms: C9_19  and  N4_22 
REMARK       I    between atoms: N5_25  and  C12_26 
REMARK       I    between atoms: C12_26  and  N7_33 
REMARK    8  A    between atoms: N6_27  and  C13_29 
REMARK    9  A    between atoms: C13_29  and  C15_31 
REMARK   10  A    between atoms: N7_33  and  C17_35 
ROOT
HETATM    1  C1  UNL     1      30.900  31.347  13.939  1.00  0.00     0.015 C 
HETATM    2  C2  UNL     1      30.721  30.146  13.870  1.00  0.00    -0.079 C 
HETATM    3  C3  UNL     1      30.504  28.706  13.761  1.00  0.00     0.123 C 
HETATM    4  C4  UNL     1      30.765  28.087  15.102  1.00  0.00     0.071 C 
HETATM    5  C5  UNL     1      32.178  28.426  15.530  1.00  0.00     0.131 C 
HETATM    6  N1  UNL     1      33.175  28.156  14.544  1.00  0.00    -0.334 N 
HETATM    7  C6  UNL     1      34.415  27.552  14.846  1.00  0.00     0.319 C 
HETATM    8  O2  UNL     1      35.270  27.341  13.908  1.00  0.00    -0.247 OA
HETATM    9  N2  UNL     1      34.767  27.165  16.134  1.00  0.00    -0.329 N 
ATOM     10  H2  UNL     1      34.096  27.321  16.886  1.00  0.00     0.165 HD
HETATM   11  C26 UNL     1      32.918  28.530  13.156  1.00  0.00     0.131 C 
HETATM   12  C27 UNL     1      31.519  28.101  12.797  1.00  0.00     0.071 C 
ENDROOT
BRANCH   3  13
HETATM   13  O1  UNL     1      29.234  28.405  13.277  1.00  0.00    -0.377 OA
ATOM     14  H1  UNL     1      29.266  27.793  12.552  1.00  0.00     0.211 HD
ENDBRANCH   3  13
BRANCH   9  15
HETATM   15  C7  UNL     1      36.072  26.535  16.468  1.00  0.00     0.186 C 
BRANCH  15  16
HETATM   16  C8  UNL     1      35.802  25.424  17.400  1.00  0.00     0.263 C 
BRANCH  16  17
HETATM   17  N3  UNL     1      37.020  24.955  18.076  1.00  0.00    -0.077 N 
ATOM     18  H33 UNL     1      36.863  24.832  19.076  1.00  0.00     0.274 HD
ATOM     19  H32 UNL     1      37.232  23.989  17.825  1.00  0.00     0.274 HD
ATOM     20  H31 UNL     1      37.818  25.566  17.901  1.00  0.00     0.274 HD
ENDBRANCH  16  17
ENDBRANCH  15  16
BRANCH  15  21
HETATM   21  C9  UNL     1      36.976  27.585  16.957  1.00  0.00     0.138 C 
BRANCH  21  22
HETATM   22  O3  UNL     1      38.236  27.329  16.681  1.00  0.00    -0.348 OA
ATOM     23  H3  UNL     1      38.392  27.244  15.749  1.00  0.00     0.219 HD
ENDBRANCH  21  22
BRANCH  21  24
HETATM   24  N4  UNL     1      36.775  28.769  17.636  1.00  0.00    -0.359 N 
HETATM   25  C10 UNL     1      36.271  29.976  17.042  1.00  0.00     0.145 C 
HETATM   26  C11 UNL     1      36.451  31.119  18.032  1.00  0.00     0.163 C 
HETATM   27  N5  UNL     1      35.752  30.806  19.245  1.00  0.00    -0.197 N 
HETATM   28  C12 UNL     1      35.029  31.796  19.953  1.00  0.00     0.678 C 
HETATM   29  C24 UNL     1      35.853  29.425  19.713  1.00  0.00     0.217 C 
HETATM   30  N6  UNL     1      33.951  32.261  19.520  1.00  0.00    -0.222 N 
HETATM   31  N7  UNL     1      35.520  32.302  21.222  1.00  0.00    -0.189 N 
ATOM     32  H6  UNL     1      33.547  32.964  20.139  1.00  0.00     0.178 HD
ATOM     33  H7  UNL     1      36.395  31.936  21.596  1.00  0.00     0.184 HD
HETATM   34 CL3  UNL     1      34.473  28.433  19.216  1.00  0.00    -0.100 Cl
HETATM   35  C25 UNL     1      37.101  28.776  19.087  1.00  0.00     0.166 C 
BRANCH  30  36
HETATM   36  C13 UNL     1      33.170  32.031  18.371  1.00  0.00     0.095 C 
HETATM   37  C14 UNL     1      32.593  33.306  17.768  1.00  0.00     0.032 C 
BRANCH  36  38
HETATM   38  C15 UNL     1      32.008  31.084  18.745  1.00  0.00     0.021 C 
HETATM   39  C16 UNL     1      30.901  31.148  17.715  1.00  0.00     0.007 C 
ENDBRANCH  36  38
ENDBRANCH  30  36
BRANCH  31  40
HETATM   40  C17 UNL     1      34.824  33.279  21.948  1.00  0.00     0.091 A 
HETATM   41  C18 UNL     1      33.771  32.954  22.780  1.00  0.00     0.064 A 
HETATM   42 CL1  UNL     1      33.299  31.267  22.913  1.00  0.00    -0.082 Cl
HETATM   43  C19 UNL     1      33.101  33.938  23.494  1.00  0.00     0.050 A 
HETATM   44  C20 UNL     1      33.455  35.271  23.406  1.00  0.00     0.037 A 
HETATM   45 CL2  UNL     1      32.593  36.511  24.323  1.00  0.00    -0.084 Cl
HETATM   46  C21 UNL     1      34.505  35.597  22.576  1.00  0.00     0.049 A 
HETATM   47  C22 UNL     1      35.176  34.628  21.863  1.00  0.00     0.075 A 
HETATM   48  C23 UNL     1      36.279  34.964  20.991  1.00  0.00     0.102 C 
HETATM   49  N8  UNL     1      37.154  35.216  20.290  1.00  0.00    -0.191 NA
ENDBRANCH  31  40
ENDBRANCH  21  24
ENDBRANCH  15  21
ENDBRANCH   9  15
TORSDOF 10
ENDMDL
MODEL 4
REMARK VINA RESULT: -7.128734147      3.802      8.886
REMARK  10 active torsions:
REMARK  status: ('A' for Active; 'I' for Inactive)
REMARK    1  A    between atoms: C3_3  and  O1_4 
REMARK       I    between atoms: N1_8  and  C6_9 
REMARK       I    between atoms: C6_9  and  N2_11 
REMARK    2  A    between atoms: N2_11  and  C7_13 
REMARK    3  A    between atoms: C7_13  and  C8_14 
REMARK    4  A    between atoms: C7_13  and  C9_19 
REMARK    5  A    between atoms: C8_14  and  N3_15 
REMARK    6  A    between atoms: C9_19  and  O3_20 
REMARK    7  A    between atoms: C9_19  and  N4_22 
REMARK       I    between atoms: N5_25  and  C12_26 
REMARK       I    between atoms: C12_26  and  N7_33 
REMARK    8  A    between atoms: N6_27  and  C13_29 
REMARK    9  A    between atoms: C13_29  and  C15_31 
REMARK   10  A    between atoms: N7_33  and  C17_35 
ROOT
HETATM    1  C1  UNL     1      35.825  34.857  20.647  1.00  0.00     0.015 C 
HETATM    2  C2  UNL     1      35.475  34.683  21.799  1.00  0.00    -0.079 C 
HETATM    3  C3  UNL     1      35.047  34.499  23.183  1.00  0.00     0.123 C 
HETATM    4  C4  UNL     1      35.032  33.029  23.480  1.00  0.00     0.071 C 
HETATM    5  C5  UNL     1      34.109  32.341  22.496  1.00  0.00     0.131 C 
HETATM    6  N1  UNL     1      32.818  32.939  22.379  1.00  0.00    -0.334 N 
HETATM    7  C6  UNL     1      31.623  32.191  22.321  1.00  0.00     0.319 C 
HETATM    8  O2  UNL     1      30.492  32.795  22.212  1.00  0.00    -0.247 OA
HETATM    9  N2  UNL     1      31.605  30.802  22.377  1.00  0.00    -0.329 N 
ATOM     10  H2  UNL     1      32.493  30.309  22.469  1.00  0.00     0.165 HD
HETATM   11  C26 UNL     1      32.716  34.394  22.302  1.00  0.00     0.131 C 
HETATM   12  C27 UNL     1      33.614  34.992  23.353  1.00  0.00     0.071 C 
ENDROOT
BRANCH   3  13
HETATM   13  O1  UNL     1      35.845  35.212  24.074  1.00  0.00    -0.377 OA
ATOM     14  H1  UNL     1      35.574  36.119  24.145  1.00  0.00     0.211 HD
ENDBRANCH   3  13
BRANCH   9  15
HETATM   15  C7  UNL     1      30.355  29.998  22.309  1.00  0.00     0.186 C 
BRANCH  15  16
HETATM   16  C8  UNL     1      30.064  29.514  23.671  1.00  0.00     0.263 C 
BRANCH  16  17
HETATM   17  N3  UNL     1      31.181  28.743  24.238  1.00  0.00    -0.077 N 
ATOM     18  H33 UNL     1      30.913  27.773  24.403  1.00  0.00     0.274 HD
ATOM     19  H32 UNL     1      31.914  28.593  23.544  1.00  0.00     0.274 HD
ATOM     20  H31 UNL     1      31.555  29.171  25.085  1.00  0.00     0.274 HD
ENDBRANCH  16  17
ENDBRANCH  15  16
BRANCH  15  21
HETATM   21  C9  UNL     1      30.529  28.967  21.277  1.00  0.00     0.138 C 
BRANCH  21  22
HETATM   22  O3  UNL     1      29.852  27.871  21.544  1.00  0.00    -0.348 OA
ATOM     23  H3  UNL     1      29.911  27.624  22.459  1.00  0.00     0.219 HD
ENDBRANCH  21  22
BRANCH  21  24
HETATM   24  N4  UNL     1      31.247  28.914  20.100  1.00  0.00    -0.359 N 
HETATM   25  C10 UNL     1      31.655  30.063  19.341  1.00  0.00     0.145 C 
HETATM   26  C11 UNL     1      32.176  29.594  17.989  1.00  0.00     0.163 C 
HETATM   27  N5  UNL     1      33.271  28.692  18.193  1.00  0.00    -0.197 N 
HETATM   28  C12 UNL     1      34.417  28.727  17.363  1.00  0.00     0.678 C 
HETATM   29  C24 UNL     1      33.121  27.727  19.281  1.00  0.00     0.217 C 
HETATM   30  N6  UNL     1      35.250  29.659  17.427  1.00  0.00    -0.222 N 
HETATM   31  N7  UNL     1      34.668  27.665  16.405  1.00  0.00    -0.189 N 
ATOM     32  H6  UNL     1      36.021  29.547  16.770  1.00  0.00     0.178 HD
ATOM     33  H7  UNL     1      34.005  26.893  16.336  1.00  0.00     0.184 HD
HETATM   34 CL3  UNL     1      33.897  28.263  20.780  1.00  0.00    -0.100 Cl
HETATM   35  C25 UNL     1      31.624  27.565  19.601  1.00  0.00     0.166 C 
BRANCH  30  36
HETATM   36  C13 UNL     1      35.359  30.829  18.204  1.00  0.00     0.095 C 
HETATM   37  C14 UNL     1      35.986  31.997  17.451  1.00  0.00     0.032 C 
BRANCH  36  38
HETATM   38  C15 UNL     1      36.222  30.515  19.448  1.00  0.00     0.021 C 
HETATM   39  C16 UNL     1      36.975  31.743  19.910  1.00  0.00     0.007 C 
ENDBRANCH  36  38
ENDBRANCH  30  36
BRANCH  31  40
HETATM   40  C17 UNL     1      35.796  27.670  15.573  1.00  0.00     0.091 A 
HETATM   41  C18 UNL     1      35.760  28.213  14.303  1.00  0.00     0.064 A 
HETATM   42 CL1  UNL     1      34.250  28.903  13.731  1.00  0.00    -0.082 Cl
HETATM   43  C19 UNL     1      36.892  28.212  13.499  1.00  0.00     0.050 A 
HETATM   44  C20 UNL     1      38.091  27.675  13.929  1.00  0.00     0.037 A 
HETATM   45 CL2  UNL     1      39.523  27.685  12.893  1.00  0.00    -0.084 Cl
HETATM   46  C21 UNL     1      38.128  27.133  15.195  1.00  0.00     0.049 A 
HETATM   47  C22 UNL     1      37.010  27.129  15.999  1.00  0.00     0.075 A 
HETATM   48  C23 UNL     1      37.043  26.562  17.329  1.00  0.00     0.102 C 
HETATM   49  N8  UNL     1      37.052  26.109  18.385  1.00  0.00    -0.191 NA
ENDBRANCH  31  40
ENDBRANCH  21  24
ENDBRANCH  15  21
ENDBRANCH   9  15
TORSDOF 10
ENDMDL
MODEL 5
REMARK VINA RESULT: -6.990890087      3.706      9.043
REMARK  10 active torsions:
REMARK  status: ('A' for Active; 'I' for Inactive)
REMARK    1  A    between atoms: C3_3  and  O1_4 
REMARK       I    between atoms: N1_8  and  C6_9 
REMARK       I    between atoms: C6_9  and  N2_11 
REMARK    2  A    between atoms: N2_11  and  C7_13 
REMARK    3  A    between atoms: C7_13  and  C8_14 
REMARK    4  A    between atoms: C7_13  and  C9_19 
REMARK    5  A    between atoms: C8_14  and  N3_15 
REMARK    6  A    between atoms: C9_19  and  O3_20 
REMARK    7  A    between atoms: C9_19  and  N4_22 
REMARK       I    between atoms: N5_25  and  C12_26 
REMARK       I    between atoms: C12_26  and  N7_33 
REMARK    8  A    between atoms: N6_27  and  C13_29 
REMARK    9  A    between atoms: C13_29  and  C15_31 
REMARK   10  A    between atoms: N7_33  and  C17_35 
ROOT
HETATM    1  C1  UNL     1      36.598  34.899  20.280  1.00  0.00     0.015 C 
HETATM    2  C2  UNL     1      36.182  35.002  21.418  1.00  0.00    -0.079 C 
HETATM    3  C3  UNL     1      35.679  35.152  22.781  1.00  0.00     0.123 C 
HETATM    4  C4  UNL     1      35.441  33.784  23.349  1.00  0.00     0.071 C 
HETATM    5  C5  UNL     1      34.468  33.045  22.454  1.00  0.00     0.131 C 
HETATM    6  N1  UNL     1      33.281  33.776  22.141  1.00  0.00    -0.334 N 
HETATM    7  C6  UNL     1      31.994  33.197  22.147  1.00  0.00     0.319 C 
HETATM    8  O2  UNL     1      30.967  33.914  21.852  1.00  0.00    -0.247 OA
HETATM    9  N2  UNL     1      31.774  31.861  22.463  1.00  0.00    -0.329 N 
ATOM     10  H2  UNL     1      32.579  31.282  22.705  1.00  0.00     0.165 HD
HETATM   11  C26 UNL     1      33.393  35.188  21.785  1.00  0.00     0.131 C 
HETATM   12  C27 UNL     1      34.326  35.856  22.760  1.00  0.00     0.071 C 
ENDROOT
BRANCH   3  13
HETATM   13  O1  UNL     1      36.536  35.912  23.572  1.00  0.00    -0.377 OA
ATOM     14  H1  UNL     1      36.863  36.675  23.109  1.00  0.00     0.211 HD
ENDBRANCH   3  13
BRANCH   9  15
HETATM   15  C7  UNL     1      30.426  31.235  22.466  1.00  0.00     0.186 C 
BRANCH  15  16
HETATM   16  C8  UNL     1      30.082  30.929  23.867  1.00  0.00     0.263 C 
BRANCH  16  17
HETATM   17  N3  UNL     1      31.099  30.094  24.521  1.00  0.00    -0.077 N 
ATOM     18  H33 UNL     1      31.964  30.075  23.981  1.00  0.00     0.274 HD
ATOM     19  H32 UNL     1      31.448  30.536  25.372  1.00  0.00     0.274 HD
ATOM     20  H31 UNL     1      30.761  29.149  24.708  1.00  0.00     0.274 HD
ENDBRANCH  16  17
ENDBRANCH  15  16
BRANCH  15  21
HETATM   21  C9  UNL     1      30.449  30.093  21.541  1.00  0.00     0.138 C 
BRANCH  21  22
HETATM   22  O3  UNL     1      29.690  29.101  21.950  1.00  0.00    -0.348 OA
ATOM     23  H3  UNL     1      29.784  28.326  21.410  1.00  0.00     0.219 HD
ENDBRANCH  21  22
BRANCH  21  24
HETATM   24  N4  UNL     1      31.096  29.854  20.346  1.00  0.00    -0.359 N 
HETATM   25  C10 UNL     1      31.341  30.847  19.337  1.00  0.00     0.145 C 
HETATM   26  C11 UNL     1      31.822  30.149  18.072  1.00  0.00     0.163 C 
HETATM   27  N5  UNL     1      33.012  29.405  18.368  1.00  0.00    -0.197 N 
HETATM   28  C12 UNL     1      34.096  29.360  17.459  1.00  0.00     0.678 C 
HETATM   29  C24 UNL     1      33.025  28.682  19.639  1.00  0.00     0.217 C 
HETATM   30  N6  UNL     1      34.835  30.351  17.265  1.00  0.00    -0.222 N 
HETATM   31  N7  UNL     1      34.392  28.145  16.722  1.00  0.00    -0.189 N 
ATOM     32  H6  UNL     1      35.572  30.168  16.585  1.00  0.00     0.178 HD
ATOM     33  H7  UNL     1      33.805  27.323  16.866  1.00  0.00     0.184 HD
HETATM   34 CL3  UNL     1      33.833  29.585  20.930  1.00  0.00    -0.100 Cl
HETATM   35  C25 UNL     1      31.573  28.467  20.105  1.00  0.00     0.166 C 
BRANCH  30  36
HETATM   36  C13 UNL     1      34.876  31.664  17.775  1.00  0.00     0.095 C 
HETATM   37  C14 UNL     1      34.421  32.716  16.771  1.00  0.00     0.032 C 
BRANCH  36  38
HETATM   38  C15 UNL     1      36.325  31.979  18.209  1.00  0.00     0.021 C 
HETATM   39  C16 UNL     1      36.649  31.330  19.536  1.00  0.00     0.007 C 
ENDBRANCH  36  38
ENDBRANCH  30  36
BRANCH  31  40
HETATM   40  C17 UNL     1      35.461  28.069  15.818  1.00  0.00     0.091 A 
HETATM   41  C18 UNL     1      36.733  27.718  16.226  1.00  0.00     0.064 A 
HETATM   42 CL1  UNL     1      37.002  27.369  17.926  1.00  0.00    -0.082 Cl
HETATM   43  C19 UNL     1      37.775  27.643  15.311  1.00  0.00     0.050 A 
HETATM   44  C20 UNL     1      37.588  27.913  13.969  1.00  0.00     0.037 A 
HETATM   45 CL2  UNL     1      38.925  27.811  12.818  1.00  0.00    -0.084 Cl
HETATM   46  C21 UNL     1      36.319  28.264  13.561  1.00  0.00     0.049 A 
HETATM   47  C22 UNL     1      35.279  28.341  14.461  1.00  0.00     0.075 A 
HETATM   48  C23 UNL     1      33.946  28.707  14.039  1.00  0.00     0.102 C 
HETATM   49  N8  UNL     1      32.882  29.003  13.721  1.00  0.00    -0.191 NA
ENDBRANCH  31  40
ENDBRANCH  21  24
ENDBRANCH  15  21
ENDBRANCH   9  15
TORSDOF 10
ENDMDL
