MODEL 1
REMARK VINA RESULT: -8.021178956      0.000      0.000
REMARK  8 active torsions:
REMARK  status: ('A' for Active; 'I' for Inactive)
REMARK    1  A    between atoms: C2_2  and  N1_3 
REMARK    2  A    between atoms: C2_2  and  C20_39 
REMARK       I    between atoms: N1_3  and  C3_5 
REMARK    3  A    between atoms: C3_5  and  C4_7 
REMARK       I    between atoms: N2_11  and  C8_12 
REMARK    4  A    between atoms: C8_12  and  C9_14 
REMARK    5  A    between atoms: C11_16  and  O3_17 
REMARK    6  A    between atoms: C13_21  and  C14_22 
REMARK    7  A    between atoms: C16_24  and  N3_25 
REMARK    8  A    between atoms: N3_25  and  N4_27 
ROOT
HETATM    1  C9  UNL     1      32.355  30.622  15.238  1.00  0.00     0.176 C 
HETATM    2  C10 UNL     1      31.318  29.639  14.772  1.00  0.00     0.068 C 
HETATM    3  C11 UNL     1      31.761  29.020  13.494  1.00  0.00     0.145 C 
HETATM    4  C12 UNL     1      33.210  28.731  13.381  1.00  0.00     0.161 C 
HETATM    5 CL1  UNL     1      33.344  26.922  13.567  1.00  0.00    -0.116 Cl
HETATM    6  C13 UNL     1      34.106  29.286  14.446  1.00  0.00     0.038 C 
HETATM    7  N6  UNL     1      33.530  29.779  15.632  1.00  0.00    -0.378 N 
ATOM      8  H6  UNL     1      33.853  29.597  16.583  1.00  0.00     0.160 HD
ENDROOT
BRANCH   1   9
HETATM    9  C8  UNL     1      31.896  31.365  16.443  1.00  0.00     0.243 C 
HETATM   10  N2  UNL     1      32.439  32.637  16.721  1.00  0.00    -0.337 N 
HETATM   11  C4  UNL     1      33.452  33.447  16.134  1.00  0.00     0.179 C 
HETATM   12  C7  UNL     1      31.894  33.470  17.822  1.00  0.00     0.127 C 
HETATM   13  C5  UNL     1      32.778  34.813  16.040  1.00  0.00     0.037 C 
HETATM   14  C6  UNL     1      32.175  34.907  17.441  1.00  0.00     0.022 C 
HETATM   15  O2  UNL     1      31.026  30.827  17.181  1.00  0.00    -0.271 OA
BRANCH  11  16
HETATM   16  C3  UNL     1      34.642  33.684  17.034  1.00  0.00     0.241 C 
HETATM   17  N1  UNL     1      34.808  33.182  18.306  1.00  0.00    -0.345 N 
ATOM     18  H1  UNL     1      34.072  32.574  18.667  1.00  0.00     0.163 HD
HETATM   19  O1  UNL     1      35.515  34.424  16.484  1.00  0.00    -0.271 OA
BRANCH  17  20
HETATM   20  C2  UNL     1      35.917  33.439  19.161  1.00  0.00     0.181 C 
HETATM   21  C1  UNL     1      35.706  34.457  20.231  1.00  0.00     0.043 C 
BRANCH  20  22
HETATM   22  C20 UNL     1      36.575  32.241  19.756  1.00  0.00     0.196 C 
HETATM   23  O4  UNL     1      37.726  32.241  20.245  1.00  0.00    -0.646 OA
HETATM   24  O5  UNL     1      35.884  31.007  19.789  1.00  0.00    -0.646 OA
ENDBRANCH  20  22
ENDBRANCH  17  20
ENDBRANCH  11  16
ENDBRANCH   1   9
BRANCH   3  25
HETATM   25  O3  UNL     1      31.029  27.842  13.208  1.00  0.00    -0.394 OA
ATOM     26  H3  UNL     1      31.556  27.213  12.729  1.00  0.00     0.210 HD
ENDBRANCH   3  25
BRANCH   6  27
HETATM   27  C14 UNL     1      35.381  28.542  14.524  1.00  0.00     0.007 A 
HETATM   28  C15 UNL     1      36.184  28.632  13.367  1.00  0.00     0.047 A 
HETATM   29  C16 UNL     1      37.443  28.078  13.290  1.00  0.00     0.067 A 
HETATM   30  C17 UNL     1      37.921  27.412  14.397  1.00  0.00     0.040 A 
HETATM   31 BR1  UNL     1      39.666  26.644  14.298  1.00  0.00    -0.049 Br
HETATM   32  C18 UNL     1      37.149  27.317  15.534  1.00  0.00     0.041 A 
HETATM   33  C19 UNL     1      35.871  27.879  15.608  1.00  0.00     0.024 A 
HETATM   34 BR2  UNL     1      34.824  27.654  17.161  1.00  0.00    -0.050 Br
BRANCH  29  35
HETATM   35  N3  UNL     1      38.243  28.191  12.120  1.00  0.00    -0.286 N 
ATOM     36  H3  UNL     1      38.946  27.488  11.894  1.00  0.00     0.188 HD
BRANCH  35  37
HETATM   37  N4  UNL     1      38.057  29.181  11.374  1.00  0.00    -0.249 N 
HETATM   38  N5  UNL     1      38.305  29.959  10.443  1.00  0.00    -0.331 N 
ATOM     39  H52 UNL     1      39.159  29.527  10.091  1.00  0.00     0.178 HD
ATOM     40  H51 UNL     1      38.154  30.765   9.836  1.00  0.00     0.178 HD
ATOM     41  H4  UNL     1      37.201  29.579  11.761  1.00  0.00     0.207 HD
ENDBRANCH  35  37
ENDBRANCH  29  35
ENDBRANCH   6  27
TORSDOF 8
ENDMDL
MODEL 2
REMARK VINA RESULT: -7.811357264      0.982      1.192
REMARK  8 active torsions:
REMARK  status: ('A' for Active; 'I' for Inactive)
REMARK    1  A    between atoms: C2_2  and  N1_3 
REMARK    2  A    between atoms: C2_2  and  C20_39 
REMARK       I    between atoms: N1_3  and  C3_5 
REMARK    3  A    between atoms: C3_5  and  C4_7 
REMARK       I    between atoms: N2_11  and  C8_12 
REMARK    4  A    between atoms: C8_12  and  C9_14 
REMARK    5  A    between atoms: C11_16  and  O3_17 
REMARK    6  A    between atoms: C13_21  and  C14_22 
REMARK    7  A    between atoms: C16_24  and  N3_25 
REMARK    8  A    between atoms: N3_25  and  N4_27 
ROOT
HETATM    1  C9  UNL     1      31.947  30.626  14.858  1.00  0.00     0.176 C 
HETATM    2  C10 UNL     1      30.987  29.593  14.339  1.00  0.00     0.068 C 
HETATM    3  C11 UNL     1      31.575  28.924  13.147  1.00  0.00     0.145 C 
HETATM    4  C12 UNL     1      33.034  28.670  13.200  1.00  0.00     0.161 C 
HETATM    5 CL1  UNL     1      33.189  26.878  13.492  1.00  0.00    -0.116 Cl
HETATM    6  C13 UNL     1      33.801  29.302  14.322  1.00  0.00     0.038 C 
HETATM    7  N6  UNL     1      33.093  29.836  15.415  1.00  0.00    -0.378 N 
ATOM      8  H6  UNL     1      33.318  29.710  16.402  1.00  0.00     0.160 HD
ENDROOT
BRANCH   1   9
HETATM    9  C8  UNL     1      31.347  31.414  15.968  1.00  0.00     0.243 C 
HETATM   10  N2  UNL     1      32.110  32.425  16.592  1.00  0.00    -0.337 N 
HETATM   11  C4  UNL     1      33.449  32.891  16.470  1.00  0.00     0.179 C 
HETATM   12  C7  UNL     1      31.494  33.331  17.593  1.00  0.00     0.127 C 
HETATM   13  C5  UNL     1      33.273  34.405  16.391  1.00  0.00     0.037 C 
HETATM   14  C6  UNL     1      32.291  34.617  17.542  1.00  0.00     0.022 C 
HETATM   15  O2  UNL     1      30.164  31.150  16.317  1.00  0.00    -0.271 OA
BRANCH  11  16
HETATM   16  C3  UNL     1      34.284  32.681  17.713  1.00  0.00     0.241 C 
HETATM   17  N1  UNL     1      34.116  31.678  18.641  1.00  0.00    -0.345 N 
ATOM     18  H1  UNL     1      33.376  30.998  18.463  1.00  0.00     0.163 HD
HETATM   19  O1  UNL     1      35.196  33.557  17.826  1.00  0.00    -0.271 OA
BRANCH  17  20
HETATM   20  C2  UNL     1      34.884  31.508  19.827  1.00  0.00     0.181 C 
HETATM   21  C1  UNL     1      34.254  30.704  20.915  1.00  0.00     0.043 C 
BRANCH  20  22
HETATM   22  C20 UNL     1      36.288  31.047  19.635  1.00  0.00     0.196 C 
HETATM   23  O4  UNL     1      36.605  29.931  19.168  1.00  0.00    -0.646 OA
HETATM   24  O5  UNL     1      37.359  31.899  19.992  1.00  0.00    -0.646 OA
ENDBRANCH  20  22
ENDBRANCH  17  20
ENDBRANCH  11  16
ENDBRANCH   1   9
BRANCH   3  25
HETATM   25  O3  UNL     1      30.904  27.714  12.848  1.00  0.00    -0.394 OA
ATOM     26  H3  UNL     1      31.508  26.983  12.803  1.00  0.00     0.210 HD
ENDBRANCH   3  25
BRANCH   6  27
HETATM   27  C14 UNL     1      35.077  28.598  14.570  1.00  0.00     0.007 A 
HETATM   28  C15 UNL     1      35.973  28.607  13.478  1.00  0.00     0.047 A 
HETATM   29  C16 UNL     1      37.242  28.079  13.555  1.00  0.00     0.067 A 
HETATM   30  C17 UNL     1      37.637  27.523  14.751  1.00  0.00     0.040 A 
HETATM   31 BR1  UNL     1      39.398  26.792  14.864  1.00  0.00    -0.049 Br
HETATM   32  C18 UNL     1      36.774  27.509  15.826  1.00  0.00     0.041 A 
HETATM   33  C19 UNL     1      35.486  28.045  15.744  1.00  0.00     0.024 A 
HETATM   34 BR2  UNL     1      34.316  27.930  17.220  1.00  0.00    -0.050 Br
BRANCH  29  35
HETATM   35  N3  UNL     1      38.136  28.109  12.448  1.00  0.00    -0.286 N 
ATOM     36  H3  UNL     1      38.897  27.435  12.369  1.00  0.00     0.188 HD
BRANCH  35  37
HETATM   37  N4  UNL     1      37.959  28.989  11.574  1.00  0.00    -0.249 N 
HETATM   38  N5  UNL     1      38.253  29.683  10.591  1.00  0.00    -0.331 N 
ATOM     39  H52 UNL     1      39.179  29.305  10.394  1.00  0.00     0.178 HD
ATOM     40  H51 UNL     1      38.108  30.399   9.880  1.00  0.00     0.178 HD
ATOM     41  H4  UNL     1      37.029  29.337  11.809  1.00  0.00     0.207 HD
ENDBRANCH  35  37
ENDBRANCH  29  35
ENDBRANCH   6  27
TORSDOF 8
ENDMDL
MODEL 3
REMARK VINA RESULT: -7.629472577      2.291      2.902
REMARK  8 active torsions:
REMARK  status: ('A' for Active; 'I' for Inactive)
REMARK    1  A    between atoms: C2_2  and  N1_3 
REMARK    2  A    between atoms: C2_2  and  C20_39 
REMARK       I    between atoms: N1_3  and  C3_5 
REMARK    3  A    between atoms: C3_5  and  C4_7 
REMARK       I    between atoms: N2_11  and  C8_12 
REMARK    4  A    between atoms: C8_12  and  C9_14 
REMARK    5  A    between atoms: C11_16  and  O3_17 
REMARK    6  A    between atoms: C13_21  and  C14_22 
REMARK    7  A    between atoms: C16_24  and  N3_25 
REMARK    8  A    between atoms: N3_25  and  N4_27 
ROOT
HETATM    1  C9  UNL     1      33.739  29.362  17.551  1.00  0.00     0.176 C 
HETATM    2  C10 UNL     1      32.591  28.626  16.919  1.00  0.00     0.068 C 
HETATM    3  C11 UNL     1      32.658  28.781  15.441  1.00  0.00     0.145 C 
HETATM    4  C12 UNL     1      34.015  28.759  14.846  1.00  0.00     0.161 C 
HETATM    5 CL1  UNL     1      34.151  27.128  14.044  1.00  0.00    -0.116 Cl
HETATM    6  C13 UNL     1      35.179  28.813  15.789  1.00  0.00     0.038 C 
HETATM    7  N6  UNL     1      34.956  28.580  17.159  1.00  0.00    -0.378 N 
ATOM      8  H6  UNL     1      35.519  27.988  17.772  1.00  0.00     0.160 HD
ENDROOT
BRANCH   1   9
HETATM    9  C8  UNL     1      33.640  29.348  19.036  1.00  0.00     0.243 C 
HETATM   10  N2  UNL     1      33.808  30.551  19.754  1.00  0.00    -0.337 N 
HETATM   11  C4  UNL     1      34.140  31.890  19.404  1.00  0.00     0.179 C 
HETATM   12  C7  UNL     1      33.563  30.603  21.216  1.00  0.00     0.127 C 
HETATM   13  C5  UNL     1      33.092  32.705  20.157  1.00  0.00     0.037 C 
HETATM   14  C6  UNL     1      33.168  32.031  21.527  1.00  0.00     0.022 C 
HETATM   15  O2  UNL     1      33.406  28.248  19.608  1.00  0.00    -0.271 OA
BRANCH  11  16
HETATM   16  C3  UNL     1      35.457  32.362  19.977  1.00  0.00     0.241 C 
HETATM   17  N1  UNL     1      35.702  33.600  20.528  1.00  0.00    -0.345 N 
ATOM     18  H1  UNL     1      34.919  34.251  20.578  1.00  0.00     0.163 HD
HETATM   19  O1  UNL     1      36.357  31.470  19.897  1.00  0.00    -0.271 OA
BRANCH  17  20
HETATM   20  C2  UNL     1      36.955  34.049  21.033  1.00  0.00     0.181 C 
HETATM   21  C1  UNL     1      37.733  34.969  20.153  1.00  0.00     0.043 C 
BRANCH  20  22
HETATM   22  C20 UNL     1      36.942  34.600  22.418  1.00  0.00     0.196 C 
HETATM   23  O4  UNL     1      37.908  35.189  22.950  1.00  0.00    -0.646 OA
HETATM   24  O5  UNL     1      35.779  34.468  23.213  1.00  0.00    -0.646 OA
ENDBRANCH  20  22
ENDBRANCH  17  20
ENDBRANCH  11  16
ENDBRANCH   1   9
BRANCH   3  25
HETATM   25  O3  UNL     1      31.847  27.825  14.783  1.00  0.00    -0.394 OA
ATOM     26  H3  UNL     1      32.337  27.348  14.123  1.00  0.00     0.210 HD
ENDBRANCH   3  25
BRANCH   6  27
HETATM   27  C14 UNL     1      36.409  28.285  15.163  1.00  0.00     0.007 A 
HETATM   28  C15 UNL     1      36.521  28.547  13.780  1.00  0.00     0.047 A 
HETATM   29  C16 UNL     1      37.638  28.209  13.048  1.00  0.00     0.067 A 
HETATM   30  C17 UNL     1      38.677  27.591  13.707  1.00  0.00     0.040 A 
HETATM   31 BR1  UNL     1      40.229  27.123  12.698  1.00  0.00    -0.049 Br
HETATM   32  C18 UNL     1      38.582  27.330  15.057  1.00  0.00     0.041 A 
HETATM   33  C19 UNL     1      37.446  27.673  15.796  1.00  0.00     0.024 A 
HETATM   34 BR2  UNL     1      37.335  27.223  17.625  1.00  0.00    -0.050 Br
BRANCH  29  35
HETATM   35  N3  UNL     1      37.739  28.494  11.658  1.00  0.00    -0.286 N 
ATOM     36  H3  UNL     1      37.441  27.814  10.959  1.00  0.00     0.188 HD
BRANCH  35  37
HETATM   37  N4  UNL     1      38.204  29.606  11.318  1.00  0.00    -0.249 N 
HETATM   38  N5  UNL     1      38.560  30.491  10.528  1.00  0.00    -0.331 N 
ATOM     39  H52 UNL     1      38.337  30.026   9.648  1.00  0.00     0.178 HD
ATOM     40  H51 UNL     1      38.939  31.397  10.252  1.00  0.00     0.178 HD
ATOM     41  H4  UNL     1      38.413  30.033  12.221  1.00  0.00     0.207 HD
ENDBRANCH  35  37
ENDBRANCH  29  35
ENDBRANCH   6  27
TORSDOF 8
ENDMDL
MODEL 4
REMARK VINA RESULT: -7.614171359      4.087      8.683
REMARK  8 active torsions:
REMARK  status: ('A' for Active; 'I' for Inactive)
REMARK    1  A    between atoms: C2_2  and  N1_3 
REMARK    2  A    between atoms: C2_2  and  C20_39 
REMARK       I    between atoms: N1_3  and  C3_5 
REMARK    3  A    between atoms: C3_5  and  C4_7 
REMARK       I    between atoms: N2_11  and  C8_12 
REMARK    4  A    between atoms: C8_12  and  C9_14 
REMARK    5  A    between atoms: C11_16  and  O3_17 
REMARK    6  A    between atoms: C13_21  and  C14_22 
REMARK    7  A    between atoms: C16_24  and  N3_25 
REMARK    8  A    between atoms: N3_25  and  N4_27 
ROOT
HETATM    1  C9  UNL     1      34.119  29.635  20.475  1.00  0.00     0.176 C 
HETATM    2  C10 UNL     1      32.863  30.076  19.779  1.00  0.00     0.068 C 
HETATM    3  C11 UNL     1      32.276  31.234  20.504  1.00  0.00     0.145 C 
HETATM    4  C12 UNL     1      33.243  32.214  21.054  1.00  0.00     0.161 C 
HETATM    5 CL1  UNL     1      33.127  33.659  19.948  1.00  0.00    -0.116 Cl
HETATM    6  C13 UNL     1      34.693  31.836  21.027  1.00  0.00     0.038 C 
HETATM    7  N6  UNL     1      35.098  30.745  20.235  1.00  0.00    -0.378 N 
ATOM      8  H6  UNL     1      35.907  30.715  19.615  1.00  0.00     0.160 HD
ENDROOT
BRANCH   1   9
HETATM    9  C8  UNL     1      34.671  28.394  19.865  1.00  0.00     0.243 C 
HETATM   10  N2  UNL     1      35.070  28.406  18.511  1.00  0.00    -0.337 N 
HETATM   11  C4  UNL     1      35.022  29.363  17.459  1.00  0.00     0.179 C 
HETATM   12  C7  UNL     1      35.766  27.238  17.916  1.00  0.00     0.127 C 
HETATM   13  C5  UNL     1      36.434  29.298  16.881  1.00  0.00     0.037 C 
HETATM   14  C6  UNL     1      36.610  27.783  16.784  1.00  0.00     0.022 C 
HETATM   15  O2  UNL     1      34.764  27.364  20.587  1.00  0.00    -0.271 OA
BRANCH  11  16
HETATM   16  C3  UNL     1      34.132  28.959  16.306  1.00  0.00     0.241 C 
HETATM   17  N1  UNL     1      34.348  29.248  14.977  1.00  0.00    -0.345 N 
ATOM     18  H1  UNL     1      35.199  29.760  14.744  1.00  0.00     0.163 HD
HETATM   19  O1  UNL     1      33.120  28.299  16.696  1.00  0.00    -0.271 OA
BRANCH  17  20
HETATM   20  C2  UNL     1      33.486  28.894  13.901  1.00  0.00     0.181 C 
HETATM   21  C1  UNL     1      33.366  27.437  13.601  1.00  0.00     0.043 C 
BRANCH  20  22
HETATM   22  C20 UNL     1      32.123  29.497  13.930  1.00  0.00     0.196 C 
HETATM   23  O4  UNL     1      31.072  28.874  13.661  1.00  0.00    -0.646 OA
HETATM   24  O5  UNL     1      31.968  30.858  14.279  1.00  0.00    -0.646 OA
ENDBRANCH  20  22
ENDBRANCH  17  20
ENDBRANCH  11  16
ENDBRANCH   1   9
BRANCH   3  25
HETATM   25  O3  UNL     1      31.326  31.917  19.707  1.00  0.00    -0.394 OA
ATOM     26  H3  UNL     1      30.791  32.504  20.229  1.00  0.00     0.210 HD
ENDBRANCH   3  25
BRANCH   6  27
HETATM   27  C14 UNL     1      35.565  33.026  21.107  1.00  0.00     0.007 A 
HETATM   28  C15 UNL     1      35.661  33.598  22.395  1.00  0.00     0.047 A 
HETATM   29  C16 UNL     1      36.495  34.656  22.678  1.00  0.00     0.067 A 
HETATM   30  C17 UNL     1      37.259  35.166  21.652  1.00  0.00     0.040 A 
HETATM   31 BR1  UNL     1      38.419  36.633  22.039  1.00  0.00    -0.049 Br
HETATM   32  C18 UNL     1      37.177  34.618  20.390  1.00  0.00     0.041 A 
HETATM   33  C19 UNL     1      36.328  33.545  20.106  1.00  0.00     0.024 A 
HETATM   34 BR2  UNL     1      36.195  32.881  18.345  1.00  0.00    -0.050 Br
BRANCH  29  35
HETATM   35  N3  UNL     1      36.588  35.210  23.985  1.00  0.00    -0.286 N 
ATOM     36  H3  UNL     1      37.495  35.416  24.405  1.00  0.00     0.188 HD
BRANCH  35  37
HETATM   37  N4  UNL     1      35.524  35.436  24.605  1.00  0.00    -0.249 N 
HETATM   38  N5  UNL     1      34.792  35.536  25.599  1.00  0.00    -0.331 N 
ATOM     39  H52 UNL     1      35.464  35.284  26.324  1.00  0.00     0.178 HD
ATOM     40  H51 UNL     1      33.925  35.721  26.104  1.00  0.00     0.178 HD
ATOM     41  H4  UNL     1      34.886  35.682  23.847  1.00  0.00     0.207 HD
ENDBRANCH  35  37
ENDBRANCH  29  35
ENDBRANCH   6  27
TORSDOF 8
ENDMDL
MODEL 5
REMARK VINA RESULT: -7.561710127      4.486      8.567
REMARK  8 active torsions:
REMARK  status: ('A' for Active; 'I' for Inactive)
REMARK    1  A    between atoms: C2_2  and  N1_3 
REMARK    2  A    between atoms: C2_2  and  C20_39 
REMARK       I    between atoms: N1_3  and  C3_5 
REMARK    3  A    between atoms: C3_5  and  C4_7 
REMARK       I    between atoms: N2_11  and  C8_12 
REMARK    4  A    between atoms: C8_12  and  C9_14 
REMARK    5  A    between atoms: C11_16  and  O3_17 
REMARK    6  A    between atoms: C13_21  and  C14_22 
REMARK    7  A    between atoms: C16_24  and  N3_25 
REMARK    8  A    between atoms: N3_25  and  N4_27 
ROOT
HETATM    1  C9  UNL     1      33.758  29.452  20.835  1.00  0.00     0.176 C 
HETATM    2  C10 UNL     1      32.678  29.838  19.864  1.00  0.00     0.068 C 
HETATM    3  C11 UNL     1      32.130  31.170  20.237  1.00  0.00     0.145 C 
HETATM    4  C12 UNL     1      33.114  32.160  20.737  1.00  0.00     0.161 C 
HETATM    5 CL1  UNL     1      33.333  33.340  19.365  1.00  0.00    -0.116 Cl
HETATM    6  C13 UNL     1      34.498  31.664  21.030  1.00  0.00     0.038 C 
HETATM    7  N6  UNL     1      34.884  30.399  20.549  1.00  0.00    -0.378 N 
ATOM      8  H6  UNL     1      35.767  30.169  20.092  1.00  0.00     0.160 HD
ENDROOT
BRANCH   1   9
HETATM    9  C8  UNL     1      34.244  28.068  20.583  1.00  0.00     0.243 C 
HETATM   10  N2  UNL     1      35.212  27.844  19.581  1.00  0.00    -0.337 N 
HETATM   11  C4  UNL     1      35.861  28.661  18.613  1.00  0.00     0.179 C 
HETATM   12  C7  UNL     1      35.831  26.507  19.409  1.00  0.00     0.127 C 
HETATM   13  C5  UNL     1      37.329  28.272  18.775  1.00  0.00     0.037 C 
HETATM   14  C6  UNL     1      37.196  26.750  18.803  1.00  0.00     0.022 C 
HETATM   15  O2  UNL     1      33.769  27.132  21.283  1.00  0.00    -0.271 OA
BRANCH  11  16
HETATM   16  C3  UNL     1      35.536  28.291  17.185  1.00  0.00     0.241 C 
HETATM   17  N1  UNL     1      36.399  28.362  16.114  1.00  0.00    -0.345 N 
ATOM     18  H1  UNL     1      37.353  28.668  16.304  1.00  0.00     0.163 HD
HETATM   19  O1  UNL     1      34.337  27.892  17.058  1.00  0.00    -0.271 OA
BRANCH  17  20
HETATM   20  C2  UNL     1      36.074  28.045  14.765  1.00  0.00     0.181 C 
HETATM   21  C1  UNL     1      35.010  28.874  14.127  1.00  0.00     0.043 C 
BRANCH  20  22
HETATM   22  C20 UNL     1      37.225  27.928  13.825  1.00  0.00     0.196 C 
HETATM   23  O4  UNL     1      37.494  28.764  12.934  1.00  0.00    -0.646 OA
HETATM   24  O5  UNL     1      38.093  26.815  13.916  1.00  0.00    -0.646 OA
ENDBRANCH  20  22
ENDBRANCH  17  20
ENDBRANCH  11  16
ENDBRANCH   1   9
BRANCH   3  25
HETATM   25  O3  UNL     1      31.395  31.744  19.172  1.00  0.00    -0.394 OA
ATOM     26  H3  UNL     1      31.900  32.409  18.719  1.00  0.00     0.210 HD
ENDBRANCH   3  25
BRANCH   6  27
HETATM   27  C14 UNL     1      35.482  32.766  21.019  1.00  0.00     0.007 A 
HETATM   28  C15 UNL     1      35.581  33.477  22.235  1.00  0.00     0.047 A 
HETATM   29  C16 UNL     1      36.505  34.477  22.439  1.00  0.00     0.067 A 
HETATM   30  C17 UNL     1      37.360  34.784  21.404  1.00  0.00     0.040 A 
HETATM   31 BR1  UNL     1      38.645  36.168  21.682  1.00  0.00    -0.049 Br
HETATM   32  C18 UNL     1      37.277  34.098  20.211  1.00  0.00     0.041 A 
HETATM   33  C19 UNL     1      36.336  33.084  20.008  1.00  0.00     0.024 A 
HETATM   34 BR2  UNL     1      36.212  32.229  18.331  1.00  0.00    -0.050 Br
BRANCH  29  35
HETATM   35  N3  UNL     1      36.598  35.172  23.676  1.00  0.00    -0.286 N 
ATOM     36  H3  UNL     1      37.476  35.596  23.976  1.00  0.00     0.188 HD
BRANCH  35  37
HETATM   37  N4  UNL     1      35.569  35.249  24.387  1.00  0.00    -0.249 N 
HETATM   38  N5  UNL     1      34.922  35.444  25.425  1.00  0.00    -0.331 N 
ATOM     39  H52 UNL     1      35.689  35.677  26.055  1.00  0.00     0.178 HD
ATOM     40  H51 UNL     1      34.084  35.507  26.002  1.00  0.00     0.178 HD
ATOM     41  H4  UNL     1      34.834  35.010  23.721  1.00  0.00     0.207 HD
ENDBRANCH  35  37
ENDBRANCH  29  35
ENDBRANCH   6  27
TORSDOF 8
ENDMDL
