MODEL 1
REMARK VINA RESULT: -7.996915683      0.000      0.000
REMARK  7 active torsions:
REMARK  status: ('A' for Active; 'I' for Inactive)
REMARK    1  A    between atoms: O1_2  and  C2_3 
REMARK    2  A    between atoms: C5_7  and  C6_8 
REMARK    3  A    between atoms: C6_8  and  C7_9 
REMARK    4  A    between atoms: C8_11  and  C9_12 
REMARK    5  A    between atoms: C9_12  and  O3_13 
REMARK    6  A    between atoms: C10_15  and  N1_16 
REMARK       I    between atoms: N1_16  and  C11_18 
REMARK    7  A    between atoms: C11_18  and  C12_20 
REMARK       I    between atoms: N2_27  and  C19_28 
REMARK       I    between atoms: N5_34  and  C21_35 
ROOT
HETATM    1  C7  UNL     1      36.607  28.674  17.933  1.00  0.00     0.230 C 
HETATM    2  O2  UNL     1      36.017  29.583  17.102  1.00  0.00    -0.357 OA
HETATM    3  C8  UNL     1      35.567  29.053  15.900  1.00  0.00     0.172 C 
HETATM    4  C10 UNL     1      34.498  28.027  16.051  1.00  0.00     0.133 C 
HETATM    5  C20 UNL     1      34.366  27.728  17.551  1.00  0.00     0.156 C 
HETATM    6  N5  UNL     1      35.743  27.479  17.983  1.00  0.00    -0.323 N 
HETATM    7  C21 UNL     1      36.199  26.215  18.406  1.00  0.00     0.217 C 
HETATM    8  C22 UNL     1      35.227  25.093  18.411  1.00  0.00     0.117 C 
HETATM    9  O5  UNL     1      37.395  26.089  18.759  1.00  0.00    -0.274 OA
ENDROOT
BRANCH   4  10
HETATM   10  N1  UNL     1      33.251  28.342  15.450  1.00  0.00    -0.350 N 
HETATM   11  C11 UNL     1      32.959  28.260  14.065  1.00  0.00     0.241 C 
HETATM   12  O4  UNL     1      33.885  27.874  13.308  1.00  0.00    -0.271 OA
ATOM     13  H1  UNL     1      32.501  28.654  16.067  1.00  0.00     0.163 HD
BRANCH  11  14
HETATM   14  C12 UNL     1      31.634  28.604  13.502  1.00  0.00     0.183 C 
HETATM   15  C13 UNL     1      30.787  27.339  13.303  1.00  0.00     0.018 C 
HETATM   16  C14 UNL     1      30.245  26.909  14.659  1.00  0.00     0.009 C 
HETATM   17  C18 UNL     1      29.596  27.753  12.465  1.00  0.00     0.009 C 
HETATM   18  C15 UNL     1      29.131  27.860  15.078  1.00  0.00     0.026 C 
HETATM   19  C16 UNL     1      29.432  29.194  14.425  1.00  0.00     0.088 C 
HETATM   20  C17 UNL     1      28.999  29.054  12.960  1.00  0.00     0.026 C 
HETATM   21  N2  UNL     1      30.864  29.458  14.369  1.00  0.00    -0.337 N 
HETATM   22  C19 UNL     1      31.403  30.518  15.150  1.00  0.00     0.185 C 
HETATM   23  N3  UNL     1      31.062  30.605  16.387  1.00  0.00    -0.374 N 
HETATM   24  N4  UNL     1      32.289  31.484  14.660  1.00  0.00    -0.064 NA
ATOM     25  H32 UNL     1      30.416  29.901  16.744  1.00  0.00     0.158 HD
ATOM     26  H31 UNL     1      31.448  31.365  16.947  1.00  0.00     0.158 HD
ENDBRANCH  11  14
ENDBRANCH   4  10
BRANCH   3  27
HETATM   27  C9  UNL     1      36.745  28.444  15.150  1.00  0.00     0.198 C 
BRANCH  27  28
HETATM   28  O3  UNL     1      36.644  28.840  13.794  1.00  0.00    -0.398 OA
ATOM     29  H3  UNL     1      37.369  28.446  13.323  1.00  0.00     0.209 HD
ENDBRANCH  27  28
ENDBRANCH   3  27
BRANCH   1  30
HETATM   30  C6  UNL     1      36.733  29.124  19.339  1.00  0.00     0.094 C 
BRANCH  30  31
HETATM   31  C5  UNL     1      36.059  30.371  19.708  1.00  0.00    -0.029 A 
HETATM   32  C4  UNL     1      36.711  31.602  19.535  1.00  0.00     0.031 A 
HETATM   33  C3  UNL     1      36.113  32.804  19.844  1.00  0.00     0.046 A 
HETATM   34  C2  UNL     1      34.830  32.846  20.344  1.00  0.00     0.109 A 
HETATM   35 BR1  UNL     1      37.019  34.464  19.599  1.00  0.00    -0.048 Br
HETATM   36  C24 UNL     1      34.174  31.652  20.521  1.00  0.00     0.090 A 
HETATM   37  C23 UNL     1      34.784  30.432  20.207  1.00  0.00     0.065 A 
HETATM   38 CL2  UNL     1      32.532  31.691  21.160  1.00  0.00    -0.079 Cl
HETATM   39 CL1  UNL     1      33.872  28.958  20.504  1.00  0.00    -0.082 Cl
BRANCH  34  40
HETATM   40  O1  UNL     1      34.227  34.075  20.655  1.00  0.00    -0.353 OA
HETATM   41  C1  UNL     1      34.332  34.533  21.986  1.00  0.00     0.210 C 
ENDBRANCH  34  40
ENDBRANCH  30  31
ENDBRANCH   1  30
TORSDOF 7
ENDMDL
MODEL 2
REMARK VINA RESULT: -7.653402657      2.738      4.533
REMARK  7 active torsions:
REMARK  status: ('A' for Active; 'I' for Inactive)
REMARK    1  A    between atoms: O1_2  and  C2_3 
REMARK    2  A    between atoms: C5_7  and  C6_8 
REMARK    3  A    between atoms: C6_8  and  C7_9 
REMARK    4  A    between atoms: C8_11  and  C9_12 
REMARK    5  A    between atoms: C9_12  and  O3_13 
REMARK    6  A    between atoms: C10_15  and  N1_16 
REMARK       I    between atoms: N1_16  and  C11_18 
REMARK    7  A    between atoms: C11_18  and  C12_20 
REMARK       I    between atoms: N2_27  and  C19_28 
REMARK       I    between atoms: N5_34  and  C21_35 
ROOT
HETATM    1  C7  UNL     1      35.068  32.574  19.539  1.00  0.00     0.230 C 
HETATM    2  O2  UNL     1      35.270  32.249  18.228  1.00  0.00    -0.357 OA
HETATM    3  C8  UNL     1      35.236  30.886  17.964  1.00  0.00     0.172 C 
HETATM    4  C10 UNL     1      33.921  30.245  18.245  1.00  0.00     0.133 C 
HETATM    5  C20 UNL     1      33.049  31.294  18.949  1.00  0.00     0.156 C 
HETATM    6  N5  UNL     1      33.906  31.804  20.022  1.00  0.00    -0.323 N 
HETATM    7  C21 UNL     1      33.644  31.578  21.387  1.00  0.00     0.217 C 
HETATM    8  C22 UNL     1      32.439  30.786  21.740  1.00  0.00     0.117 C 
HETATM    9  O5  UNL     1      34.431  32.049  22.241  1.00  0.00    -0.274 OA
ENDROOT
BRANCH   4  10
HETATM   10  N1  UNL     1      33.269  29.659  17.129  1.00  0.00    -0.350 N 
HETATM   11  C11 UNL     1      33.336  28.293  16.759  1.00  0.00     0.241 C 
HETATM   12  O4  UNL     1      34.034  27.538  17.484  1.00  0.00    -0.271 OA
ATOM     13  H1  UNL     1      32.703  30.273  16.543  1.00  0.00     0.163 HD
BRANCH  11  14
HETATM   14  C12 UNL     1      32.630  27.744  15.579  1.00  0.00     0.183 C 
HETATM   15  C13 UNL     1      31.191  28.278  15.515  1.00  0.00     0.018 C 
HETATM   16  C14 UNL     1      31.236  29.706  14.989  1.00  0.00     0.009 C 
HETATM   17  C18 UNL     1      30.476  27.447  14.472  1.00  0.00     0.009 C 
HETATM   18  C15 UNL     1      31.531  29.681  13.495  1.00  0.00     0.026 C 
HETATM   19  C16 UNL     1      32.337  28.423  13.234  1.00  0.00     0.088 C 
HETATM   20  C17 UNL     1      31.327  27.268  13.231  1.00  0.00     0.026 C 
HETATM   21  N2  UNL     1      33.244  28.124  14.334  1.00  0.00    -0.337 N 
HETATM   22  C19 UNL     1      34.647  28.220  14.118  1.00  0.00     0.185 C 
HETATM   23  N3  UNL     1      35.110  29.269  13.536  1.00  0.00    -0.374 N 
HETATM   24  N4  UNL     1      35.570  27.240  14.501  1.00  0.00    -0.064 NA
ATOM     25  H32 UNL     1      34.438  29.983  13.256  1.00  0.00     0.158 HD
ATOM     26  H31 UNL     1      36.116  29.337  13.381  1.00  0.00     0.158 HD
ENDBRANCH  11  14
ENDBRANCH   4  10
BRANCH   3  27
HETATM   27  C9  UNL     1      36.318  30.191  18.780  1.00  0.00     0.198 C 
BRANCH  27  28
HETATM   28  O3  UNL     1      35.768  28.991  19.293  1.00  0.00    -0.398 OA
ATOM     29  H3  UNL     1      35.348  28.534  18.574  1.00  0.00     0.209 HD
ENDBRANCH  27  28
ENDBRANCH   3  27
BRANCH   1  30
HETATM   30  C6  UNL     1      34.717  33.995  19.768  1.00  0.00     0.094 C 
BRANCH  30  31
HETATM   31  C5  UNL     1      35.546  34.748  20.712  1.00  0.00    -0.029 A 
HETATM   32  C4  UNL     1      36.922  34.894  20.481  1.00  0.00     0.031 A 
HETATM   33  C3  UNL     1      37.740  35.612  21.325  1.00  0.00     0.046 A 
HETATM   34  C2  UNL     1      37.231  36.226  22.449  1.00  0.00     0.109 A 
HETATM   35 BR1  UNL     1      39.609  35.797  20.990  1.00  0.00    -0.048 Br
HETATM   36  C24 UNL     1      35.886  36.095  22.693  1.00  0.00     0.090 A 
HETATM   37  C23 UNL     1      35.056  35.364  21.835  1.00  0.00     0.065 A 
HETATM   38 CL2  UNL     1      35.222  36.875  24.127  1.00  0.00    -0.079 Cl
HETATM   39 CL1  UNL     1      33.355  35.228  22.257  1.00  0.00    -0.082 Cl
BRANCH  34  40
HETATM   40  O1  UNL     1      38.071  36.957  23.303  1.00  0.00    -0.353 OA
HETATM   41  C1  UNL     1      38.241  38.331  23.031  1.00  0.00     0.210 C 
ENDBRANCH  34  40
ENDBRANCH  30  31
ENDBRANCH   1  30
TORSDOF 7
ENDMDL
MODEL 3
REMARK VINA RESULT: -7.557770350      1.414      1.974
REMARK  7 active torsions:
REMARK  status: ('A' for Active; 'I' for Inactive)
REMARK    1  A    between atoms: O1_2  and  C2_3 
REMARK    2  A    between atoms: C5_7  and  C6_8 
REMARK    3  A    between atoms: C6_8  and  C7_9 
REMARK    4  A    between atoms: C8_11  and  C9_12 
REMARK    5  A    between atoms: C9_12  and  O3_13 
REMARK    6  A    between atoms: C10_15  and  N1_16 
REMARK       I    between atoms: N1_16  and  C11_18 
REMARK    7  A    between atoms: C11_18  and  C12_20 
REMARK       I    between atoms: N2_27  and  C19_28 
REMARK       I    between atoms: N5_34  and  C21_35 
ROOT
HETATM    1  C7  UNL     1      36.271  28.900  17.838  1.00  0.00     0.230 C 
HETATM    2  O2  UNL     1      35.446  29.814  17.248  1.00  0.00    -0.357 OA
HETATM    3  C8  UNL     1      34.709  29.316  16.182  1.00  0.00     0.172 C 
HETATM    4  C10 UNL     1      33.758  28.232  16.554  1.00  0.00     0.133 C 
HETATM    5  C20 UNL     1      34.047  27.859  18.015  1.00  0.00     0.156 C 
HETATM    6  N5  UNL     1      35.498  27.661  18.048  1.00  0.00    -0.323 N 
HETATM    7  C21 UNL     1      36.097  26.405  18.262  1.00  0.00     0.217 C 
HETATM    8  C22 UNL     1      35.204  25.236  18.462  1.00  0.00     0.117 C 
HETATM    9  O5  UNL     1      37.347  26.324  18.274  1.00  0.00    -0.274 OA
ENDROOT
BRANCH   4  10
HETATM   10  N1  UNL     1      32.385  28.510  16.327  1.00  0.00    -0.350 N 
HETATM   11  C11 UNL     1      31.708  28.363  15.090  1.00  0.00     0.241 C 
HETATM   12  O4  UNL     1      32.384  27.950  14.114  1.00  0.00    -0.271 OA
ATOM     13  H1  UNL     1      31.839  28.844  17.121  1.00  0.00     0.163 HD
BRANCH  11  14
HETATM   14  C12 UNL     1      30.269  28.671  14.921  1.00  0.00     0.183 C 
HETATM   15  C13 UNL     1      29.987  29.166  13.495  1.00  0.00     0.018 C 
HETATM   16  C14 UNL     1      29.974  27.961  12.566  1.00  0.00     0.009 C 
HETATM   17  C18 UNL     1      28.582  29.725  13.511  1.00  0.00     0.009 C 
HETATM   18  C15 UNL     1      28.689  27.172  12.786  1.00  0.00     0.026 C 
HETATM   19  C16 UNL     1      28.274  27.414  14.224  1.00  0.00     0.088 C 
HETATM   20  C17 UNL     1      27.630  28.806  14.248  1.00  0.00     0.026 C 
HETATM   21  N2  UNL     1      29.427  27.519  15.110  1.00  0.00    -0.337 N 
HETATM   22  C19 UNL     1      29.644  26.506  16.084  1.00  0.00     0.185 C 
HETATM   23  N3  UNL     1      29.573  25.275  15.719  1.00  0.00    -0.374 N 
HETATM   24  N4  UNL     1      29.934  26.759  17.430  1.00  0.00    -0.064 NA
ATOM     25  H32 UNL     1      29.362  25.090  14.739  1.00  0.00     0.158 HD
ATOM     26  H31 UNL     1      29.729  24.549  16.418  1.00  0.00     0.158 HD
ENDBRANCH  11  14
ENDBRANCH   4  10
BRANCH   3  27
HETATM   27  C9  UNL     1      35.662  28.803  15.111  1.00  0.00     0.198 C 
BRANCH  27  28
HETATM   28  O3  UNL     1      35.120  29.147  13.849  1.00  0.00    -0.398 OA
ATOM     29  H3  UNL     1      34.202  29.353  13.974  1.00  0.00     0.209 HD
ENDBRANCH  27  28
ENDBRANCH   3  27
BRANCH   1  30
HETATM   30  C6  UNL     1      36.755  29.292  19.183  1.00  0.00     0.094 C 
BRANCH  30  31
HETATM   31  C5  UNL     1      36.183  30.503  19.775  1.00  0.00    -0.029 A 
HETATM   32  C4  UNL     1      36.824  31.740  19.607  1.00  0.00     0.031 A 
HETATM   33  C3  UNL     1      36.315  32.912  20.123  1.00  0.00     0.046 A 
HETATM   34  C2  UNL     1      35.137  32.915  20.839  1.00  0.00     0.109 A 
HETATM   35 BR1  UNL     1      37.204  34.582  19.880  1.00  0.00    -0.048 Br
HETATM   36  C24 UNL     1      34.494  31.715  21.015  1.00  0.00     0.090 A 
HETATM   37  C23 UNL     1      35.013  30.525  20.490  1.00  0.00     0.065 A 
HETATM   38 CL2  UNL     1      32.987  31.704  21.927  1.00  0.00    -0.079 Cl
HETATM   39 CL1  UNL     1      34.131  29.036  20.802  1.00  0.00    -0.082 Cl
BRANCH  34  40
HETATM   40  O1  UNL     1      34.625  34.113  21.360  1.00  0.00    -0.353 OA
HETATM   41  C1  UNL     1      34.949  34.433  22.696  1.00  0.00     0.210 C 
ENDBRANCH  34  40
ENDBRANCH  30  31
ENDBRANCH   1  30
TORSDOF 7
ENDMDL
MODEL 4
REMARK VINA RESULT: -7.539995221      3.310      7.086
REMARK  7 active torsions:
REMARK  status: ('A' for Active; 'I' for Inactive)
REMARK    1  A    between atoms: O1_2  and  C2_3 
REMARK    2  A    between atoms: C5_7  and  C6_8 
REMARK    3  A    between atoms: C6_8  and  C7_9 
REMARK    4  A    between atoms: C8_11  and  C9_12 
REMARK    5  A    between atoms: C9_12  and  O3_13 
REMARK    6  A    between atoms: C10_15  and  N1_16 
REMARK       I    between atoms: N1_16  and  C11_18 
REMARK    7  A    between atoms: C11_18  and  C12_20 
REMARK       I    between atoms: N2_27  and  C19_28 
REMARK       I    between atoms: N5_34  and  C21_35 
ROOT
HETATM    1  C7  UNL     1      35.241  27.176  15.904  1.00  0.00     0.230 C 
HETATM    2  O2  UNL     1      34.584  27.767  16.945  1.00  0.00    -0.357 OA
HETATM    3  C8  UNL     1      35.221  27.635  18.172  1.00  0.00     0.172 C 
HETATM    4  C10 UNL     1      36.558  28.289  18.236  1.00  0.00     0.133 C 
HETATM    5  C20 UNL     1      36.906  28.747  16.812  1.00  0.00     0.156 C 
HETATM    6  N5  UNL     1      36.663  27.559  15.990  1.00  0.00    -0.323 N 
HETATM    7  C21 UNL     1      37.693  26.849  15.344  1.00  0.00     0.217 C 
HETATM    8  C22 UNL     1      39.084  27.339  15.511  1.00  0.00     0.117 C 
HETATM    9  O5  UNL     1      37.398  25.841  14.660  1.00  0.00    -0.274 OA
ENDROOT
BRANCH   4  10
HETATM   10  N1  UNL     1      36.691  29.333  19.188  1.00  0.00    -0.350 N 
HETATM   11  C11 UNL     1      36.270  30.674  19.006  1.00  0.00     0.241 C 
HETATM   12  O4  UNL     1      35.732  30.959  17.906  1.00  0.00    -0.271 OA
ATOM     13  H1  UNL     1      37.127  29.098  20.080  1.00  0.00     0.163 HD
BRANCH  11  14
HETATM   14  C12 UNL     1      36.438  31.716  20.043  1.00  0.00     0.183 C 
HETATM   15  C13 UNL     1      36.964  33.018  19.421  1.00  0.00     0.018 C 
HETATM   16  C14 UNL     1      35.806  33.714  18.721  1.00  0.00     0.009 C 
HETATM   17  C18 UNL     1      37.378  33.904  20.575  1.00  0.00     0.009 C 
HETATM   18  C15 UNL     1      34.882  34.325  19.767  1.00  0.00     0.026 C 
HETATM   19  C16 UNL     1      35.017  33.474  21.014  1.00  0.00     0.088 C 
HETATM   20  C17 UNL     1      36.335  33.900  21.674  1.00  0.00     0.026 C 
HETATM   21  N2  UNL     1      35.199  32.065  20.690  1.00  0.00    -0.337 N 
HETATM   22  C19 UNL     1      34.171  31.140  21.024  1.00  0.00     0.185 C 
HETATM   23  N3  UNL     1      32.957  31.433  20.720  1.00  0.00    -0.374 N 
HETATM   24  N4  UNL     1      34.393  29.919  21.671  1.00  0.00    -0.064 NA
ATOM     25  H32 UNL     1      32.795  32.323  20.249  1.00  0.00     0.158 HD
ATOM     26  H31 UNL     1      32.220  30.771  20.960  1.00  0.00     0.158 HD
ENDBRANCH  11  14
ENDBRANCH   4  10
BRANCH   3  27
HETATM   27  C9  UNL     1      35.369  26.156  18.504  1.00  0.00     0.198 C 
BRANCH  27  28
HETATM   28  O3  UNL     1      36.644  25.970  19.090  1.00  0.00    -0.398 OA
ATOM     29  H3  UNL     1      36.752  26.629  19.765  1.00  0.00     0.209 HD
ENDBRANCH  27  28
ENDBRANCH   3  27
BRANCH   1  30
HETATM   30  C6  UNL     1      34.795  27.630  14.566  1.00  0.00     0.094 C 
BRANCH  30  31
HETATM   31  C5  UNL     1      33.626  28.511  14.510  1.00  0.00    -0.029 A 
HETATM   32  C4  UNL     1      33.649  29.754  15.159  1.00  0.00     0.031 A 
HETATM   33  C3  UNL     1      32.585  30.629  15.117  1.00  0.00     0.046 A 
HETATM   34  C2  UNL     1      31.437  30.311  14.424  1.00  0.00     0.109 A 
HETATM   35 BR1  UNL     1      32.640  32.315  16.007  1.00  0.00    -0.048 Br
HETATM   36  C24 UNL     1      31.394  29.098  13.782  1.00  0.00     0.090 A 
HETATM   37  C23 UNL     1      32.476  28.210  13.826  1.00  0.00     0.065 A 
HETATM   38 CL2  UNL     1      29.932  28.679  12.892  1.00  0.00    -0.079 Cl
HETATM   39 CL1  UNL     1      32.307  26.668  13.000  1.00  0.00    -0.082 Cl
BRANCH  34  40
HETATM   40  O1  UNL     1      30.358  31.208  14.385  1.00  0.00    -0.353 OA
HETATM   41  C1  UNL     1      29.320  31.019  15.323  1.00  0.00     0.210 C 
ENDBRANCH  34  40
ENDBRANCH  30  31
ENDBRANCH   1  30
TORSDOF 7
ENDMDL
MODEL 5
REMARK VINA RESULT: -7.412482364      2.281      3.447
REMARK  7 active torsions:
REMARK  status: ('A' for Active; 'I' for Inactive)
REMARK    1  A    between atoms: O1_2  and  C2_3 
REMARK    2  A    between atoms: C5_7  and  C6_8 
REMARK    3  A    between atoms: C6_8  and  C7_9 
REMARK    4  A    between atoms: C8_11  and  C9_12 
REMARK    5  A    between atoms: C9_12  and  O3_13 
REMARK    6  A    between atoms: C10_15  and  N1_16 
REMARK       I    between atoms: N1_16  and  C11_18 
REMARK    7  A    between atoms: C11_18  and  C12_20 
REMARK       I    between atoms: N2_27  and  C19_28 
REMARK       I    between atoms: N5_34  and  C21_35 
ROOT
HETATM    1  C7  UNL     1      34.439  30.836  18.147  1.00  0.00     0.230 C 
HETATM    2  O2  UNL     1      33.161  31.305  18.261  1.00  0.00    -0.357 OA
HETATM    3  C8  UNL     1      32.441  31.301  17.074  1.00  0.00     0.172 C 
HETATM    4  C10 UNL     1      32.226  29.943  16.499  1.00  0.00     0.133 C 
HETATM    5  C20 UNL     1      33.068  28.963  17.328  1.00  0.00     0.156 C 
HETATM    6  N5  UNL     1      34.393  29.584  17.369  1.00  0.00    -0.323 N 
HETATM    7  C21 UNL     1      35.519  29.034  16.725  1.00  0.00     0.217 C 
HETATM    8  C22 UNL     1      35.339  27.766  15.975  1.00  0.00     0.117 C 
HETATM    9  O5  UNL     1      36.617  29.632  16.811  1.00  0.00    -0.274 OA
ENDROOT
BRANCH   4  10
HETATM   10  N1  UNL     1      30.873  29.530  16.381  1.00  0.00    -0.350 N 
HETATM   11  C11 UNL     1      30.061  29.684  15.229  1.00  0.00     0.241 C 
HETATM   12  O4  UNL     1      30.588  30.233  14.228  1.00  0.00    -0.271 OA
ATOM     13  H1  UNL     1      30.448  29.085  17.194  1.00  0.00     0.163 HD
BRANCH  11  14
HETATM   14  C12 UNL     1      28.653  29.230  15.172  1.00  0.00     0.183 C 
HETATM   15  C13 UNL     1      27.703  30.430  15.056  1.00  0.00     0.018 C 
HETATM   16  C14 UNL     1      27.738  30.929  13.618  1.00  0.00     0.009 C 
HETATM   17  C18 UNL     1      26.309  29.893  15.301  1.00  0.00     0.009 C 
HETATM   18  C15 UNL     1      26.976  29.954  12.730  1.00  0.00     0.026 C 
HETATM   19  C16 UNL     1      27.084  28.593  13.389  1.00  0.00     0.088 C 
HETATM   20  C17 UNL     1      26.075  28.602  14.545  1.00  0.00     0.026 C 
HETATM   21  N2  UNL     1      28.381  28.402  14.026  1.00  0.00    -0.337 N 
HETATM   22  C19 UNL     1      29.276  27.433  13.495  1.00  0.00     0.185 C 
HETATM   23  N3  UNL     1      29.485  27.418  12.226  1.00  0.00    -0.374 N 
HETATM   24  N4  UNL     1      29.954  26.482  14.267  1.00  0.00    -0.064 NA
ATOM     25  H32 UNL     1      28.991  28.110  11.664  1.00  0.00     0.158 HD
ATOM     26  H31 UNL     1      30.127  26.723  11.845  1.00  0.00     0.158 HD
ENDBRANCH  11  14
ENDBRANCH   4  10
BRANCH   3  27
HETATM   27  C9  UNL     1      33.158  32.171  16.050  1.00  0.00     0.198 C 
BRANCH  27  28
HETATM   28  O3  UNL     1      33.134  31.489  14.810  1.00  0.00    -0.398 OA
ATOM     29  H3  UNL     1      32.238  31.220  14.644  1.00  0.00     0.209 HD
ENDBRANCH  27  28
ENDBRANCH   3  27
BRANCH   1  30
HETATM   30  C6  UNL     1      35.073  30.473  19.436  1.00  0.00     0.094 C 
BRANCH  30  31
HETATM   31  C5  UNL     1      35.362  31.561  20.373  1.00  0.00    -0.029 A 
HETATM   32  C4  UNL     1      36.401  32.465  20.104  1.00  0.00     0.031 A 
HETATM   33  C3  UNL     1      36.697  33.519  20.941  1.00  0.00     0.046 A 
HETATM   34  C2  UNL     1      35.973  33.730  22.094  1.00  0.00     0.109 A 
HETATM   35 BR1  UNL     1      38.114  34.736  20.554  1.00  0.00    -0.048 Br
HETATM   36  C24 UNL     1      34.952  32.856  22.376  1.00  0.00     0.090 A 
HETATM   37  C23 UNL     1      34.653  31.785  21.525  1.00  0.00     0.065 A 
HETATM   38 CL2  UNL     1      34.019  33.114  23.848  1.00  0.00    -0.079 Cl
HETATM   39 CL1  UNL     1      33.349  30.703  21.994  1.00  0.00    -0.082 Cl
BRANCH  34  40
HETATM   40  O1  UNL     1      36.281  34.806  22.941  1.00  0.00    -0.353 OA
HETATM   41  C1  UNL     1      35.512  35.982  22.805  1.00  0.00     0.210 C 
ENDBRANCH  34  40
ENDBRANCH  30  31
ENDBRANCH   1  30
TORSDOF 7
ENDMDL
