MODEL 1
REMARK VINA RESULT: -7.164782882      0.000      0.000
REMARK  3 active torsions:
REMARK  status: ('A' for Active; 'I' for Inactive)
REMARK    1  A    between atoms: C4_4  and  C5_5 
REMARK       I    between atoms: N1_10  and  C8_12 
REMARK    2  A    between atoms: C8_12  and  C9_14 
REMARK    3  A    between atoms: C9_14  and  O3_15 
ROOT
HETATM    1  C1  UNL     1      -4.665   5.896  13.854  1.00  0.00     0.010 C 
HETATM    2  C2  UNL     1      -4.039   4.714  14.540  1.00  0.00    -0.012 C 
HETATM    3  C3  UNL     1      -2.684   4.469  13.924  1.00  0.00     0.012 C 
HETATM    4  C4  UNL     1      -2.892   4.201  12.452  1.00  0.00     0.028 C 
HETATM    5  C6  UNL     1      -3.889   3.133  12.167  1.00  0.00     0.164 C 
HETATM    6  O1  UNL     1      -3.331   2.039  11.426  1.00  0.00    -0.329 OA
HETATM    7  C7  UNL     1      -3.573   0.732  11.743  1.00  0.00     0.145 C 
HETATM    8  N1  UNL     1      -3.504  -0.238  10.874  1.00  0.00    -0.307 N 
ATOM      9  H1  UNL     1      -3.259  -0.031   9.906  1.00  0.00     0.170 HD
HETATM   10  C8  UNL     1      -3.765  -1.578  11.258  1.00  0.00     0.246 C 
HETATM   11  O2  UNL     1      -4.914  -1.907  11.615  1.00  0.00    -0.271 OA
HETATM   12  C10 UNL     1      -3.930   0.404  13.145  1.00  0.00     0.252 C 
HETATM   13  O4  UNL     1      -3.689   1.563  13.902  1.00  0.00    -0.375 OA
HETATM   14  C11 UNL     1      -4.534   2.544  13.386  1.00  0.00     0.155 C 
HETATM   15  C12 UNL     1      -4.930   3.528  14.420  1.00  0.00     0.017 C 
HETATM   16  C13 UNL     1      -6.395   3.935  14.211  1.00  0.00     0.013 C 
ENDROOT
BRANCH  10  17
HETATM   17  C9  UNL     1      -2.690  -2.621  11.248  1.00  0.00     0.267 C 
BRANCH  17  18
HETATM   18  O3  UNL     1      -3.174  -3.859  11.588  1.00  0.00    -0.392 OA
ATOM     19  H3  UNL     1      -3.610  -4.283  10.858  1.00  0.00     0.210 HD
ENDBRANCH  17  18
ENDBRANCH  10  17
BRANCH   4  20
HETATM   20  C5  UNL     1      -1.522   3.889  11.866  1.00  0.00     0.093 C 
HETATM   21  S1  UNL     1      -0.468   5.343  11.840  1.00  0.00    -0.097 SA
ENDBRANCH   4  20
TORSDOF 3
ENDMDL
MODEL 2
REMARK VINA RESULT: -7.005231860      2.616      3.337
REMARK  3 active torsions:
REMARK  status: ('A' for Active; 'I' for Inactive)
REMARK    1  A    between atoms: C4_4  and  C5_5 
REMARK       I    between atoms: N1_10  and  C8_12 
REMARK    2  A    between atoms: C8_12  and  C9_14 
REMARK    3  A    between atoms: C9_14  and  O3_15 
ROOT
HETATM    1  C1  UNL     1      -5.486   5.840  15.269  1.00  0.00     0.010 C 
HETATM    2  C2  UNL     1      -6.284   4.900  14.408  1.00  0.00    -0.012 C 
HETATM    3  C3  UNL     1      -6.429   3.589  15.142  1.00  0.00     0.012 C 
HETATM    4  C4  UNL     1      -5.041   3.052  15.399  1.00  0.00     0.028 C 
HETATM    5  C6  UNL     1      -4.189   2.973  14.181  1.00  0.00     0.164 C 
HETATM    6  O1  UNL     1      -3.741   1.639  13.905  1.00  0.00    -0.329 OA
HETATM    7  C7  UNL     1      -3.768   1.094  12.652  1.00  0.00     0.145 C 
HETATM    8  N1  UNL     1      -2.971   0.133  12.274  1.00  0.00    -0.307 N 
ATOM      9  H1  UNL     1      -2.289  -0.244  12.931  1.00  0.00     0.170 HD
HETATM   10  C8  UNL     1      -3.043  -0.394  10.959  1.00  0.00     0.246 C 
HETATM   11  O2  UNL     1      -2.728   0.321   9.987  1.00  0.00    -0.271 OA
HETATM   12  C10 UNL     1      -4.751   1.625  11.676  1.00  0.00     0.252 C 
HETATM   13  O4  UNL     1      -5.628   2.451  12.400  1.00  0.00    -0.375 OA
HETATM   14  C11 UNL     1      -4.845   3.476  12.930  1.00  0.00     0.155 C 
HETATM   15  C12 UNL     1      -5.616   4.731  13.090  1.00  0.00     0.017 C 
HETATM   16  C13 UNL     1      -4.725   5.931  12.744  1.00  0.00     0.013 C 
ENDROOT
BRANCH  10  17
HETATM   17  C9  UNL     1      -3.489  -1.801  10.702  1.00  0.00     0.267 C 
BRANCH  17  18
HETATM   18  O3  UNL     1      -2.583  -2.719  11.170  1.00  0.00    -0.392 OA
ATOM     19  H3  UNL     1      -2.158  -3.191  10.463  1.00  0.00     0.210 HD
ENDBRANCH  17  18
ENDBRANCH  10  17
BRANCH   4  20
HETATM   20  C5  UNL     1      -5.213   1.700  16.077  1.00  0.00     0.093 C 
HETATM   21  S1  UNL     1      -6.735   1.627  17.027  1.00  0.00    -0.097 SA
ENDBRANCH   4  20
TORSDOF 3
ENDMDL
MODEL 3
REMARK VINA RESULT: -7.001736794      3.206      4.608
REMARK  3 active torsions:
REMARK  status: ('A' for Active; 'I' for Inactive)
REMARK    1  A    between atoms: C4_4  and  C5_5 
REMARK       I    between atoms: N1_10  and  C8_12 
REMARK    2  A    between atoms: C8_12  and  C9_14 
REMARK    3  A    between atoms: C9_14  and  O3_15 
ROOT
HETATM    1  C1  UNL     1      -1.878   5.169   9.938  1.00  0.00     0.010 C 
HETATM    2  C2  UNL     1      -3.089   4.286  10.057  1.00  0.00    -0.012 C 
HETATM    3  C3  UNL     1      -4.157   5.043  10.808  1.00  0.00     0.012 C 
HETATM    4  C4  UNL     1      -3.599   5.394  12.167  1.00  0.00     0.028 C 
HETATM    5  C6  UNL     1      -3.044   4.231  12.911  1.00  0.00     0.164 C 
HETATM    6  O1  UNL     1      -3.699   4.014  14.169  1.00  0.00    -0.329 OA
HETATM    7  C7  UNL     1      -4.084   2.776  14.599  1.00  0.00     0.145 C 
HETATM    8  N1  UNL     1      -4.227   2.469  15.859  1.00  0.00    -0.307 N 
ATOM      9  H1  UNL     1      -4.047   3.175  16.572  1.00  0.00     0.170 HD
HETATM   10  C8  UNL     1      -4.629   1.166  16.248  1.00  0.00     0.246 C 
HETATM   11  O2  UNL     1      -3.871   0.197  16.042  1.00  0.00    -0.271 OA
HETATM   12  C10 UNL     1      -4.353   1.731  13.581  1.00  0.00     0.252 C 
HETATM   13  O4  UNL     1      -4.371   2.381  12.335  1.00  0.00    -0.375 OA
HETATM   14  C11 UNL     1      -3.101   2.931  12.166  1.00  0.00     0.155 C 
HETATM   15  C12 UNL     1      -2.723   3.014  10.736  1.00  0.00     0.017 C 
HETATM   16  C13 UNL     1      -1.231   2.692  10.577  1.00  0.00     0.013 C 
ENDROOT
BRANCH  10  17
HETATM   17  C9  UNL     1      -5.951   0.918  16.907  1.00  0.00     0.267 C 
BRANCH  17  18
HETATM   18  O3  UNL     1      -6.032  -0.347  17.433  1.00  0.00    -0.392 OA
ATOM     19  H3  UNL     1      -6.811  -0.804  17.140  1.00  0.00     0.210 HD
ENDBRANCH  17  18
ENDBRANCH  10  17
BRANCH   4  20
HETATM   20  C5  UNL     1      -4.715   6.093  12.931  1.00  0.00     0.093 C 
HETATM   21  S1  UNL     1      -5.808   6.993  11.826  1.00  0.00    -0.097 SA
ENDBRANCH   4  20
TORSDOF 3
ENDMDL
MODEL 4
REMARK VINA RESULT: -6.763675524      3.042      4.355
REMARK  3 active torsions:
REMARK  status: ('A' for Active; 'I' for Inactive)
REMARK    1  A    between atoms: C4_4  and  C5_5 
REMARK       I    between atoms: N1_10  and  C8_12 
REMARK    2  A    between atoms: C8_12  and  C9_14 
REMARK    3  A    between atoms: C9_14  and  O3_15 
ROOT
HETATM    1  C1  UNL     1      -1.225   5.356  10.381  1.00  0.00     0.010 C 
HETATM    2  C2  UNL     1      -2.677   4.990  10.527  1.00  0.00    -0.012 C 
HETATM    3  C3  UNL     1      -3.258   5.796  11.663  1.00  0.00     0.012 C 
HETATM    4  C4  UNL     1      -2.479   5.456  12.911  1.00  0.00     0.028 C 
HETATM    5  C6  UNL     1      -2.388   3.996  13.188  1.00  0.00     0.164 C 
HETATM    6  O1  UNL     1      -2.952   3.637  14.458  1.00  0.00    -0.329 OA
HETATM    7  C7  UNL     1      -3.774   2.558  14.623  1.00  0.00     0.145 C 
HETATM    8  N1  UNL     1      -3.911   1.933  15.759  1.00  0.00    -0.307 N 
ATOM      9  H1  UNL     1      -3.387   2.249  16.575  1.00  0.00     0.170 HD
HETATM   10  C8  UNL     1      -4.779   0.817  15.874  1.00  0.00     0.246 C 
HETATM   11  O2  UNL     1      -4.515  -0.238  15.264  1.00  0.00    -0.271 OA
HETATM   12  C10 UNL     1      -4.547   2.078  13.452  1.00  0.00     0.252 C 
HETATM   13  O4  UNL     1      -4.412   3.057  12.453  1.00  0.00    -0.375 OA
HETATM   14  C11 UNL     1      -3.050   3.127  12.161  1.00  0.00     0.155 C 
HETATM   15  C12 UNL     1      -2.809   3.527  10.755  1.00  0.00     0.017 C 
HETATM   16  C13 UNL     1      -1.608   2.752  10.197  1.00  0.00     0.013 C 
ENDROOT
BRANCH  10  17
HETATM   17  C9  UNL     1      -6.016   0.869  16.717  1.00  0.00     0.267 C 
BRANCH  17  18
HETATM   18  O3  UNL     1      -6.174  -0.269  17.466  1.00  0.00    -0.392 OA
ATOM     19  H3  UNL     1      -6.937  -0.220  18.030  1.00  0.00     0.210 HD
ENDBRANCH  17  18
ENDBRANCH  10  17
BRANCH   4  20
HETATM   20  C5  UNL     1      -3.125   6.224  14.055  1.00  0.00     0.093 C 
HETATM   21  S1  UNL     1      -2.177   7.688  14.485  1.00  0.00    -0.097 SA
ENDBRANCH   4  20
TORSDOF 3
ENDMDL
MODEL 5
REMARK VINA RESULT: -6.705122773      2.176      2.908
REMARK  3 active torsions:
REMARK  status: ('A' for Active; 'I' for Inactive)
REMARK    1  A    between atoms: C4_4  and  C5_5 
REMARK       I    between atoms: N1_10  and  C8_12 
REMARK    2  A    between atoms: C8_12  and  C9_14 
REMARK    3  A    between atoms: C9_14  and  O3_15 
ROOT
HETATM    1  C1  UNL     1      -3.773   7.354  12.393  1.00  0.00     0.010 C 
HETATM    2  C2  UNL     1      -4.854   6.311  12.308  1.00  0.00    -0.012 C 
HETATM    3  C3  UNL     1      -4.809   5.477  13.565  1.00  0.00     0.012 C 
HETATM    4  C4  UNL     1      -3.441   4.843  13.646  1.00  0.00     0.028 C 
HETATM    5  C6  UNL     1      -3.043   4.106  12.416  1.00  0.00     0.164 C 
HETATM    6  O1  UNL     1      -2.773   2.719  12.664  1.00  0.00    -0.329 OA
HETATM    7  C7  UNL     1      -3.237   1.719  11.856  1.00  0.00     0.145 C 
HETATM    8  N1  UNL     1      -2.656   0.557  11.753  1.00  0.00    -0.307 N 
ATOM      9  H1  UNL     1      -1.813   0.365  12.295  1.00  0.00     0.170 HD
HETATM   10  C8  UNL     1      -3.181  -0.445  10.898  1.00  0.00     0.246 C 
HETATM   11  O2  UNL     1      -3.172  -0.271   9.663  1.00  0.00    -0.271 OA
HETATM   12  C10 UNL     1      -4.462   1.973  11.058  1.00  0.00     0.252 C 
HETATM   13  O4  UNL     1      -5.011   3.174  11.537  1.00  0.00    -0.375 OA
HETATM   14  C11 UNL     1      -4.051   4.158  11.307  1.00  0.00     0.155 C 
HETATM   15  C12 UNL     1      -4.666   5.487  11.084  1.00  0.00     0.017 C 
HETATM   16  C13 UNL     1      -3.884   6.243  10.002  1.00  0.00     0.013 C 
ENDROOT
BRANCH  10  17
HETATM   17  C9  UNL     1      -3.752  -1.719  11.440  1.00  0.00     0.267 C 
BRANCH  17  18
HETATM   18  O3  UNL     1      -2.800  -2.702  11.550  1.00  0.00    -0.392 OA
ATOM     19  H3  UNL     1      -3.119  -3.542  11.243  1.00  0.00     0.210 HD
ENDBRANCH  17  18
ENDBRANCH  10  17
BRANCH   4  20
HETATM   20  C5  UNL     1      -3.442   3.954  14.881  1.00  0.00     0.093 C 
HETATM   21  S1  UNL     1      -5.028   3.143  15.109  1.00  0.00    -0.097 SA
ENDBRANCH   4  20
TORSDOF 3
ENDMDL
