MODEL 1
REMARK VINA RESULT: -7.453324421      0.000      0.000
REMARK  11 active torsions:
REMARK  status: ('A' for Active; 'I' for Inactive)
REMARK    1  A    between atoms: C2_2  and  C3_3 
REMARK    2  A    between atoms: C3_3  and  C4_4 
REMARK    3  A    between atoms: C4_4  and  C5_5 
REMARK    4  A    between atoms: C5_5  and  C6_6 
REMARK    5  A    between atoms: C6_6  and  C7_7 
REMARK    6  A    between atoms: C7_7  and  C8_8 
REMARK    7  A    between atoms: C7_7  and  N3_24 
REMARK    8  A    between atoms: C8_8  and  O1_9 
REMARK    9  A    between atoms: C8_8  and  C9_11 
REMARK   10  A    between atoms: C9_11  and  N1_13 
REMARK   11  A    between atoms: N1_13  and  C11_15 
ROOT
HETATM    1  C8  UNL     1      34.677  80.757  -0.969  1.00  0.00     0.162 C 
ENDROOT
BRANCH   1   2
HETATM    2  C7  UNL     1      34.982  79.610  -1.797  1.00  0.00     0.109 C 
BRANCH   2   3
HETATM    3  C6  UNL     1      36.347  79.028  -1.851  1.00  0.00     0.027 C 
BRANCH   3   4
HETATM    4  C5  UNL     1      37.040  78.680  -3.102  1.00  0.00     0.002 C 
BRANCH   4   5
HETATM    5  C4  UNL     1      36.735  77.257  -3.570  1.00  0.00     0.000 C 
BRANCH   5   6
HETATM    6  C3  UNL     1      36.298  77.303  -5.011  1.00  0.00    -0.000 C 
BRANCH   6   7
HETATM    7  C2  UNL     1      34.865  77.711  -5.174  1.00  0.00    -0.005 C 
HETATM    8  C1  UNL     1      34.204  77.271  -6.438  1.00  0.00     0.005 C 
ENDBRANCH   6   7
ENDBRANCH   5   6
ENDBRANCH   4   5
ENDBRANCH   3   4
ENDBRANCH   2   3
BRANCH   2   9
HETATM    9  N3  UNL     1      34.127  78.469  -1.456  1.00  0.00    -0.414 N 
HETATM   10  C17 UNL     1      32.926  78.325  -2.138  1.00  0.00     0.143 C 
HETATM   11  C18 UNL     1      34.544  77.624  -0.447  1.00  0.00     0.143 C 
ENDBRANCH   2   9
ENDBRANCH   1   2
BRANCH   1  12
HETATM   12  O1  UNL     1      35.435  80.742   0.241  1.00  0.00    -0.391 OA
ATOM     13  H1  UNL     1      34.915  81.039   0.980  1.00  0.00     0.210 HD
ENDBRANCH   1  12
BRANCH   1  14
HETATM   14  C9  UNL     1      34.454  82.161  -1.350  1.00  0.00     0.110 C 
HETATM   15  C10 UNL     1      35.617  82.837  -2.056  1.00  0.00     0.035 C 
BRANCH  14  16
HETATM   16  N1  UNL     1      34.313  82.948  -0.091  1.00  0.00    -0.369 N 
ATOM     17  H1  UNL     1      35.111  82.988   0.543  1.00  0.00     0.161 HD
BRANCH  16  18
HETATM   18  C11 UNL     1      33.268  83.563   0.234  1.00  0.00     0.107 A 
HETATM   19  N2  UNL     1      32.099  83.600  -0.438  1.00  0.00    -0.351 N 
HETATM   20  C12 UNL     1      31.071  84.374  -0.009  1.00  0.00     0.108 A 
ATOM     21  H2  UNL     1      31.987  83.038  -1.282  1.00  0.00     0.166 HD
HETATM   22  C13 UNL     1      31.174  85.139   1.104  1.00  0.00     0.027 A 
HETATM   23 BR1  UNL     1      29.705  86.254   1.706  1.00  0.00    -0.050 Br
HETATM   24  C14 UNL     1      32.352  85.131   1.821  1.00  0.00     0.031 A 
HETATM   25  C15 UNL     1      33.391  84.350   1.391  1.00  0.00    -0.017 A 
HETATM   26  C16 UNL     1      34.666  84.335   2.137  1.00  0.00     0.052 C 
ENDBRANCH  16  18
ENDBRANCH  14  16
ENDBRANCH   1  14
TORSDOF 11
ENDMDL
MODEL 2
REMARK VINA RESULT: -7.445530234      2.183      4.018
REMARK  11 active torsions:
REMARK  status: ('A' for Active; 'I' for Inactive)
REMARK    1  A    between atoms: C2_2  and  C3_3 
REMARK    2  A    between atoms: C3_3  and  C4_4 
REMARK    3  A    between atoms: C4_4  and  C5_5 
REMARK    4  A    between atoms: C5_5  and  C6_6 
REMARK    5  A    between atoms: C6_6  and  C7_7 
REMARK    6  A    between atoms: C7_7  and  C8_8 
REMARK    7  A    between atoms: C7_7  and  N3_24 
REMARK    8  A    between atoms: C8_8  and  O1_9 
REMARK    9  A    between atoms: C8_8  and  C9_11 
REMARK   10  A    between atoms: C9_11  and  N1_13 
REMARK   11  A    between atoms: N1_13  and  C11_15 
ROOT
HETATM    1  C8  UNL     1      35.142  80.713  -0.449  1.00  0.00     0.162 C 
ENDROOT
BRANCH   1   2
HETATM    2  C7  UNL     1      34.627  79.390  -0.167  1.00  0.00     0.109 C 
BRANCH   2   3
HETATM    3  C6  UNL     1      33.250  79.182   0.348  1.00  0.00     0.027 C 
BRANCH   3   4
HETATM    4  C5  UNL     1      32.839  78.010   1.137  1.00  0.00     0.002 C 
BRANCH   4   5
HETATM    5  C4  UNL     1      31.897  77.082   0.371  1.00  0.00     0.000 C 
BRANCH   5   6
HETATM    6  C3  UNL     1      30.584  77.008   1.105  1.00  0.00    -0.000 C 
BRANCH   6   7
HETATM    7  C2  UNL     1      30.579  77.807   2.374  1.00  0.00    -0.005 C 
HETATM    8  C1  UNL     1      29.268  77.891   3.084  1.00  0.00     0.005 C 
ENDBRANCH   6   7
ENDBRANCH   5   6
ENDBRANCH   4   5
ENDBRANCH   3   4
ENDBRANCH   2   3
BRANCH   2   9
HETATM    9  N3  UNL     1      34.692  78.533  -1.354  1.00  0.00    -0.414 N 
HETATM   10  C17 UNL     1      35.669  77.548  -1.397  1.00  0.00     0.143 C 
HETATM   11  C18 UNL     1      33.804  78.780  -2.382  1.00  0.00     0.143 C 
ENDBRANCH   2   9
ENDBRANCH   1   2
BRANCH   1  12
HETATM   12  O1  UNL     1      36.476  80.656  -0.957  1.00  0.00    -0.391 OA
ATOM     13  H1  UNL     1      37.107  80.938  -0.305  1.00  0.00     0.210 HD
ENDBRANCH   1  12
BRANCH   1  14
HETATM   14  C9  UNL     1      34.473  81.875  -1.056  1.00  0.00     0.110 C 
HETATM   15  C10 UNL     1      35.232  82.546  -2.189  1.00  0.00     0.035 C 
BRANCH  14  16
HETATM   16  N1  UNL     1      34.397  82.940  -0.015  1.00  0.00    -0.369 N 
ATOM     17  H1  UNL     1      35.249  83.181   0.489  1.00  0.00     0.161 HD
BRANCH  16  18
HETATM   18  C11 UNL     1      33.343  83.558   0.275  1.00  0.00     0.107 A 
HETATM   19  N2  UNL     1      32.198  83.599  -0.436  1.00  0.00    -0.351 N 
HETATM   20  C12 UNL     1      31.158  84.375  -0.041  1.00  0.00     0.108 A 
ATOM     21  H2  UNL     1      32.113  83.039  -1.284  1.00  0.00     0.166 HD
HETATM   22  C13 UNL     1      31.225  85.138   1.076  1.00  0.00     0.027 A 
HETATM   23 BR1  UNL     1      29.739  86.255   1.630  1.00  0.00    -0.050 Br
HETATM   24  C14 UNL     1      32.378  85.126   1.833  1.00  0.00     0.031 A 
HETATM   25  C15 UNL     1      33.429  84.342   1.437  1.00  0.00    -0.017 A 
HETATM   26  C16 UNL     1      34.678  84.323   2.226  1.00  0.00     0.052 C 
ENDBRANCH  16  18
ENDBRANCH  14  16
ENDBRANCH   1  14
TORSDOF 11
ENDMDL
MODEL 3
REMARK VINA RESULT: -7.411183607      1.706      3.287
REMARK  11 active torsions:
REMARK  status: ('A' for Active; 'I' for Inactive)
REMARK    1  A    between atoms: C2_2  and  C3_3 
REMARK    2  A    between atoms: C3_3  and  C4_4 
REMARK    3  A    between atoms: C4_4  and  C5_5 
REMARK    4  A    between atoms: C5_5  and  C6_6 
REMARK    5  A    between atoms: C6_6  and  C7_7 
REMARK    6  A    between atoms: C7_7  and  C8_8 
REMARK    7  A    between atoms: C7_7  and  N3_24 
REMARK    8  A    between atoms: C8_8  and  O1_9 
REMARK    9  A    between atoms: C8_8  and  C9_11 
REMARK   10  A    between atoms: C9_11  and  N1_13 
REMARK   11  A    between atoms: N1_13  and  C11_15 
ROOT
HETATM    1  C8  UNL     1      35.144  80.684  -0.428  1.00  0.00     0.162 C 
ENDROOT
BRANCH   1   2
HETATM    2  C7  UNL     1      34.653  79.353  -0.143  1.00  0.00     0.109 C 
BRANCH   2   3
HETATM    3  C6  UNL     1      33.297  79.125   0.420  1.00  0.00     0.027 C 
BRANCH   3   4
HETATM    4  C5  UNL     1      32.958  78.003   1.310  1.00  0.00     0.002 C 
BRANCH   4   5
HETATM    5  C4  UNL     1      31.509  77.543   1.154  1.00  0.00     0.000 C 
BRANCH   5   6
HETATM    6  C3  UNL     1      31.382  76.763  -0.128  1.00  0.00    -0.000 C 
BRANCH   6   7
HETATM    7  C2  UNL     1      30.056  76.956  -0.800  1.00  0.00    -0.005 C 
HETATM    8  C1  UNL     1      30.093  77.638  -2.127  1.00  0.00     0.005 C 
ENDBRANCH   6   7
ENDBRANCH   5   6
ENDBRANCH   4   5
ENDBRANCH   3   4
ENDBRANCH   2   3
BRANCH   2   9
HETATM    9  N3  UNL     1      34.681  78.510  -1.342  1.00  0.00    -0.414 N 
HETATM   10  C17 UNL     1      35.692  77.565  -1.453  1.00  0.00     0.143 C 
HETATM   11  C18 UNL     1      33.726  78.732  -2.314  1.00  0.00     0.143 C 
ENDBRANCH   2   9
ENDBRANCH   1   2
BRANCH   1  12
HETATM   12  O1  UNL     1      36.469  80.647  -0.962  1.00  0.00    -0.391 OA
ATOM     13  H1  UNL     1      36.600  81.329  -1.610  1.00  0.00     0.210 HD
ENDBRANCH   1  12
BRANCH   1  14
HETATM   14  C9  UNL     1      34.448  81.840  -1.015  1.00  0.00     0.110 C 
HETATM   15  C10 UNL     1      35.179  82.530  -2.155  1.00  0.00     0.035 C 
BRANCH  14  16
HETATM   16  N1  UNL     1      34.373  82.896   0.034  1.00  0.00    -0.369 N 
ATOM     17  H1  UNL     1      35.220  83.114   0.559  1.00  0.00     0.161 HD
BRANCH  16  18
HETATM   18  C11 UNL     1      33.327  83.534   0.308  1.00  0.00     0.107 A 
HETATM   19  N2  UNL     1      32.181  83.568  -0.402  1.00  0.00    -0.351 N 
HETATM   20  C12 UNL     1      31.150  84.367  -0.027  1.00  0.00     0.108 A 
ATOM     21  H2  UNL     1      32.087  82.985  -1.233  1.00  0.00     0.166 HD
HETATM   22  C13 UNL     1      31.228  85.161   1.067  1.00  0.00     0.027 A 
HETATM   23 BR1  UNL     1      29.757  86.310   1.591  1.00  0.00    -0.050 Br
HETATM   24  C14 UNL     1      32.383  85.157   1.822  1.00  0.00     0.031 A 
HETATM   25  C15 UNL     1      33.423  84.351   1.447  1.00  0.00    -0.017 A 
HETATM   26  C16 UNL     1      34.674  84.340   2.234  1.00  0.00     0.052 C 
ENDBRANCH  16  18
ENDBRANCH  14  16
ENDBRANCH   1  14
TORSDOF 11
ENDMDL
MODEL 4
REMARK VINA RESULT: -7.358503694      1.085      1.655
REMARK  11 active torsions:
REMARK  status: ('A' for Active; 'I' for Inactive)
REMARK    1  A    between atoms: C2_2  and  C3_3 
REMARK    2  A    between atoms: C3_3  and  C4_4 
REMARK    3  A    between atoms: C4_4  and  C5_5 
REMARK    4  A    between atoms: C5_5  and  C6_6 
REMARK    5  A    between atoms: C6_6  and  C7_7 
REMARK    6  A    between atoms: C7_7  and  C8_8 
REMARK    7  A    between atoms: C7_7  and  N3_24 
REMARK    8  A    between atoms: C8_8  and  O1_9 
REMARK    9  A    between atoms: C8_8  and  C9_11 
REMARK   10  A    between atoms: C9_11  and  N1_13 
REMARK   11  A    between atoms: N1_13  and  C11_15 
ROOT
HETATM    1  C8  UNL     1      34.842  80.832  -0.962  1.00  0.00     0.162 C 
ENDROOT
BRANCH   1   2
HETATM    2  C7  UNL     1      34.321  79.575  -1.455  1.00  0.00     0.109 C 
BRANCH   2   3
HETATM    3  C6  UNL     1      35.029  78.792  -2.500  1.00  0.00     0.027 C 
BRANCH   3   4
HETATM    4  C5  UNL     1      34.900  79.047  -3.943  1.00  0.00     0.002 C 
BRANCH   4   5
HETATM    5  C4  UNL     1      34.525  77.793  -4.733  1.00  0.00     0.000 C 
BRANCH   5   6
HETATM    6  C3  UNL     1      33.708  76.888  -3.848  1.00  0.00    -0.000 C 
BRANCH   6   7
HETATM    7  C2  UNL     1      32.233  77.017  -4.084  1.00  0.00    -0.005 C 
HETATM    8  C1  UNL     1      31.455  77.665  -2.987  1.00  0.00     0.005 C 
ENDBRANCH   6   7
ENDBRANCH   5   6
ENDBRANCH   4   5
ENDBRANCH   3   4
ENDBRANCH   2   3
BRANCH   2   9
HETATM    9  N3  UNL     1      34.133  78.615  -0.363  1.00  0.00    -0.414 N 
HETATM   10  C17 UNL     1      33.336  78.992   0.709  1.00  0.00     0.143 C 
HETATM   11  C18 UNL     1      34.793  77.405  -0.443  1.00  0.00     0.143 C 
ENDBRANCH   2   9
ENDBRANCH   1   2
BRANCH   1  12
HETATM   12  O1  UNL     1      36.255  80.767  -0.765  1.00  0.00    -0.391 OA
ATOM     13  H1  UNL     1      36.473  80.289   0.027  1.00  0.00     0.210 HD
ENDBRANCH   1  12
BRANCH   1  14
HETATM   14  C9  UNL     1      34.498  82.210  -1.346  1.00  0.00     0.110 C 
HETATM   15  C10 UNL     1      35.582  82.968  -2.095  1.00  0.00     0.035 C 
BRANCH  14  16
HETATM   16  N1  UNL     1      34.334  82.996  -0.090  1.00  0.00    -0.369 N 
ATOM     17  H1  UNL     1      35.124  83.043   0.554  1.00  0.00     0.161 HD
BRANCH  16  18
HETATM   18  C11 UNL     1      33.281  83.604   0.221  1.00  0.00     0.107 A 
HETATM   19  N2  UNL     1      32.125  83.644  -0.474  1.00  0.00    -0.351 N 
HETATM   20  C12 UNL     1      31.086  84.410  -0.057  1.00  0.00     0.108 A 
ATOM     21  H2  UNL     1      32.032  83.090  -1.325  1.00  0.00     0.166 HD
HETATM   22  C13 UNL     1      31.164  85.163   1.066  1.00  0.00     0.027 A 
HETATM   23 BR1  UNL     1      29.679  86.266   1.650  1.00  0.00    -0.050 Br
HETATM   24  C14 UNL     1      32.328  85.152   1.806  1.00  0.00     0.031 A 
HETATM   25  C15 UNL     1      33.378  84.379   1.389  1.00  0.00    -0.017 A 
HETATM   26  C16 UNL     1      34.639  84.361   2.159  1.00  0.00     0.052 C 
ENDBRANCH  16  18
ENDBRANCH  14  16
ENDBRANCH   1  14
TORSDOF 11
ENDMDL
MODEL 5
REMARK VINA RESULT: -7.200534555      3.405      6.307
REMARK  11 active torsions:
REMARK  status: ('A' for Active; 'I' for Inactive)
REMARK    1  A    between atoms: C2_2  and  C3_3 
REMARK    2  A    between atoms: C3_3  and  C4_4 
REMARK    3  A    between atoms: C4_4  and  C5_5 
REMARK    4  A    between atoms: C5_5  and  C6_6 
REMARK    5  A    between atoms: C6_6  and  C7_7 
REMARK    6  A    between atoms: C7_7  and  C8_8 
REMARK    7  A    between atoms: C7_7  and  N3_24 
REMARK    8  A    between atoms: C8_8  and  O1_9 
REMARK    9  A    between atoms: C8_8  and  C9_11 
REMARK   10  A    between atoms: C9_11  and  N1_13 
REMARK   11  A    between atoms: N1_13  and  C11_15 
ROOT
HETATM    1  C8  UNL     1      34.227  77.141  -2.229  1.00  0.00     0.162 C 
ENDROOT
BRANCH   1   2
HETATM    2  C7  UNL     1      34.985  78.354  -2.448  1.00  0.00     0.109 C 
BRANCH   2   3
HETATM    3  C6  UNL     1      35.819  78.958  -1.377  1.00  0.00     0.027 C 
BRANCH   3   4
HETATM    4  C5  UNL     1      35.318  79.945  -0.407  1.00  0.00     0.002 C 
BRANCH   4   5
HETATM    5  C4  UNL     1      34.619  81.128  -1.076  1.00  0.00     0.000 C 
BRANCH   5   6
HETATM    6  C3  UNL     1      33.806  81.860  -0.040  1.00  0.00    -0.000 C 
BRANCH   6   7
HETATM    7  C2  UNL     1      33.840  83.348  -0.216  1.00  0.00    -0.005 C 
HETATM    8  C1  UNL     1      33.467  84.153   0.986  1.00  0.00     0.005 C 
ENDBRANCH   6   7
ENDBRANCH   5   6
ENDBRANCH   4   5
ENDBRANCH   3   4
ENDBRANCH   2   3
BRANCH   2   9
HETATM    9  N3  UNL     1      35.912  78.204  -3.573  1.00  0.00    -0.414 N 
HETATM   10  C17 UNL     1      35.399  77.772  -4.789  1.00  0.00     0.143 C 
HETATM   11  C18 UNL     1      37.250  78.459  -3.350  1.00  0.00     0.143 C 
ENDBRANCH   2   9
ENDBRANCH   1   2
BRANCH   1  12
HETATM   12  O1  UNL     1      34.812  76.341  -1.199  1.00  0.00    -0.391 OA
ATOM     13  H1  UNL     1      34.856  75.427  -1.454  1.00  0.00     0.210 HD
ENDBRANCH   1  12
BRANCH   1  14
HETATM   14  C9  UNL     1      32.771  76.932  -2.195  1.00  0.00     0.110 C 
HETATM   15  C10 UNL     1      32.014  77.417  -3.420  1.00  0.00     0.035 C 
BRANCH  14  16
HETATM   16  N1  UNL     1      32.223  77.778  -1.096  1.00  0.00    -0.369 N 
ATOM     17  H1  UNL     1      32.629  78.703  -0.954  1.00  0.00     0.161 HD
BRANCH  16  18
HETATM   18  C11 UNL     1      31.292  77.418  -0.336  1.00  0.00     0.107 A 
HETATM   19  N2  UNL     1      30.078  76.951  -0.695  1.00  0.00    -0.351 N 
HETATM   20  C12 UNL     1      29.134  76.671   0.238  1.00  0.00     0.108 A 
ATOM     21  H2  UNL     1      29.868  76.806  -1.682  1.00  0.00     0.166 HD
HETATM   22  C13 UNL     1      29.366  76.849   1.560  1.00  0.00     0.027 A 
HETATM   23 BR1  UNL     1      28.008  76.459   2.889  1.00  0.00    -0.050 Br
HETATM   24  C14 UNL     1      30.594  77.325   1.971  1.00  0.00     0.031 A 
HETATM   25  C15 UNL     1      31.550  77.607   1.032  1.00  0.00    -0.017 A 
HETATM   26  C16 UNL     1      32.868  78.130   1.449  1.00  0.00     0.052 C 
ENDBRANCH  16  18
ENDBRANCH  14  16
ENDBRANCH   1  14
TORSDOF 11
ENDMDL
