MODEL 1
REMARK VINA RESULT: -9.584609969      0.000      0.000
REMARK  9 active torsions:
REMARK  status: ('A' for Active; 'I' for Inactive)
REMARK       I    between atoms: C1_2  and  N1_3 
REMARK    1  A    between atoms: C1_2  and  C10_14 
REMARK    2  A    between atoms: N1_3  and  C2_5 
REMARK    3  A    between atoms: C2_5  and  C3_6 
REMARK    4  A    between atoms: C3_6  and  C4_7 
REMARK    5  A    between atoms: C4_7  and  C5_8 
REMARK    6  A    between atoms: C5_8  and  C6_9 
REMARK    7  A    between atoms: C6_9  and  C7_10 
REMARK    8  A    between atoms: C7_10  and  C8_11 
REMARK    9  A    between atoms: C8_11  and  C9_12 
ROOT
HETATM    1  C10 UNL     1      35.246  80.574  -1.761  1.00  0.00     0.167 C 
HETATM    2  N2  UNL     1      35.220  79.860  -0.702  1.00  0.00    -0.372 N 
ATOM      3  H2  UNL     1      34.860  80.227   0.178  1.00  0.00     0.161 HD
HETATM    4  C11 UNL     1      35.731  78.490  -0.804  1.00  0.00     0.123 C 
HETATM    5  C12 UNL     1      35.100  77.910  -2.065  1.00  0.00     0.050 C 
HETATM    6  C13 UNL     1      35.704  78.599  -3.270  1.00  0.00     0.033 C 
HETATM    7  C14 UNL     1      37.077  78.014  -3.479  1.00  0.00     0.031 C 
HETATM    8  C15 UNL     1      37.167  77.212  -4.756  1.00  0.00     0.002 C 
HETATM    9  C16 UNL     1      35.990  76.275  -4.917  1.00  0.00     0.000 C 
HETATM   10  C17 UNL     1      34.669  76.978  -4.868  1.00  0.00     0.002 C 
HETATM   11  C18 UNL     1      34.860  78.434  -4.511  1.00  0.00     0.031 C 
HETATM   12  N3  UNL     1      35.758  80.017  -2.965  1.00  0.00    -0.363 N 
ATOM     13  H3  UNL     1      36.182  80.644  -3.648  1.00  0.00     0.162 HD
ENDROOT
BRANCH   1  14
HETATM   14  C1  UNL     1      34.743  81.953  -1.697  1.00  0.00     0.284 C 
HETATM   15  O1  UNL     1      34.630  82.552  -2.815  1.00  0.00    -0.264 OA
HETATM   16  N1  UNL     1      34.411  82.555  -0.466  1.00  0.00    -0.354 N 
ATOM     17  H1  UNL     1      34.518  82.017   0.395  1.00  0.00     0.162 HD
BRANCH  16  18
HETATM   18  C2  UNL     1      33.927  83.899  -0.390  1.00  0.00     0.123 C 
BRANCH  18  19
HETATM   19  C3  UNL     1      33.332  84.150   0.966  1.00  0.00     0.020 C 
BRANCH  19  20
HETATM   20  C4  UNL     1      31.854  84.508   0.840  1.00  0.00     0.002 C 
BRANCH  20  21
HETATM   21  C5  UNL     1      31.412  85.501   1.852  1.00  0.00     0.000 C 
BRANCH  21  22
HETATM   22  C6  UNL     1      29.980  85.937   1.556  1.00  0.00     0.000 C 
BRANCH  22  23
HETATM   23  C7  UNL     1      29.661  85.976   0.115  1.00  0.00     0.001 C 
BRANCH  23  24
HETATM   24  C8  UNL     1      28.650  86.941  -0.367  1.00  0.00     0.011 C 
BRANCH  24  25
HETATM   25  C9  UNL     1      27.219  86.609  -0.321  1.00  0.00     0.085 C 
HETATM   26 BR1  UNL     1      26.120  87.553  -1.554  1.00  0.00    -0.097 Br
ENDBRANCH  24  25
ENDBRANCH  23  24
ENDBRANCH  22  23
ENDBRANCH  21  22
ENDBRANCH  20  21
ENDBRANCH  19  20
ENDBRANCH  18  19
ENDBRANCH  16  18
ENDBRANCH   1  14
TORSDOF 9
ENDMDL
MODEL 2
REMARK VINA RESULT: -9.360492585      1.066      1.455
REMARK  9 active torsions:
REMARK  status: ('A' for Active; 'I' for Inactive)
REMARK       I    between atoms: C1_2  and  N1_3 
REMARK    1  A    between atoms: C1_2  and  C10_14 
REMARK    2  A    between atoms: N1_3  and  C2_5 
REMARK    3  A    between atoms: C2_5  and  C3_6 
REMARK    4  A    between atoms: C3_6  and  C4_7 
REMARK    5  A    between atoms: C4_7  and  C5_8 
REMARK    6  A    between atoms: C5_8  and  C6_9 
REMARK    7  A    between atoms: C6_9  and  C7_10 
REMARK    8  A    between atoms: C7_10  and  C8_11 
REMARK    9  A    between atoms: C8_11  and  C9_12 
ROOT
HETATM    1  C10 UNL     1      35.130  81.105  -1.821  1.00  0.00     0.167 C 
HETATM    2  N2  UNL     1      36.103  80.630  -1.142  1.00  0.00    -0.372 N 
ATOM      3  H2  UNL     1      36.586  81.192  -0.442  1.00  0.00     0.161 HD
HETATM    4  C11 UNL     1      36.496  79.245  -1.411  1.00  0.00     0.123 C 
HETATM    5  C12 UNL     1      35.197  78.448  -1.439  1.00  0.00     0.050 C 
HETATM    6  C13 UNL     1      34.416  78.836  -2.676  1.00  0.00     0.033 C 
HETATM    7  C14 UNL     1      35.065  78.149  -3.849  1.00  0.00     0.031 C 
HETATM    8  C15 UNL     1      34.172  77.093  -4.458  1.00  0.00     0.002 C 
HETATM    9  C16 UNL     1      33.547  76.207  -3.403  1.00  0.00     0.000 C 
HETATM   10  C17 UNL     1      32.776  76.973  -2.374  1.00  0.00     0.002 C 
HETATM   11  C18 UNL     1      32.958  78.459  -2.579  1.00  0.00     0.031 C 
HETATM   12  N3  UNL     1      34.487  80.281  -2.785  1.00  0.00    -0.363 N 
ATOM     13  H3  UNL     1      34.053  80.729  -3.593  1.00  0.00     0.162 HD
ENDROOT
BRANCH   1  14
HETATM   14  C1  UNL     1      34.708  82.491  -1.579  1.00  0.00     0.284 C 
HETATM   15  O1  UNL     1      34.462  83.183  -2.619  1.00  0.00    -0.264 OA
HETATM   16  N1  UNL     1      34.588  83.003  -0.270  1.00  0.00    -0.354 N 
ATOM     17  H1  UNL     1      34.793  82.393   0.522  1.00  0.00     0.162 HD
BRANCH  16  18
HETATM   18  C2  UNL     1      34.186  84.353  -0.022  1.00  0.00     0.123 C 
BRANCH  18  19
HETATM   19  C3  UNL     1      33.436  84.430   1.276  1.00  0.00     0.020 C 
BRANCH  19  20
HETATM   20  C4  UNL     1      31.935  84.533   1.019  1.00  0.00     0.002 C 
BRANCH  20  21
HETATM   21  C5  UNL     1      31.273  85.559   1.864  1.00  0.00     0.000 C 
BRANCH  21  22
HETATM   22  C6  UNL     1      29.804  85.682   1.472  1.00  0.00     0.000 C 
BRANCH  22  23
HETATM   23  C7  UNL     1      29.600  86.048   0.056  1.00  0.00     0.001 C 
BRANCH  23  24
HETATM   24  C8  UNL     1      28.476  86.942  -0.296  1.00  0.00     0.011 C 
BRANCH  24  25
HETATM   25  C9  UNL     1      27.198  86.387  -0.763  1.00  0.00     0.085 C 
HETATM   26 BR1  UNL     1      26.022  87.630  -1.595  1.00  0.00    -0.097 Br
ENDBRANCH  24  25
ENDBRANCH  23  24
ENDBRANCH  22  23
ENDBRANCH  21  22
ENDBRANCH  20  21
ENDBRANCH  19  20
ENDBRANCH  18  19
ENDBRANCH  16  18
ENDBRANCH   1  14
TORSDOF 9
ENDMDL
MODEL 3
REMARK VINA RESULT: -9.270146074      2.116      2.953
REMARK  9 active torsions:
REMARK  status: ('A' for Active; 'I' for Inactive)
REMARK       I    between atoms: C1_2  and  N1_3 
REMARK    1  A    between atoms: C1_2  and  C10_14 
REMARK    2  A    between atoms: N1_3  and  C2_5 
REMARK    3  A    between atoms: C2_5  and  C3_6 
REMARK    4  A    between atoms: C3_6  and  C4_7 
REMARK    5  A    between atoms: C4_7  and  C5_8 
REMARK    6  A    between atoms: C5_8  and  C6_9 
REMARK    7  A    between atoms: C6_9  and  C7_10 
REMARK    8  A    between atoms: C7_10  and  C8_11 
REMARK    9  A    between atoms: C8_11  and  C9_12 
ROOT
HETATM    1  C10 UNL     1      34.490  81.799  -0.974  1.00  0.00     0.167 C 
HETATM    2  N2  UNL     1      35.648  81.655  -1.496  1.00  0.00    -0.372 N 
ATOM      3  H2  UNL     1      36.324  82.418  -1.507  1.00  0.00     0.161 HD
HETATM    4  C11 UNL     1      35.964  80.348  -2.077  1.00  0.00     0.123 C 
HETATM    5  C12 UNL     1      35.521  79.320  -1.042  1.00  0.00     0.050 C 
HETATM    6  C13 UNL     1      34.009  79.317  -0.979  1.00  0.00     0.033 C 
HETATM    7  C14 UNL     1      33.511  78.569  -2.187  1.00  0.00     0.031 C 
HETATM    8  C15 UNL     1      32.841  77.267  -1.817  1.00  0.00     0.002 C 
HETATM    9  C16 UNL     1      33.653  76.482  -0.811  1.00  0.00     0.000 C 
HETATM   10  C17 UNL     1      33.952  77.255   0.435  1.00  0.00     0.002 C 
HETATM   11  C18 UNL     1      33.488  78.686   0.290  1.00  0.00     0.031 C 
HETATM   12  N3  UNL     1      33.582  80.704  -0.982  1.00  0.00    -0.363 N 
ATOM     13  H3  UNL     1      32.582  80.904  -0.990  1.00  0.00     0.162 HD
ENDROOT
BRANCH   1  14
HETATM   14  C1  UNL     1      34.137  83.096  -0.382  1.00  0.00     0.284 C 
HETATM   15  O1  UNL     1      34.915  84.063  -0.667  1.00  0.00    -0.264 OA
HETATM   16  N1  UNL     1      33.005  83.239   0.446  1.00  0.00    -0.354 N 
ATOM     17  H1  UNL     1      32.418  82.425   0.630  1.00  0.00     0.162 HD
BRANCH  16  18
HETATM   18  C2  UNL     1      32.655  84.495   1.035  1.00  0.00     0.123 C 
BRANCH  18  19
HETATM   19  C3  UNL     1      31.204  84.788   0.786  1.00  0.00     0.020 C 
BRANCH  19  20
HETATM   20  C4  UNL     1      30.676  85.776   1.822  1.00  0.00     0.002 C 
BRANCH  20  21
HETATM   21  C5  UNL     1      29.364  86.362   1.445  1.00  0.00     0.000 C 
BRANCH  21  22
HETATM   22  C6  UNL     1      29.177  86.280  -0.067  1.00  0.00     0.000 C 
BRANCH  22  23
HETATM   23  C7  UNL     1      28.407  87.409  -0.628  1.00  0.00     0.001 C 
BRANCH  23  24
HETATM   24  C8  UNL     1      27.087  87.141  -1.236  1.00  0.00     0.011 C 
BRANCH  24  25
HETATM   25  C9  UNL     1      26.227  86.070  -0.711  1.00  0.00     0.085 C 
HETATM   26 BR1  UNL     1      24.723  85.627  -1.789  1.00  0.00    -0.097 Br
ENDBRANCH  24  25
ENDBRANCH  23  24
ENDBRANCH  22  23
ENDBRANCH  21  22
ENDBRANCH  20  21
ENDBRANCH  19  20
ENDBRANCH  18  19
ENDBRANCH  16  18
ENDBRANCH   1  14
TORSDOF 9
ENDMDL
MODEL 4
REMARK VINA RESULT: -9.196688534      1.139      1.320
REMARK  9 active torsions:
REMARK  status: ('A' for Active; 'I' for Inactive)
REMARK       I    between atoms: C1_2  and  N1_3 
REMARK    1  A    between atoms: C1_2  and  C10_14 
REMARK    2  A    between atoms: N1_3  and  C2_5 
REMARK    3  A    between atoms: C2_5  and  C3_6 
REMARK    4  A    between atoms: C3_6  and  C4_7 
REMARK    5  A    between atoms: C4_7  and  C5_8 
REMARK    6  A    between atoms: C5_8  and  C6_9 
REMARK    7  A    between atoms: C6_9  and  C7_10 
REMARK    8  A    between atoms: C7_10  and  C8_11 
REMARK    9  A    between atoms: C8_11  and  C9_12 
ROOT
HETATM    1  C10 UNL     1      34.422  81.088  -0.811  1.00  0.00     0.167 C 
HETATM    2  N2  UNL     1      33.955  80.243   0.027  1.00  0.00    -0.372 N 
ATOM      3  H2  UNL     1      33.292  80.523   0.750  1.00  0.00     0.161 HD
HETATM    4  C11 UNL     1      34.412  78.857  -0.094  1.00  0.00     0.123 C 
HETATM    5  C12 UNL     1      34.305  78.517  -1.575  1.00  0.00     0.050 C 
HETATM    6  C13 UNL     1      35.359  79.298  -2.329  1.00  0.00     0.033 C 
HETATM    7  C14 UNL     1      36.680  78.615  -2.091  1.00  0.00     0.031 C 
HETATM    8  C15 UNL     1      37.233  77.987  -3.349  1.00  0.00     0.002 C 
HETATM    9  C16 UNL     1      36.179  77.201  -4.097  1.00  0.00     0.000 C 
HETATM   10  C17 UNL     1      34.973  78.017  -4.442  1.00  0.00     0.002 C 
HETATM   11  C18 UNL     1      35.064  79.386  -3.807  1.00  0.00     0.031 C 
HETATM   12  N3  UNL     1      35.343  80.650  -1.801  1.00  0.00    -0.363 N 
ATOM     13  H3  UNL     1      36.025  81.319  -2.159  1.00  0.00     0.162 HD
ENDROOT
BRANCH   1  14
HETATM   14  C1  UNL     1      33.987  82.489  -0.720  1.00  0.00     0.284 C 
HETATM   15  O1  UNL     1      34.692  83.328  -1.368  1.00  0.00    -0.264 OA
HETATM   16  N1  UNL     1      32.858  82.858   0.040  1.00  0.00    -0.354 N 
ATOM     17  H1  UNL     1      32.332  82.134   0.530  1.00  0.00     0.162 HD
BRANCH  16  18
HETATM   18  C2  UNL     1      32.429  84.218   0.141  1.00  0.00     0.123 C 
BRANCH  18  19
HETATM   19  C3  UNL     1      32.656  84.720   1.538  1.00  0.00     0.020 C 
BRANCH  19  20
HETATM   20  C4  UNL     1      31.515  85.639   1.965  1.00  0.00     0.002 C 
BRANCH  20  21
HETATM   21  C5  UNL     1      30.187  85.167   1.498  1.00  0.00     0.000 C 
BRANCH  21  22
HETATM   22  C6  UNL     1      29.317  86.362   1.121  1.00  0.00     0.000 C 
BRANCH  22  23
HETATM   23  C7  UNL     1      29.053  86.466  -0.329  1.00  0.00     0.001 C 
BRANCH  23  24
HETATM   24  C8  UNL     1      27.946  87.328  -0.793  1.00  0.00     0.011 C 
BRANCH  24  25
HETATM   25  C9  UNL     1      26.591  86.780  -0.958  1.00  0.00     0.085 C 
HETATM   26 BR1  UNL     1      25.442  87.772  -2.105  1.00  0.00    -0.097 Br
ENDBRANCH  24  25
ENDBRANCH  23  24
ENDBRANCH  22  23
ENDBRANCH  21  22
ENDBRANCH  20  21
ENDBRANCH  19  20
ENDBRANCH  18  19
ENDBRANCH  16  18
ENDBRANCH   1  14
TORSDOF 9
ENDMDL
MODEL 5
REMARK VINA RESULT: -8.828443112      5.601     10.675
REMARK  9 active torsions:
REMARK  status: ('A' for Active; 'I' for Inactive)
REMARK       I    between atoms: C1_2  and  N1_3 
REMARK    1  A    between atoms: C1_2  and  C10_14 
REMARK    2  A    between atoms: N1_3  and  C2_5 
REMARK    3  A    between atoms: C2_5  and  C3_6 
REMARK    4  A    between atoms: C3_6  and  C4_7 
REMARK    5  A    between atoms: C4_7  and  C5_8 
REMARK    6  A    between atoms: C5_8  and  C6_9 
REMARK    7  A    between atoms: C6_9  and  C7_10 
REMARK    8  A    between atoms: C7_10  and  C8_11 
REMARK    9  A    between atoms: C8_11  and  C9_12 
ROOT
HETATM    1  C10 UNL     1      26.355  86.628  -0.102  1.00  0.00     0.167 C 
HETATM    2  N2  UNL     1      26.509  87.776  -0.641  1.00  0.00    -0.372 N 
ATOM      3  H2  UNL     1      27.281  88.389  -0.376  1.00  0.00     0.161 HD
HETATM    4  C11 UNL     1      25.532  88.178  -1.655  1.00  0.00     0.123 C 
HETATM    5  C12 UNL     1      25.383  86.976  -2.580  1.00  0.00     0.050 C 
HETATM    6  C13 UNL     1      24.672  85.871  -1.829  1.00  0.00     0.033 C 
HETATM    7  C14 UNL     1      23.211  86.230  -1.778  1.00  0.00     0.031 C 
HETATM    8  C15 UNL     1      22.361  85.282  -2.591  1.00  0.00     0.002 C 
HETATM    9  C16 UNL     1      22.956  85.022  -3.957  1.00  0.00     0.000 C 
HETATM   10  C17 UNL     1      24.358  84.500  -3.897  1.00  0.00     0.002 C 
HETATM   11  C18 UNL     1      24.866  84.519  -2.473  1.00  0.00     0.031 C 
HETATM   12  N3  UNL     1      25.264  85.810  -0.505  1.00  0.00    -0.363 N 
ATOM     13  H3  UNL     1      24.879  85.149   0.169  1.00  0.00     0.162 HD
ENDROOT
BRANCH   1  14
HETATM   14  C1  UNL     1      27.316  86.192   0.920  1.00  0.00     0.284 C 
HETATM   15  O1  UNL     1      26.847  85.436   1.832  1.00  0.00    -0.264 OA
HETATM   16  N1  UNL     1      28.667  86.594   0.875  1.00  0.00    -0.354 N 
ATOM     17  H1  UNL     1      28.981  87.195   0.113  1.00  0.00     0.162 HD
BRANCH  16  18
HETATM   18  C2  UNL     1      29.610  86.182   1.869  1.00  0.00     0.123 C 
BRANCH  18  19
HETATM   19  C3  UNL     1      30.705  85.379   1.229  1.00  0.00     0.020 C 
BRANCH  19  20
HETATM   20  C4  UNL     1      31.983  85.466   2.058  1.00  0.00     0.002 C 
BRANCH  20  21
HETATM   21  C5  UNL     1      33.098  84.668   1.487  1.00  0.00     0.000 C 
BRANCH  21  22
HETATM   22  C6  UNL     1      32.558  83.703   0.437  1.00  0.00     0.000 C 
BRANCH  22  23
HETATM   23  C7  UNL     1      33.600  82.854  -0.175  1.00  0.00     0.001 C 
BRANCH  23  24
HETATM   24  C8  UNL     1      34.561  83.468  -1.116  1.00  0.00     0.011 C 
BRANCH  24  25
HETATM   25  C9  UNL     1      35.194  82.661  -2.170  1.00  0.00     0.085 C 
HETATM   26 BR1  UNL     1      34.991  80.778  -1.992  1.00  0.00    -0.097 Br
ENDBRANCH  24  25
ENDBRANCH  23  24
ENDBRANCH  22  23
ENDBRANCH  21  22
ENDBRANCH  20  21
ENDBRANCH  19  20
ENDBRANCH  18  19
ENDBRANCH  16  18
ENDBRANCH   1  14
TORSDOF 9
ENDMDL
