MODEL 1
REMARK VINA RESULT: -8.286277402      0.000      0.000
REMARK  10 active torsions:
REMARK  status: ('A' for Active; 'I' for Inactive)
REMARK    1  A    between atoms: C2_2  and  C4_4 
REMARK    2  A    between atoms: C4_4  and  O1_5 
REMARK    3  A    between atoms: C4_4  and  C5_7 
REMARK    4  A    between atoms: C4_4  and  C16_18 
REMARK    5  A    between atoms: C5_7  and  C6_8 
REMARK       I    between atoms: C16_18  and  N1_20 
REMARK    6  A    between atoms: N1_20  and  C17_22 
REMARK    7  A    between atoms: C17_22  and  C18_23 
REMARK    8  A    between atoms: C18_23  and  C19_24 
REMARK    9  A    between atoms: C19_24  and  N2_25 
REMARK   10  A    between atoms: N2_25  and  C21_27 
ROOT
HETATM    1  C4  UNL     1      33.904  83.246  -0.183  1.00  0.00     0.141 C 
ENDROOT
BRANCH   1   2
HETATM    2  C2  UNL     1      34.471  84.138  -1.233  1.00  0.00     0.021 C 
HETATM    3  C1  UNL     1      35.705  83.648  -1.940  1.00  0.00     0.013 C 
HETATM    4  C3  UNL     1      33.439  84.687  -2.186  1.00  0.00     0.013 C 
ENDBRANCH   1   2
BRANCH   1   5
HETATM    5  O1  UNL     1      32.578  82.991  -0.768  1.00  0.00    -0.380 OA
ATOM      6  H1  UNL     1      32.298  82.270  -0.217  1.00  0.00     0.211 HD
ENDBRANCH   1   5
BRANCH   1   7
HETATM    7  C5  UNL     1      34.330  81.894   0.038  1.00  0.00     0.057 C 
BRANCH   7   8
HETATM    8  C6  UNL     1      34.404  80.734  -0.830  1.00  0.00    -0.036 C 
HETATM    9  C7  UNL     1      34.535  80.904  -2.294  1.00  0.00     0.014 C 
HETATM   10  C8  UNL     1      34.730  79.584  -3.016  1.00  0.00    -0.013 C 
HETATM   11  C9  UNL     1      36.138  79.129  -2.715  1.00  0.00     0.009 C 
HETATM   12  C13 UNL     1      33.773  78.524  -2.601  1.00  0.00     0.009 C 
HETATM   13  C10 UNL     1      36.240  79.011  -1.224  1.00  0.00    -0.013 C 
HETATM   14  C11 UNL     1      35.363  77.829  -0.785  1.00  0.00     0.009 C 
HETATM   15  C15 UNL     1      35.824  80.169  -0.443  1.00  0.00     0.014 C 
HETATM   16  C12 UNL     1      33.979  78.257  -1.124  1.00  0.00    -0.013 C 
HETATM   17  C14 UNL     1      33.543  79.534  -0.409  1.00  0.00     0.014 C 
ENDBRANCH   7   8
ENDBRANCH   1   7
BRANCH   1  18
HETATM   18  C16 UNL     1      33.546  84.075   0.972  1.00  0.00     0.252 C 
HETATM   19  O2  UNL     1      34.352  84.206   1.909  1.00  0.00    -0.270 OA
HETATM   20  N1  UNL     1      32.309  84.732   1.059  1.00  0.00    -0.358 N 
ATOM     21  H1  UNL     1      31.643  84.627   0.293  1.00  0.00     0.162 HD
BRANCH  20  22
HETATM   22  C17 UNL     1      31.936  85.565   2.211  1.00  0.00     0.124 C 
BRANCH  22  23
HETATM   23  C18 UNL     1      30.498  85.950   2.206  1.00  0.00     0.050 C 
BRANCH  23  24
HETATM   24  C19 UNL     1      30.023  85.833   0.753  1.00  0.00     0.274 C 
BRANCH  24  25
HETATM   25  N2  UNL     1      28.589  85.744   0.757  1.00  0.00     0.091 N 
HETATM   26  C20 UNL     1      28.155  85.456   2.110  1.00  0.00     0.310 C 
BRANCH  25  27
HETATM   27  C21 UNL     1      27.940  86.939   0.309  1.00  0.00     0.259 A 
HETATM   28  C22 UNL     1      28.493  87.661  -0.884  1.00  0.00     0.078 A 
HETATM   29  C23 UNL     1      27.197  86.919  -1.021  1.00  0.00     0.205 A 
HETATM   30  F1  UNL     1      26.071  87.722  -1.157  1.00  0.00    -0.247 F 
ENDBRANCH  25  27
ENDBRANCH  24  25
ENDBRANCH  23  24
ENDBRANCH  22  23
ENDBRANCH  20  22
ENDBRANCH   1  18
TORSDOF 10
ENDMDL
MODEL 2
REMARK VINA RESULT: -8.117023765      1.948      3.807
REMARK  10 active torsions:
REMARK  status: ('A' for Active; 'I' for Inactive)
REMARK    1  A    between atoms: C2_2  and  C4_4 
REMARK    2  A    between atoms: C4_4  and  O1_5 
REMARK    3  A    between atoms: C4_4  and  C5_7 
REMARK    4  A    between atoms: C4_4  and  C16_18 
REMARK    5  A    between atoms: C5_7  and  C6_8 
REMARK       I    between atoms: C16_18  and  N1_20 
REMARK    6  A    between atoms: N1_20  and  C17_22 
REMARK    7  A    between atoms: C17_22  and  C18_23 
REMARK    8  A    between atoms: C18_23  and  C19_24 
REMARK    9  A    between atoms: C19_24  and  N2_25 
REMARK   10  A    between atoms: N2_25  and  C21_27 
ROOT
HETATM    1  C4  UNL     1      34.763  80.180  -0.567  1.00  0.00     0.141 C 
ENDROOT
BRANCH   1   2
HETATM    2  C2  UNL     1      33.553  79.426  -0.134  1.00  0.00     0.021 C 
HETATM    3  C1  UNL     1      32.671  78.885  -1.225  1.00  0.00     0.013 C 
HETATM    4  C3  UNL     1      33.825  78.410   0.947  1.00  0.00     0.013 C 
ENDBRANCH   1   2
BRANCH   1   5
HETATM    5  O1  UNL     1      35.421  80.358   0.737  1.00  0.00    -0.380 OA
ATOM      6  H1  UNL     1      36.317  80.160   0.491  1.00  0.00     0.211 HD
ENDBRANCH   1   5
BRANCH   1   7
HETATM    7  C5  UNL     1      35.849  79.601  -1.305  1.00  0.00     0.057 C 
BRANCH   7   8
HETATM    8  C6  UNL     1      35.914  78.518  -2.267  1.00  0.00    -0.036 C 
HETATM    9  C7  UNL     1      35.436  77.166  -1.902  1.00  0.00     0.014 C 
HETATM   10  C8  UNL     1      35.461  76.206  -3.077  1.00  0.00    -0.013 C 
HETATM   11  C9  UNL     1      34.327  76.607  -3.990  1.00  0.00     0.009 C 
HETATM   12  C13 UNL     1      36.736  76.224  -3.842  1.00  0.00     0.009 C 
HETATM   13  C10 UNL     1      34.578  78.033  -4.383  1.00  0.00    -0.013 C 
HETATM   14  C11 UNL     1      35.817  78.058  -5.290  1.00  0.00     0.009 C 
HETATM   15  C15 UNL     1      34.817  78.980  -3.301  1.00  0.00     0.014 C 
HETATM   16  C12 UNL     1      36.928  77.618  -4.404  1.00  0.00    -0.013 C 
HETATM   17  C14 UNL     1      37.139  78.525  -3.194  1.00  0.00     0.014 C 
ENDBRANCH   7   8
ENDBRANCH   1   7
BRANCH   1  18
HETATM   18  C16 UNL     1      34.357  81.557  -0.866  1.00  0.00     0.252 C 
HETATM   19  O2  UNL     1      34.314  81.944  -2.045  1.00  0.00    -0.270 OA
HETATM   20  N1  UNL     1      34.014  82.465   0.148  1.00  0.00    -0.358 N 
ATOM     21  H1  UNL     1      34.049  82.153   1.118  1.00  0.00     0.162 HD
BRANCH  20  22
HETATM   22  C17 UNL     1      33.605  83.849  -0.136  1.00  0.00     0.124 C 
BRANCH  22  23
HETATM   23  C18 UNL     1      32.971  84.517   1.034  1.00  0.00     0.050 C 
BRANCH  23  24
HETATM   24  C19 UNL     1      31.492  84.705   0.675  1.00  0.00     0.274 C 
BRANCH  24  25
HETATM   25  N2  UNL     1      30.833  85.315   1.797  1.00  0.00     0.091 N 
HETATM   26  C20 UNL     1      31.844  85.916   2.644  1.00  0.00     0.310 C 
BRANCH  25  27
HETATM   27  C21 UNL     1      29.884  86.320   1.427  1.00  0.00     0.259 A 
HETATM   28  C22 UNL     1      29.116  86.157   0.148  1.00  0.00     0.078 A 
HETATM   29  C23 UNL     1      28.400  85.975   1.453  1.00  0.00     0.205 A 
HETATM   30  F1  UNL     1      27.497  86.982   1.773  1.00  0.00    -0.247 F 
ENDBRANCH  25  27
ENDBRANCH  24  25
ENDBRANCH  23  24
ENDBRANCH  22  23
ENDBRANCH  20  22
ENDBRANCH   1  18
TORSDOF 10
ENDMDL
MODEL 3
REMARK VINA RESULT: -8.005327699      0.333      1.581
REMARK  10 active torsions:
REMARK  status: ('A' for Active; 'I' for Inactive)
REMARK    1  A    between atoms: C2_2  and  C4_4 
REMARK    2  A    between atoms: C4_4  and  O1_5 
REMARK    3  A    between atoms: C4_4  and  C5_7 
REMARK    4  A    between atoms: C4_4  and  C16_18 
REMARK    5  A    between atoms: C5_7  and  C6_8 
REMARK       I    between atoms: C16_18  and  N1_20 
REMARK    6  A    between atoms: N1_20  and  C17_22 
REMARK    7  A    between atoms: C17_22  and  C18_23 
REMARK    8  A    between atoms: C18_23  and  C19_24 
REMARK    9  A    between atoms: C19_24  and  N2_25 
REMARK   10  A    between atoms: N2_25  and  C21_27 
ROOT
HETATM    1  C4  UNL     1      33.840  82.977  -0.390  1.00  0.00     0.141 C 
ENDROOT
BRANCH   1   2
HETATM    2  C2  UNL     1      34.402  83.778  -1.514  1.00  0.00     0.021 C 
HETATM    3  C1  UNL     1      33.615  84.987  -1.938  1.00  0.00     0.013 C 
HETATM    4  C3  UNL     1      35.875  84.067  -1.377  1.00  0.00     0.013 C 
ENDBRANCH   1   2
BRANCH   1   5
HETATM    5  O1  UNL     1      32.469  82.783  -0.890  1.00  0.00    -0.380 OA
ATOM      6  H1  UNL     1      31.980  83.068  -0.126  1.00  0.00     0.211 HD
ENDBRANCH   1   5
BRANCH   1   7
HETATM    7  C5  UNL     1      34.191  81.611  -0.122  1.00  0.00     0.057 C 
BRANCH   7   8
HETATM    8  C6  UNL     1      34.790  80.574  -0.940  1.00  0.00    -0.036 C 
HETATM    9  C7  UNL     1      36.052  79.927  -0.517  1.00  0.00     0.014 C 
HETATM   10  C8  UNL     1      36.448  78.781  -1.429  1.00  0.00    -0.013 C 
HETATM   11  C9  UNL     1      35.502  77.642  -1.131  1.00  0.00     0.009 C 
HETATM   12  C13 UNL     1      36.378  79.111  -2.877  1.00  0.00     0.009 C 
HETATM   13  C10 UNL     1      34.118  78.157  -1.393  1.00  0.00    -0.013 C 
HETATM   14  C11 UNL     1      33.977  78.376  -2.906  1.00  0.00     0.009 C 
HETATM   15  C15 UNL     1      33.748  79.407  -0.741  1.00  0.00     0.014 C 
HETATM   16  C12 UNL     1      34.943  79.466  -3.209  1.00  0.00    -0.013 C 
HETATM   17  C14 UNL     1      34.655  80.764  -2.457  1.00  0.00     0.014 C 
ENDBRANCH   7   8
ENDBRANCH   1   7
BRANCH   1  18
HETATM   18  C16 UNL     1      33.601  83.883   0.738  1.00  0.00     0.252 C 
HETATM   19  O2  UNL     1      34.485  84.043   1.597  1.00  0.00    -0.270 OA
HETATM   20  N1  UNL     1      32.394  84.582   0.885  1.00  0.00    -0.358 N 
ATOM     21  H1  UNL     1      31.664  84.454   0.184  1.00  0.00     0.162 HD
BRANCH  20  22
HETATM   22  C17 UNL     1      32.141  85.493   2.011  1.00  0.00     0.124 C 
BRANCH  22  23
HETATM   23  C18 UNL     1      30.719  85.931   2.093  1.00  0.00     0.050 C 
BRANCH  23  24
HETATM   24  C19 UNL     1      30.142  85.796   0.679  1.00  0.00     0.274 C 
BRANCH  24  25
HETATM   25  N2  UNL     1      28.712  85.702   0.787  1.00  0.00     0.091 N 
HETATM   26  C20 UNL     1      28.377  85.453   2.175  1.00  0.00     0.310 C 
BRANCH  25  27
HETATM   27  C21 UNL     1      28.026  86.880   0.352  1.00  0.00     0.259 A 
HETATM   28  C22 UNL     1      28.548  87.623  -0.843  1.00  0.00     0.078 A 
HETATM   29  C23 UNL     1      27.272  86.846  -0.972  1.00  0.00     0.205 A 
HETATM   30  F1  UNL     1      26.123  87.618  -1.093  1.00  0.00    -0.247 F 
ENDBRANCH  25  27
ENDBRANCH  24  25
ENDBRANCH  23  24
ENDBRANCH  22  23
ENDBRANCH  20  22
ENDBRANCH   1  18
TORSDOF 10
ENDMDL
MODEL 4
REMARK VINA RESULT: -7.427281717      0.804      1.280
REMARK  10 active torsions:
REMARK  status: ('A' for Active; 'I' for Inactive)
REMARK    1  A    between atoms: C2_2  and  C4_4 
REMARK    2  A    between atoms: C4_4  and  O1_5 
REMARK    3  A    between atoms: C4_4  and  C5_7 
REMARK    4  A    between atoms: C4_4  and  C16_18 
REMARK    5  A    between atoms: C5_7  and  C6_8 
REMARK       I    between atoms: C16_18  and  N1_20 
REMARK    6  A    between atoms: N1_20  and  C17_22 
REMARK    7  A    between atoms: C17_22  and  C18_23 
REMARK    8  A    between atoms: C18_23  and  C19_24 
REMARK    9  A    between atoms: C19_24  and  N2_25 
REMARK   10  A    between atoms: N2_25  and  C21_27 
ROOT
HETATM    1  C4  UNL     1      33.854  82.968  -0.323  1.00  0.00     0.141 C 
ENDROOT
BRANCH   1   2
HETATM    2  C2  UNL     1      34.309  83.763  -1.499  1.00  0.00     0.021 C 
HETATM    3  C1  UNL     1      33.504  84.988  -1.835  1.00  0.00     0.013 C 
HETATM    4  C3  UNL     1      35.794  84.025  -1.517  1.00  0.00     0.013 C 
ENDBRANCH   1   2
BRANCH   1   5
HETATM    5  O1  UNL     1      32.429  82.824  -0.662  1.00  0.00    -0.380 OA
ATOM      6  H1  UNL     1      32.114  83.678  -0.391  1.00  0.00     0.211 HD
ENDBRANCH   1   5
BRANCH   1   7
HETATM    7  C5  UNL     1      34.188  81.589  -0.107  1.00  0.00     0.057 C 
BRANCH   7   8
HETATM    8  C6  UNL     1      34.417  80.481  -1.015  1.00  0.00    -0.036 C 
HETATM    9  C7  UNL     1      34.686  80.734  -2.448  1.00  0.00     0.014 C 
HETATM   10  C8  UNL     1      35.030  79.465  -3.205  1.00  0.00    -0.013 C 
HETATM   11  C9  UNL     1      36.424  79.070  -2.780  1.00  0.00     0.009 C 
HETATM   12  C13 UNL     1      34.099  78.335  -2.942  1.00  0.00     0.009 C 
HETATM   13  C10 UNL     1      36.381  78.881  -1.293  1.00  0.00    -0.013 C 
HETATM   14  C11 UNL     1      35.534  77.633  -1.003  1.00  0.00     0.009 C 
HETATM   15  C15 UNL     1      35.821  79.974  -0.508  1.00  0.00     0.014 C 
HETATM   16  C12 UNL     1      34.169  78.004  -1.464  1.00  0.00    -0.013 C 
HETATM   17  C14 UNL     1      33.589  79.217  -0.742  1.00  0.00     0.014 C 
ENDBRANCH   7   8
ENDBRANCH   1   7
BRANCH   1  18
HETATM   18  C16 UNL     1      33.777  83.869   0.831  1.00  0.00     0.252 C 
HETATM   19  O2  UNL     1      34.745  83.962   1.605  1.00  0.00    -0.270 OA
HETATM   20  N1  UNL     1      32.633  84.637   1.097  1.00  0.00    -0.358 N 
ATOM     21  H1  UNL     1      31.835  84.564   0.466  1.00  0.00     0.162 HD
BRANCH  20  22
HETATM   22  C17 UNL     1      32.542  85.544   2.251  1.00  0.00     0.124 C 
BRANCH  22  23
HETATM   23  C18 UNL     1      31.144  85.966   2.547  1.00  0.00     0.050 C 
BRANCH  23  24
HETATM   24  C19 UNL     1      30.240  85.156   1.610  1.00  0.00     0.274 C 
BRANCH  24  25
HETATM   25  N2  UNL     1      29.387  86.074   0.907  1.00  0.00     0.091 N 
HETATM   26  C20 UNL     1      29.763  86.062  -0.493  1.00  0.00     0.310 C 
BRANCH  25  27
HETATM   27  C21 UNL     1      27.995  85.758   1.013  1.00  0.00     0.259 A 
HETATM   28  C22 UNL     1      27.108  86.655   1.825  1.00  0.00     0.078 A 
HETATM   29  C23 UNL     1      26.980  86.667   0.332  1.00  0.00     0.205 A 
HETATM   30  F1  UNL     1      25.814  86.096  -0.163  1.00  0.00    -0.247 F 
ENDBRANCH  25  27
ENDBRANCH  24  25
ENDBRANCH  23  24
ENDBRANCH  22  23
ENDBRANCH  20  22
ENDBRANCH   1  18
TORSDOF 10
ENDMDL
MODEL 5
REMARK VINA RESULT: -7.368199325      4.267      9.601
REMARK  10 active torsions:
REMARK  status: ('A' for Active; 'I' for Inactive)
REMARK    1  A    between atoms: C2_2  and  C4_4 
REMARK    2  A    between atoms: C4_4  and  O1_5 
REMARK    3  A    between atoms: C4_4  and  C5_7 
REMARK    4  A    between atoms: C4_4  and  C16_18 
REMARK    5  A    between atoms: C5_7  and  C6_8 
REMARK       I    between atoms: C16_18  and  N1_20 
REMARK    6  A    between atoms: N1_20  and  C17_22 
REMARK    7  A    between atoms: C17_22  and  C18_23 
REMARK    8  A    between atoms: C18_23  and  C19_24 
REMARK    9  A    between atoms: C19_24  and  N2_25 
REMARK   10  A    between atoms: N2_25  and  C21_27 
ROOT
HETATM    1  C4  UNL     1      26.293  86.243  -0.783  1.00  0.00     0.141 C 
ENDROOT
BRANCH   1   2
HETATM    2  C2  UNL     1      26.965  87.350  -1.519  1.00  0.00     0.021 C 
HETATM    3  C1  UNL     1      26.102  88.518  -1.914  1.00  0.00     0.013 C 
HETATM    4  C3  UNL     1      28.274  87.781  -0.906  1.00  0.00     0.013 C 
ENDBRANCH   1   2
BRANCH   1   5
HETATM    5  O1  UNL     1      25.086  86.951  -0.325  1.00  0.00    -0.380 OA
ATOM      6  H1  UNL     1      25.174  86.824   0.612  1.00  0.00     0.211 HD
ENDBRANCH   1   5
BRANCH   1   7
HETATM    7  C5  UNL     1      25.679  85.112  -1.418  1.00  0.00     0.057 C 
BRANCH   7   8
HETATM    8  C6  UNL     1      24.497  84.974  -2.247  1.00  0.00    -0.036 C 
HETATM    9  C7  UNL     1      23.201  85.527  -1.796  1.00  0.00     0.014 C 
HETATM   10  C8  UNL     1      22.119  85.402  -2.852  1.00  0.00    -0.013 C 
HETATM   11  C9  UNL     1      22.437  86.420  -3.922  1.00  0.00     0.009 C 
HETATM   12  C13 UNL     1      22.032  84.052  -3.469  1.00  0.00     0.009 C 
HETATM   13  C10 UNL     1      23.808  86.087  -4.434  1.00  0.00    -0.013 C 
HETATM   14  C11 UNL     1      23.714  84.758  -5.196  1.00  0.00     0.009 C 
HETATM   15  C15 UNL     1      24.862  85.940  -3.438  1.00  0.00     0.014 C 
HETATM   16  C12 UNL     1      23.355  83.762  -4.151  1.00  0.00    -0.013 C 
HETATM   17  C14 UNL     1      24.383  83.657  -3.028  1.00  0.00     0.014 C 
ENDBRANCH   7   8
ENDBRANCH   1   7
BRANCH   1  18
HETATM   18  C16 UNL     1      27.000  86.047   0.487  1.00  0.00     0.252 C 
HETATM   19  O2  UNL     1      26.445  86.354   1.555  1.00  0.00    -0.270 OA
HETATM   20  N1  UNL     1      28.300  85.519   0.537  1.00  0.00    -0.358 N 
ATOM     21  H1  UNL     1      28.761  85.267  -0.336  1.00  0.00     0.162 HD
BRANCH  20  22
HETATM   22  C17 UNL     1      29.021  85.318   1.802  1.00  0.00     0.124 C 
BRANCH  22  23
HETATM   23  C18 UNL     1      30.407  85.863   1.772  1.00  0.00     0.050 C 
BRANCH  23  24
HETATM   24  C19 UNL     1      31.279  84.793   1.106  1.00  0.00     0.274 C 
BRANCH  24  25
HETATM   25  N2  UNL     1      32.651  85.210   1.201  1.00  0.00     0.091 N 
HETATM   26  C20 UNL     1      32.918  85.577   2.578  1.00  0.00     0.310 C 
BRANCH  25  27
HETATM   27  C21 UNL     1      33.585  84.202   0.803  1.00  0.00     0.259 A 
HETATM   28  C22 UNL     1      33.108  83.071  -0.060  1.00  0.00     0.078 A 
HETATM   29  C23 UNL     1      33.997  84.118  -0.662  1.00  0.00     0.205 A 
HETATM   30  F1  UNL     1      35.287  83.694  -0.958  1.00  0.00    -0.247 F 
ENDBRANCH  25  27
ENDBRANCH  24  25
ENDBRANCH  23  24
ENDBRANCH  22  23
ENDBRANCH  20  22
ENDBRANCH   1  18
TORSDOF 10
ENDMDL
