MODEL 1
REMARK VINA RESULT: -5.028536006      0.000      0.000
REMARK  1 active torsions:
REMARK  status: ('A' for Active; 'I' for Inactive)
REMARK    1  A    between atoms: C1_2  and  C2_3 
ROOT
HETATM    1  C2  UNL     1      16.319  -9.233  11.045  1.00  0.00     0.034 C 
HETATM    2  C3  UNL     1      17.583  -8.400  11.216  1.00  0.00     0.016 C 
HETATM    3  C4  UNL     1      17.054  -7.098  11.827  1.00  0.00     0.045 C 
HETATM    4  C5  UNL     1      16.079  -6.444  10.941  1.00  0.00     0.060 C 
HETATM    5  N1  UNL     1      15.430  -7.202   9.971  1.00  0.00    -0.382 N 
ATOM      6  H1  UNL     1      14.861  -6.731   9.267  1.00  0.00     0.164 HD
HETATM    7  C6  UNL     1      15.540  -8.593   9.940  1.00  0.00     0.065 C 
ENDROOT
BRANCH   1   8
HETATM    8  C1  UNL     1      16.645 -10.664  10.694  1.00  0.00     0.096 C 
HETATM    9  S1  UNL     1      15.514 -11.146   9.346  1.00  0.00    -0.097 SA
ENDBRANCH   1   8
TORSDOF 1
ENDMDL
MODEL 2
REMARK VINA RESULT: -4.929289735      1.274      1.274
REMARK  1 active torsions:
REMARK  status: ('A' for Active; 'I' for Inactive)
REMARK    1  A    between atoms: C1_2  and  C2_3 
ROOT
HETATM    1  C2  UNL     1      16.318  -9.397  10.993  1.00  0.00     0.034 C 
HETATM    2  C3  UNL     1      17.500  -8.465  11.223  1.00  0.00     0.016 C 
HETATM    3  C4  UNL     1      16.837  -7.204  11.787  1.00  0.00     0.045 C 
HETATM    4  C5  UNL     1      15.864  -6.637  10.839  1.00  0.00     0.060 C 
HETATM    5  N1  UNL     1      15.333  -7.453   9.846  1.00  0.00    -0.382 N 
ATOM      6  H1  UNL     1      14.770  -7.035   9.105  1.00  0.00     0.164 HD
HETATM    7  C6  UNL     1      15.554  -8.830   9.839  1.00  0.00     0.065 C 
ENDROOT
BRANCH   1   8
HETATM    8  C1  UNL     1      16.775 -10.801  10.680  1.00  0.00     0.096 C 
HETATM    9  S1  UNL     1      18.506 -10.928  11.242  1.00  0.00    -0.097 SA
ENDBRANCH   1   8
TORSDOF 1
ENDMDL
MODEL 3
REMARK VINA RESULT: -4.693013288      1.235      1.587
REMARK  1 active torsions:
REMARK  status: ('A' for Active; 'I' for Inactive)
REMARK    1  A    between atoms: C1_2  and  C2_3 
ROOT
HETATM    1  C2  UNL     1      15.918  -8.588  11.226  1.00  0.00     0.034 C 
HETATM    2  C3  UNL     1      17.349  -8.925  10.829  1.00  0.00     0.016 C 
HETATM    3  C4  UNL     1      18.179  -8.184  11.882  1.00  0.00     0.045 C 
HETATM    4  C5  UNL     1      17.924  -6.735  11.847  1.00  0.00     0.060 C 
HETATM    5  N1  UNL     1      16.745  -6.269  11.274  1.00  0.00    -0.382 N 
ATOM      6  H1  UNL     1      16.626  -5.268  11.122  1.00  0.00     0.164 HD
HETATM    7  C6  UNL     1      15.721  -7.142  10.903  1.00  0.00     0.065 C 
ENDROOT
BRANCH   1   8
HETATM    8  C1  UNL     1      14.922  -9.433  10.468  1.00  0.00     0.096 C 
HETATM    9  S1  UNL     1      15.884 -10.667   9.530  1.00  0.00    -0.097 SA
ENDBRANCH   1   8
TORSDOF 1
ENDMDL
MODEL 4
REMARK VINA RESULT: -4.652096830      2.698      3.529
REMARK  1 active torsions:
REMARK  status: ('A' for Active; 'I' for Inactive)
REMARK    1  A    between atoms: C1_2  and  C2_3 
ROOT
HETATM    1  C2  UNL     1      17.067  -9.454  10.395  1.00  0.00     0.034 C 
HETATM    2  C3  UNL     1      17.728  -8.886  11.644  1.00  0.00     0.016 C 
HETATM    3  C4  UNL     1      19.141  -9.475  11.580  1.00  0.00     0.045 C 
HETATM    4  C5  UNL     1      19.114 -10.946  11.590  1.00  0.00     0.060 C 
HETATM    5  N1  UNL     1      17.948 -11.603  11.212  1.00  0.00    -0.382 N 
ATOM      6  H1  UNL     1      17.876 -12.612  11.350  1.00  0.00     0.164 HD
HETATM    7  C6  UNL     1      16.874 -10.914  10.648  1.00  0.00     0.065 C 
ENDROOT
BRANCH   1   8
HETATM    8  C1  UNL     1      15.739  -8.789  10.123  1.00  0.00     0.096 C 
HETATM    9  S1  UNL     1      15.827  -7.120  10.853  1.00  0.00    -0.097 SA
ENDBRANCH   1   8
TORSDOF 1
ENDMDL
MODEL 5
REMARK VINA RESULT: -4.640828525      2.610      3.798
REMARK  1 active torsions:
REMARK  status: ('A' for Active; 'I' for Inactive)
REMARK    1  A    between atoms: C1_2  and  C2_3 
ROOT
HETATM    1  C2  UNL     1      16.313  -8.427  11.235  1.00  0.00     0.034 C 
HETATM    2  C3  UNL     1      15.828  -8.786   9.836  1.00  0.00     0.016 C 
HETATM    3  C4  UNL     1      15.482 -10.273   9.966  1.00  0.00     0.045 C 
HETATM    4  C5  UNL     1      16.656 -11.066  10.362  1.00  0.00     0.060 C 
HETATM    5  N1  UNL     1      17.725 -10.429  10.984  1.00  0.00    -0.382 N 
ATOM      6  H1  UNL     1      18.593 -10.943  11.135  1.00  0.00     0.164 HD
HETATM    7  C6  UNL     1      17.636  -9.102  11.407  1.00  0.00     0.065 C 
ENDROOT
BRANCH   1   8
HETATM    8  C1  UNL     1      16.462  -6.934  11.400  1.00  0.00     0.096 C 
HETATM    9  S1  UNL     1      18.229  -6.614  11.722  1.00  0.00    -0.097 SA
ENDBRANCH   1   8
TORSDOF 1
ENDMDL
