MODEL 1
REMARK VINA RESULT: -4.975803739      0.000      0.000
REMARK  2 active torsions:
REMARK  status: ('A' for Active; 'I' for Inactive)
REMARK    1  A    between atoms: C2_2  and  O1_3 
REMARK    2  A    between atoms: O1_3  and  C3_4 
ROOT
HETATM    1  C3  UNL     1      17.789  -8.100  11.268  1.00  0.00     0.124 C 
HETATM    2  C4  UNL     1      16.734  -7.168  11.824  1.00  0.00     0.059 C 
HETATM    3  C5  UNL     1      15.817  -6.786  10.710  1.00  0.00     0.235 C 
HETATM    4  N1  UNL     1      15.664  -7.801   9.711  1.00  0.00    -0.071 N 
ATOM      5  H11 UNL     1      16.307  -7.639   8.936  1.00  0.00     0.277 HD
ATOM      6  H12 UNL     1      14.774  -7.692   9.223  1.00  0.00     0.277 HD
HETATM    7  C6  UNL     1      15.805  -9.141  10.212  1.00  0.00     0.184 C 
HETATM    8  C7  UNL     1      14.688  -9.523  11.161  1.00  0.00     0.040 C 
HETATM    9  C8  UNL     1      17.167  -9.407  10.816  1.00  0.00     0.064 C 
ENDROOT
BRANCH   1  10
HETATM   10  O1  UNL     1      18.835  -8.294  12.146  1.00  0.00    -0.386 OA
BRANCH  10  11
HETATM   11  C2  UNL     1      19.451  -9.502  11.838  1.00  0.00     0.163 C 
HETATM   12  C1  UNL     1      20.955  -9.418  11.919  1.00  0.00     0.033 C 
ENDBRANCH  10  11
ENDBRANCH   1  10
TORSDOF 2
ENDMDL
MODEL 2
REMARK VINA RESULT: -4.814832355      1.250      2.205
REMARK  2 active torsions:
REMARK  status: ('A' for Active; 'I' for Inactive)
REMARK    1  A    between atoms: C2_2  and  O1_3 
REMARK    2  A    between atoms: O1_3  and  C3_4 
ROOT
HETATM    1  C3  UNL     1      17.306  -9.821  11.206  1.00  0.00     0.124 C 
HETATM    2  C4  UNL     1      16.620 -10.166   9.903  1.00  0.00     0.059 C 
HETATM    3  C5  UNL     1      15.145 -10.097  10.121  1.00  0.00     0.235 C 
HETATM    4  N1  UNL     1      14.749  -9.130  11.101  1.00  0.00    -0.071 N 
ATOM      5  H11 UNL     1      14.635  -9.571  12.013  1.00  0.00     0.277 HD
ATOM      6  H12 UNL     1      13.789  -8.825  10.935  1.00  0.00     0.277 HD
HETATM    7  C6  UNL     1      15.629  -7.997  11.194  1.00  0.00     0.184 C 
HETATM    8  C7  UNL     1      15.606  -7.143   9.944  1.00  0.00     0.040 C 
HETATM    9  C8  UNL     1      17.041  -8.376  11.586  1.00  0.00     0.064 C 
ENDROOT
BRANCH   1  10
HETATM   10  O1  UNL     1      18.653 -10.118  11.187  1.00  0.00    -0.386 OA
BRANCH  10  11
HETATM   11  C2  UNL     1      19.334  -9.122  11.878  1.00  0.00     0.163 C 
HETATM   12  C1  UNL     1      20.825  -9.355  11.899  1.00  0.00     0.033 C 
ENDBRANCH  10  11
ENDBRANCH   1  10
TORSDOF 2
ENDMDL
MODEL 3
REMARK VINA RESULT: -4.764485956      2.078      3.721
REMARK  2 active torsions:
REMARK  status: ('A' for Active; 'I' for Inactive)
REMARK    1  A    between atoms: C2_2  and  O1_3 
REMARK    2  A    between atoms: O1_3  and  C3_4 
ROOT
HETATM    1  C3  UNL     1      17.695  -8.826  11.590  1.00  0.00     0.124 C 
HETATM    2  C4  UNL     1      17.143  -7.705  10.735  1.00  0.00     0.059 C 
HETATM    3  C5  UNL     1      17.121  -6.460  11.558  1.00  0.00     0.235 C 
HETATM    4  N1  UNL     1      18.163  -6.394  12.538  1.00  0.00    -0.071 N 
ATOM      5  H11 UNL     1      17.826  -6.727  13.441  1.00  0.00     0.277 HD
ATOM      6  H12 UNL     1      18.369  -5.424  12.777  1.00  0.00     0.277 HD
HETATM    7  C6  UNL     1      19.366  -7.088  12.161  1.00  0.00     0.184 C 
HETATM    8  C7  UNL     1      20.060  -6.440  10.981  1.00  0.00     0.040 C 
HETATM    9  C8  UNL     1      19.149  -8.568  11.938  1.00  0.00     0.064 C 
ENDROOT
BRANCH   1  10
HETATM   10  O1  UNL     1      17.505 -10.067  11.018  1.00  0.00    -0.386 OA
BRANCH  10  11
HETATM   11  C2  UNL     1      16.163 -10.197  10.683  1.00  0.00     0.163 C 
HETATM   12  C1  UNL     1      15.967 -10.893   9.358  1.00  0.00     0.033 C 
ENDBRANCH  10  11
ENDBRANCH   1  10
TORSDOF 2
ENDMDL
MODEL 4
REMARK VINA RESULT: -4.752356343      1.058      1.236
REMARK  2 active torsions:
REMARK  status: ('A' for Active; 'I' for Inactive)
REMARK    1  A    between atoms: C2_2  and  O1_3 
REMARK    2  A    between atoms: O1_3  and  C3_4 
ROOT
HETATM    1  C3  UNL     1      17.992  -9.715  10.943  1.00  0.00     0.124 C 
HETATM    2  C4  UNL     1      17.502  -8.498  11.696  1.00  0.00     0.059 C 
HETATM    3  C5  UNL     1      16.732  -7.642  10.747  1.00  0.00     0.235 C 
HETATM    4  N1  UNL     1      16.058  -8.377   9.719  1.00  0.00    -0.071 N 
ATOM      5  H11 UNL     1      16.627  -8.412   8.873  1.00  0.00     0.277 HD
ATOM      6  H12 UNL     1      15.258  -7.850   9.368  1.00  0.00     0.277 HD
HETATM    7  C6  UNL     1      15.658  -9.701  10.113  1.00  0.00     0.184 C 
HETATM    8  C7  UNL     1      14.587  -9.686  11.184  1.00  0.00     0.040 C 
HETATM    9  C8  UNL     1      16.826 -10.580  10.503  1.00  0.00     0.064 C 
ENDROOT
BRANCH   1  10
HETATM   10  O1  UNL     1      18.936 -10.430  11.652  1.00  0.00    -0.386 OA
BRANCH  10  11
HETATM   11  C2  UNL     1      20.019  -9.597  11.907  1.00  0.00     0.163 C 
HETATM   12  C1  UNL     1      21.340 -10.313  11.762  1.00  0.00     0.033 C 
ENDBRANCH  10  11
ENDBRANCH   1  10
TORSDOF 2
ENDMDL
MODEL 5
REMARK VINA RESULT: -4.622413810      3.226      5.386
REMARK  2 active torsions:
REMARK  status: ('A' for Active; 'I' for Inactive)
REMARK    1  A    between atoms: C2_2  and  O1_3 
REMARK    2  A    between atoms: O1_3  and  C3_4 
ROOT
HETATM    1  C3  UNL     1      19.342 -11.104  11.441  1.00  0.00     0.124 C 
HETATM    2  C4  UNL     1      20.189 -12.017  12.301  1.00  0.00     0.059 C 
HETATM    3  C5  UNL     1      21.623 -11.774  11.966  1.00  0.00     0.235 C 
HETATM    4  N1  UNL     1      21.903 -10.429  11.560  1.00  0.00    -0.071 N 
ATOM      5  H11 UNL     1      21.887 -10.352  10.543  1.00  0.00     0.277 HD
ATOM      6  H12 UNL     1      22.882 -10.199  11.734  1.00  0.00     0.277 HD
HETATM    7  C6  UNL     1      21.039  -9.445  12.154  1.00  0.00     0.184 C 
HETATM    8  C7  UNL     1      21.244  -9.326  13.650  1.00  0.00     0.040 C 
HETATM    9  C8  UNL     1      19.581  -9.650  11.804  1.00  0.00     0.064 C 
ENDROOT
BRANCH   1  10
HETATM   10  O1  UNL     1      18.004 -11.438  11.476  1.00  0.00    -0.386 OA
BRANCH  10  11
HETATM   11  C2  UNL     1      17.280 -10.423  10.862  1.00  0.00     0.163 C 
HETATM   12  C1  UNL     1      16.242 -10.956   9.905  1.00  0.00     0.033 C 
ENDBRANCH  10  11
ENDBRANCH   1  10
TORSDOF 2
ENDMDL
