MODEL 1
REMARK VINA RESULT: -6.563713314      0.000      0.000
REMARK  3 active torsions:
REMARK  status: ('A' for Active; 'I' for Inactive)
REMARK    1  A    between atoms: N1_1  and  N2_4 
REMARK    2  A    between atoms: N2_4  and  C1_5 
REMARK    3  A    between atoms: C1_5  and  C2_6 
ROOT
HETATM    1  C2  UNL     1     -30.067   8.311 -26.040  1.00  0.00    -0.023 A 
HETATM    2  C3  UNL     1     -31.263   8.453 -26.695  1.00  0.00     0.054 A 
HETATM    3  C4  UNL     1     -31.986   7.376 -27.149  1.00  0.00     0.118 A 
HETATM    4  N3  UNL     1     -33.237   7.550 -27.833  1.00  0.00    -0.083 NA
HETATM    5  N4  UNL     1     -31.491   6.146 -26.936  1.00  0.00    -0.329 N 
ATOM      6  H4  UNL     1     -32.015   5.336 -27.267  1.00  0.00     0.168 HD
HETATM    7  C5  UNL     1     -30.322   5.953 -26.299  1.00  0.00     0.133 A 
HETATM    8  N5  UNL     1     -29.627   4.824 -25.970  1.00  0.00    -0.285 N 
ATOM      9  H5  UNL     1     -29.908   3.864 -26.173  1.00  0.00     0.188 HD
HETATM   10  N6  UNL     1     -28.527   5.202 -25.342  1.00  0.00    -0.309 N 
ATOM     11  H6  UNL     1     -27.819   4.561 -24.982  1.00  0.00     0.186 HD
HETATM   12  C6  UNL     1     -28.463   6.527 -25.241  1.00  0.00     0.123 A 
HETATM   13  C7  UNL     1     -29.591   7.027 -25.840  1.00  0.00     0.034 A 
ENDROOT
BRANCH   1  14
HETATM   14  C1  UNL     1     -29.254   9.431 -25.534  1.00  0.00     0.173 C 
BRANCH  14  15
HETATM   15  N2  UNL     1     -29.886  10.022 -24.364  1.00  0.00    -0.144 NA
BRANCH  15  16
HETATM   16  N1  UNL     1     -29.135   9.742 -23.220  1.00  0.00    -0.348 N 
ATOM     17  H12 UNL     1     -28.476   8.968 -23.144  1.00  0.00     0.172 HD
ATOM     18  H11 UNL     1     -29.345  10.420 -22.487  1.00  0.00     0.172 HD
ENDBRANCH  15  16
ENDBRANCH  14  15
ENDBRANCH   1  14
TORSDOF 3
ENDMDL
MODEL 2
REMARK VINA RESULT: -6.408332439      1.205      3.614
REMARK  3 active torsions:
REMARK  status: ('A' for Active; 'I' for Inactive)
REMARK    1  A    between atoms: N1_1  and  N2_4 
REMARK    2  A    between atoms: N2_4  and  C1_5 
REMARK    3  A    between atoms: C1_5  and  C2_6 
ROOT
HETATM    1  C2  UNL     1     -29.714   6.310 -26.198  1.00  0.00    -0.023 A 
HETATM    2  C3  UNL     1     -30.852   6.022 -26.906  1.00  0.00     0.054 A 
HETATM    3  C4  UNL     1     -31.807   6.972 -27.183  1.00  0.00     0.118 A 
HETATM    4  N3  UNL     1     -32.992   6.645 -27.926  1.00  0.00    -0.083 NA
HETATM    5  N4  UNL     1     -31.604   8.222 -26.738  1.00  0.00    -0.329 N 
ATOM      6  H4  UNL     1     -32.302   8.939 -26.934  1.00  0.00     0.168 HD
HETATM    7  C5  UNL     1     -30.503   8.555 -26.039  1.00  0.00     0.133 A 
HETATM    8  N5  UNL     1     -30.081   9.734 -25.493  1.00  0.00    -0.285 N 
ATOM      9  H5  UNL     1     -30.574  10.626 -25.530  1.00  0.00     0.188 HD
HETATM   10  N6  UNL     1     -28.917   9.508 -24.908  1.00  0.00    -0.309 N 
ATOM     11  H6  UNL     1     -28.371  10.216 -24.418  1.00  0.00     0.186 HD
HETATM   12  C6  UNL     1     -28.552   8.236 -25.044  1.00  0.00     0.123 A 
HETATM   13  C7  UNL     1     -29.541   7.611 -25.758  1.00  0.00     0.034 A 
ENDROOT
BRANCH   1  14
HETATM   14  C1  UNL     1     -28.661   5.331 -25.876  1.00  0.00     0.173 C 
BRANCH  14  15
HETATM   15  N2  UNL     1     -29.170   4.331 -24.949  1.00  0.00    -0.144 NA
BRANCH  15  16
HETATM   16  N1  UNL     1     -29.175   3.073 -25.555  1.00  0.00    -0.348 N 
ATOM     17  H12 UNL     1     -28.472   2.756 -26.222  1.00  0.00     0.172 HD
ATOM     18  H11 UNL     1     -29.977   2.531 -25.232  1.00  0.00     0.172 HD
ENDBRANCH  15  16
ENDBRANCH  14  15
ENDBRANCH   1  14
TORSDOF 3
ENDMDL
MODEL 3
REMARK VINA RESULT: -6.398643219      1.105      4.060
REMARK  3 active torsions:
REMARK  status: ('A' for Active; 'I' for Inactive)
REMARK    1  A    between atoms: N1_1  and  N2_4 
REMARK    2  A    between atoms: N2_4  and  C1_5 
REMARK    3  A    between atoms: C1_5  and  C2_6 
ROOT
HETATM    1  C2  UNL     1     -29.260   6.958 -25.918  1.00  0.00    -0.023 A 
HETATM    2  C3  UNL     1     -28.832   8.108 -25.307  1.00  0.00     0.054 A 
HETATM    3  C4  UNL     1     -29.599   9.249 -25.265  1.00  0.00     0.118 A 
HETATM    4  N3  UNL     1     -29.129  10.442 -24.618  1.00  0.00    -0.083 NA
HETATM    5  N4  UNL     1     -30.808   9.221 -25.850  1.00  0.00    -0.329 N 
ATOM      6  H4  UNL     1     -31.389  10.058 -25.829  1.00  0.00     0.168 HD
HETATM    7  C5  UNL     1     -31.273   8.117 -26.463  1.00  0.00     0.133 A 
HETATM    8  N5  UNL     1     -32.443   7.850 -27.114  1.00  0.00    -0.285 N 
ATOM      9  H5  UNL     1     -33.219   8.499 -27.251  1.00  0.00     0.188 HD
HETATM   10  N6  UNL     1     -32.389   6.597 -27.533  1.00  0.00    -0.309 N 
ATOM     11  H6  UNL     1     -33.132   6.129 -28.052  1.00  0.00     0.186 HD
HETATM   12  C6  UNL     1     -31.238   6.026 -27.189  1.00  0.00     0.123 A 
HETATM   13  C7  UNL     1     -30.512   6.970 -26.508  1.00  0.00     0.034 A 
ENDROOT
BRANCH   1  14
HETATM   14  C1  UNL     1     -28.480   5.711 -25.989  1.00  0.00     0.173 C 
BRANCH  14  15
HETATM   15  N2  UNL     1     -28.864   4.814 -24.910  1.00  0.00    -0.144 NA
BRANCH  15  16
HETATM   16  N1  UNL     1     -29.335   3.608 -25.432  1.00  0.00    -0.348 N 
ATOM     17  H12 UNL     1     -28.867   3.082 -26.169  1.00  0.00     0.172 HD
ATOM     18  H11 UNL     1     -30.205   3.341 -24.970  1.00  0.00     0.172 HD
ENDBRANCH  15  16
ENDBRANCH  14  15
ENDBRANCH   1  14
TORSDOF 3
ENDMDL
MODEL 4
REMARK VINA RESULT: -5.971467025      0.864      3.137
REMARK  3 active torsions:
REMARK  status: ('A' for Active; 'I' for Inactive)
REMARK    1  A    between atoms: N1_1  and  N2_4 
REMARK    2  A    between atoms: N2_4  and  C1_5 
REMARK    3  A    between atoms: C1_5  and  C2_6 
ROOT
HETATM    1  C2  UNL     1     -29.836   8.247 -25.917  1.00  0.00    -0.023 A 
HETATM    2  C3  UNL     1     -28.777   7.400 -25.713  1.00  0.00     0.054 A 
HETATM    3  C4  UNL     1     -28.809   6.078 -26.088  1.00  0.00     0.118 A 
HETATM    4  N3  UNL     1     -27.687   5.210 -25.863  1.00  0.00    -0.083 NA
HETATM    5  N4  UNL     1     -29.925   5.613 -26.673  1.00  0.00    -0.329 N 
ATOM      6  H4  UNL     1     -29.966   4.634 -26.956  1.00  0.00     0.168 HD
HETATM    7  C5  UNL     1     -30.990   6.403 -26.895  1.00  0.00     0.133 A 
HETATM    8  N5  UNL     1     -32.210   6.166 -27.461  1.00  0.00    -0.285 N 
ATOM      9  H5  UNL     1     -32.537   5.276 -27.839  1.00  0.00     0.188 HD
HETATM   10  N6  UNL     1     -32.891   7.299 -27.432  1.00  0.00    -0.309 N 
ATOM     11  H6  UNL     1     -33.839   7.412 -27.791  1.00  0.00     0.186 HD
HETATM   12  C6  UNL     1     -32.176   8.272 -26.873  1.00  0.00     0.123 A 
HETATM   13  C7  UNL     1     -30.966   7.729 -26.524  1.00  0.00     0.034 A 
ENDROOT
BRANCH   1  14
HETATM   14  C1  UNL     1     -29.851   9.670 -25.537  1.00  0.00     0.173 C 
BRANCH  14  15
HETATM   15  N2  UNL     1     -29.858   9.804 -24.088  1.00  0.00    -0.144 NA
BRANCH  15  16
HETATM   16  N1  UNL     1     -28.956  10.795 -23.693  1.00  0.00    -0.348 N 
ATOM     17  H12 UNL     1     -28.336  11.291 -24.332  1.00  0.00     0.172 HD
ATOM     18  H11 UNL     1     -29.014  10.941 -22.685  1.00  0.00     0.172 HD
ENDBRANCH  15  16
ENDBRANCH  14  15
ENDBRANCH   1  14
TORSDOF 3
ENDMDL
MODEL 5
REMARK VINA RESULT: -5.888185891      1.182      4.268
REMARK  3 active torsions:
REMARK  status: ('A' for Active; 'I' for Inactive)
REMARK    1  A    between atoms: N1_1  and  N2_4 
REMARK    2  A    between atoms: N2_4  and  C1_5 
REMARK    3  A    between atoms: C1_5  and  C2_6 
ROOT
HETATM    1  C2  UNL     1     -30.872   7.129 -26.575  1.00  0.00    -0.023 A 
HETATM    2  C3  UNL     1     -30.477   5.823 -26.444  1.00  0.00     0.054 A 
HETATM    3  C4  UNL     1     -29.329   5.464 -25.778  1.00  0.00     0.118 A 
HETATM    4  N3  UNL     1     -28.936   4.089 -25.654  1.00  0.00    -0.083 NA
HETATM    5  N4  UNL     1     -28.576   6.440 -25.243  1.00  0.00    -0.329 N 
ATOM      6  H4  UNL     1     -27.721   6.191 -24.747  1.00  0.00     0.168 HD
HETATM    7  C5  UNL     1     -28.921   7.736 -25.345  1.00  0.00     0.133 A 
HETATM    8  N5  UNL     1     -28.332   8.883 -24.894  1.00  0.00    -0.285 N 
ATOM      9  H5  UNL     1     -27.463   8.946 -24.362  1.00  0.00     0.188 HD
HETATM   10  N6  UNL     1     -29.093   9.897 -25.270  1.00  0.00    -0.309 N 
ATOM     11  H6  UNL     1     -28.892  10.876 -25.068  1.00  0.00     0.186 HD
HETATM   12  C6  UNL     1     -30.156   9.472 -25.948  1.00  0.00     0.123 A 
HETATM   13  C7  UNL     1     -30.070   8.104 -26.009  1.00  0.00     0.034 A 
ENDROOT
BRANCH   1  14
HETATM   14  C1  UNL     1     -32.092   7.566 -27.276  1.00  0.00     0.173 C 
BRANCH  14  15
HETATM   15  N2  UNL     1     -32.768   6.422 -27.870  1.00  0.00    -0.144 NA
BRANCH  15  16
HETATM   16  N1  UNL     1     -34.073   6.768 -28.227  1.00  0.00    -0.348 N 
ATOM     17  H12 UNL     1     -34.539   6.446 -29.075  1.00  0.00     0.172 HD
ATOM     18  H11 UNL     1     -34.480   7.381 -27.519  1.00  0.00     0.172 HD
ENDBRANCH  15  16
ENDBRANCH  14  15
ENDBRANCH   1  14
TORSDOF 3
ENDMDL
