MODEL 1
REMARK VINA RESULT: -6.259024764      0.000      0.000
REMARK  5 active torsions:
REMARK  status: ('A' for Active; 'I' for Inactive)
REMARK    1  A    between atoms: N1_1  and  N2_4 
REMARK    2  A    between atoms: N3_6  and  C1_8 
REMARK    3  A    between atoms: C1_8  and  C2_9 
REMARK    4  A    between atoms: C3_12  and  N5_13 
REMARK    5  A    between atoms: C4_18  and  N7_19 
ROOT
HETATM    1  C2  UNL     1     -29.079   6.949 -25.849  1.00  0.00     0.132 A 
HETATM    2  N4  UNL     1     -28.674   8.098 -25.289  1.00  0.00    -0.178 N 
ATOM      3  H4  UNL     1     -27.766   8.127 -24.825  1.00  0.00     0.185 HD
HETATM    4  C3  UNL     1     -29.431   9.224 -25.319  1.00  0.00     0.691 A 
HETATM    5  N6  UNL     1     -30.634   9.221 -25.921  1.00  0.00    -0.023 N 
ATOM      6  H6  UNL     1     -31.210  10.063 -25.948  1.00  0.00     0.203 HD
HETATM    7  C4  UNL     1     -31.053   8.076 -26.487  1.00  0.00     0.691 A 
HETATM    8  N8  UNL     1     -30.280   6.950 -26.450  1.00  0.00    -0.178 N 
ATOM      9  H8  UNL     1     -30.621   6.094 -26.888  1.00  0.00     0.185 HD
ENDROOT
BRANCH   1  10
HETATM   10  C1  UNL     1     -28.256   5.712 -25.823  1.00  0.00     0.218 C 
BRANCH  10  11
HETATM   11  N3  UNL     1     -28.813   4.699 -24.980  1.00  0.00    -0.316 N 
HETATM   12  N2  UNL     1     -29.281   3.632 -25.370  1.00  0.00    -0.253 N 
ATOM     13  H2  UNL     1     -30.165   3.922 -25.785  1.00  0.00     0.207 HD
ATOM     14  H3  UNL     1     -28.822   4.877 -23.975  1.00  0.00     0.182 HD
BRANCH  12  15
HETATM   15  N1  UNL     1     -29.295   2.398 -25.549  1.00  0.00    -0.331 N 
ATOM     16  H12 UNL     1     -28.516   2.310 -26.202  1.00  0.00     0.178 HD
ATOM     17  H11 UNL     1     -29.635   1.445 -25.416  1.00  0.00     0.178 HD
ENDBRANCH  12  15
ENDBRANCH  10  11
ENDBRANCH   1  10
BRANCH   4  18
HETATM   18  N5  UNL     1     -29.032  10.324 -24.776  1.00  0.00    -0.234 N 
ATOM     19  H52 UNL     1     -28.810  11.106 -25.392  1.00  0.00     0.174 HD
ATOM     20  H51 UNL     1     -28.938  10.420 -23.765  1.00  0.00     0.174 HD
ENDBRANCH   4  18
BRANCH   7  21
HETATM   21  N7  UNL     1     -32.205   8.040 -27.075  1.00  0.00    -0.234 N 
ATOM     22  H72 UNL     1     -32.382   8.647 -27.876  1.00  0.00     0.174 HD
ATOM     23  H71 UNL     1     -32.925   7.404 -26.731  1.00  0.00     0.174 HD
ENDBRANCH   7  21
TORSDOF 5
ENDMDL
MODEL 2
REMARK VINA RESULT: -6.207388012      0.035      2.278
REMARK  5 active torsions:
REMARK  status: ('A' for Active; 'I' for Inactive)
REMARK    1  A    between atoms: N1_1  and  N2_4 
REMARK    2  A    between atoms: N3_6  and  C1_8 
REMARK    3  A    between atoms: C1_8  and  C2_9 
REMARK    4  A    between atoms: C3_12  and  N5_13 
REMARK    5  A    between atoms: C4_18  and  N7_19 
ROOT
HETATM    1  C2  UNL     1     -29.103   6.937 -25.865  1.00  0.00     0.132 A 
HETATM    2  N4  UNL     1     -30.300   6.944 -26.469  1.00  0.00    -0.178 N 
ATOM      3  H4  UNL     1     -30.639   6.085 -26.901  1.00  0.00     0.185 HD
HETATM    4  C3  UNL     1     -31.076   8.056 -26.524  1.00  0.00     0.691 A 
HETATM    5  N6  UNL     1     -30.660   9.207 -25.965  1.00  0.00    -0.023 N 
ATOM      6  H6  UNL     1     -31.236  10.048 -26.002  1.00  0.00     0.203 HD
HETATM    7  C4  UNL     1     -29.461   9.214 -25.356  1.00  0.00     0.691 A 
HETATM    8  N8  UNL     1     -28.691   8.087 -25.308  1.00  0.00    -0.178 N 
ATOM      9  H8  UNL     1     -27.785   8.119 -24.839  1.00  0.00     0.185 HD
ENDROOT
BRANCH   1  10
HETATM   10  C1  UNL     1     -28.248   5.724 -25.799  1.00  0.00     0.218 C 
BRANCH  10  11
HETATM   11  N3  UNL     1     -28.808   4.701 -24.969  1.00  0.00    -0.316 N 
HETATM   12  N2  UNL     1     -29.275   3.638 -25.373  1.00  0.00    -0.253 N 
ATOM     13  H2  UNL     1     -30.158   3.933 -25.788  1.00  0.00     0.207 HD
ATOM     14  H3  UNL     1     -28.821   4.867 -23.962  1.00  0.00     0.182 HD
BRANCH  12  15
HETATM   15  N1  UNL     1     -29.289   2.407 -25.566  1.00  0.00    -0.331 N 
ATOM     16  H12 UNL     1     -29.378   2.083 -24.603  1.00  0.00     0.178 HD
ATOM     17  H11 UNL     1     -29.264   1.556 -26.127  1.00  0.00     0.178 HD
ENDBRANCH  12  15
ENDBRANCH  10  11
ENDBRANCH   1  10
BRANCH   4  18
HETATM   18  N5  UNL     1     -32.227   8.052 -27.108  1.00  0.00    -0.234 N 
ATOM     19  H52 UNL     1     -32.833   7.245 -26.959  1.00  0.00     0.174 HD
ATOM     20  H51 UNL     1     -32.529   8.824 -27.701  1.00  0.00     0.174 HD
ENDBRANCH   4  18
BRANCH   7  21
HETATM   21  N7  UNL     1     -29.031  10.305 -24.808  1.00  0.00    -0.234 N 
ATOM     22  H72 UNL     1     -28.279  10.261 -24.120  1.00  0.00     0.174 HD
ATOM     23  H71 UNL     1     -29.449  11.198 -25.071  1.00  0.00     0.174 HD
ENDBRANCH   7  21
TORSDOF 5
ENDMDL
MODEL 3
REMARK VINA RESULT: -6.077137954      1.588      5.203
REMARK  5 active torsions:
REMARK  status: ('A' for Active; 'I' for Inactive)
REMARK    1  A    between atoms: N1_1  and  N2_4 
REMARK    2  A    between atoms: N3_6  and  C1_8 
REMARK    3  A    between atoms: C1_8  and  C2_9 
REMARK    4  A    between atoms: C3_12  and  N5_13 
REMARK    5  A    between atoms: C4_18  and  N7_19 
ROOT
HETATM    1  C2  UNL     1     -29.652   8.315 -25.710  1.00  0.00     0.132 A 
HETATM    2  N4  UNL     1     -30.815   7.912 -26.243  1.00  0.00    -0.178 N 
ATOM      3  H4  UNL     1     -31.589   8.574 -26.293  1.00  0.00     0.185 HD
HETATM    4  C3  UNL     1     -30.996   6.654 -26.717  1.00  0.00     0.691 A 
HETATM    5  N6  UNL     1     -29.996   5.755 -26.667  1.00  0.00    -0.023 N 
ATOM      6  H6  UNL     1     -30.123   4.807 -27.021  1.00  0.00     0.203 HD
HETATM    7  C4  UNL     1     -28.824   6.145 -26.135  1.00  0.00     0.691 A 
HETATM    8  N8  UNL     1     -28.656   7.415 -25.661  1.00  0.00    -0.178 N 
ATOM      9  H8  UNL     1     -27.757   7.686 -25.263  1.00  0.00     0.185 HD
ENDROOT
BRANCH   1  10
HETATM   10  C1  UNL     1     -29.444   9.691 -25.189  1.00  0.00     0.218 C 
BRANCH  10  11
HETATM   11  N3  UNL     1     -28.303  10.332 -25.768  1.00  0.00    -0.316 N 
HETATM   12  N2  UNL     1     -28.089  11.542 -25.758  1.00  0.00    -0.253 N 
ATOM     13  H2  UNL     1     -28.762  11.887 -26.442  1.00  0.00     0.207 HD
ATOM     14  H3  UNL     1     -27.612   9.736 -26.226  1.00  0.00     0.182 HD
BRANCH  12  15
HETATM   15  N1  UNL     1     -27.521  12.590 -25.392  1.00  0.00    -0.331 N 
ATOM     16  H12 UNL     1     -27.491  12.426 -24.385  1.00  0.00     0.178 HD
ATOM     17  H11 UNL     1     -27.078  13.499 -25.523  1.00  0.00     0.178 HD
ENDBRANCH  12  15
ENDBRANCH  10  11
ENDBRANCH   1  10
BRANCH   4  18
HETATM   18  N5  UNL     1     -32.120   6.277 -27.228  1.00  0.00    -0.234 N 
ATOM     19  H52 UNL     1     -32.091   5.676 -28.052  1.00  0.00     0.174 HD
ATOM     20  H51 UNL     1     -33.013   6.565 -26.829  1.00  0.00     0.174 HD
ENDBRANCH   4  18
BRANCH   7  21
HETATM   21  N7  UNL     1     -27.842   5.305 -26.071  1.00  0.00    -0.234 N 
ATOM     22  H72 UNL     1     -26.921   5.628 -25.775  1.00  0.00     0.174 HD
ATOM     23  H71 UNL     1     -28.000   4.328 -26.318  1.00  0.00     0.174 HD
ENDBRANCH   7  21
TORSDOF 5
ENDMDL
MODEL 4
REMARK VINA RESULT: -6.055656337      1.564      4.852
REMARK  5 active torsions:
REMARK  status: ('A' for Active; 'I' for Inactive)
REMARK    1  A    between atoms: N1_1  and  N2_4 
REMARK    2  A    between atoms: N3_6  and  C1_8 
REMARK    3  A    between atoms: C1_8  and  C2_9 
REMARK    4  A    between atoms: C3_12  and  N5_13 
REMARK    5  A    between atoms: C4_18  and  N7_19 
ROOT
HETATM    1  C2  UNL     1     -29.615   8.255 -25.725  1.00  0.00     0.132 A 
HETATM    2  N4  UNL     1     -28.635   7.343 -25.645  1.00  0.00    -0.178 N 
ATOM      3  H4  UNL     1     -27.741   7.615 -25.237  1.00  0.00     0.185 HD
HETATM    4  C3  UNL     1     -28.793   6.071 -26.088  1.00  0.00     0.691 A 
HETATM    5  N6  UNL     1     -29.959   5.677 -26.631  1.00  0.00    -0.023 N 
ATOM      6  H6  UNL     1     -30.087   4.722 -26.967  1.00  0.00     0.203 HD
HETATM    7  C4  UNL     1     -30.951   6.581 -26.718  1.00  0.00     0.691 A 
HETATM    8  N8  UNL     1     -30.777   7.859 -26.268  1.00  0.00    -0.178 N 
ATOM      9  H8  UNL     1     -31.546   8.526 -26.345  1.00  0.00     0.185 HD
ENDROOT
BRANCH   1  10
HETATM   10  C1  UNL     1     -29.451   9.651 -25.241  1.00  0.00     0.218 C 
BRANCH  10  11
HETATM   11  N3  UNL     1     -28.300  10.294 -25.800  1.00  0.00    -0.316 N 
HETATM   12  N2  UNL     1     -28.094  11.505 -25.793  1.00  0.00    -0.253 N 
ATOM     13  H2  UNL     1     -28.754  11.842 -26.493  1.00  0.00     0.207 HD
ATOM     14  H3  UNL     1     -27.596   9.700 -26.238  1.00  0.00     0.182 HD
BRANCH  12  15
HETATM   15  N1  UNL     1     -27.540  12.559 -25.422  1.00  0.00    -0.331 N 
ATOM     16  H12 UNL     1     -26.591  12.214 -25.281  1.00  0.00     0.178 HD
ATOM     17  H11 UNL     1     -27.497  13.550 -25.184  1.00  0.00     0.178 HD
ENDBRANCH  12  15
ENDBRANCH  10  11
ENDBRANCH   1  10
BRANCH   4  18
HETATM   18  N5  UNL     1     -27.843   5.201 -26.006  1.00  0.00    -0.234 N 
ATOM     19  H52 UNL     1     -27.191   5.133 -26.787  1.00  0.00     0.174 HD
ATOM     20  H51 UNL     1     -27.738   4.597 -25.190  1.00  0.00     0.174 HD
ENDBRANCH   4  18
BRANCH   7  21
HETATM   21  N7  UNL     1     -32.085   6.235 -27.236  1.00  0.00    -0.234 N 
ATOM     22  H72 UNL     1     -32.122   5.925 -28.207  1.00  0.00     0.174 HD
ATOM     23  H71 UNL     1     -32.931   6.277 -26.667  1.00  0.00     0.174 HD
ENDBRANCH   7  21
TORSDOF 5
ENDMDL
MODEL 5
REMARK VINA RESULT: -5.851165020      1.445      4.409
REMARK  5 active torsions:
REMARK  status: ('A' for Active; 'I' for Inactive)
REMARK    1  A    between atoms: N1_1  and  N2_4 
REMARK    2  A    between atoms: N3_6  and  C1_8 
REMARK    3  A    between atoms: C1_8  and  C2_9 
REMARK    4  A    between atoms: C3_12  and  N5_13 
REMARK    5  A    between atoms: C4_18  and  N7_19 
ROOT
HETATM    1  C2  UNL     1     -29.763   8.223 -25.843  1.00  0.00     0.132 A 
HETATM    2  N4  UNL     1     -28.979   7.164 -25.596  1.00  0.00    -0.178 N 
ATOM      3  H4  UNL     1     -28.091   7.310 -25.114  1.00  0.00     0.185 HD
HETATM    4  C3  UNL     1     -29.326   5.906 -25.965  1.00  0.00     0.691 A 
HETATM    5  N6  UNL     1     -30.488   5.677 -26.602  1.00  0.00    -0.023 N 
ATOM      6  H6  UNL     1     -30.757   4.734 -26.883  1.00  0.00     0.203 HD
HETATM    7  C4  UNL     1     -31.285   6.730 -26.857  1.00  0.00     0.691 A 
HETATM    8  N8  UNL     1     -30.923   7.992 -26.479  1.00  0.00    -0.178 N 
ATOM      9  H8  UNL     1     -31.545   8.774 -26.684  1.00  0.00     0.185 HD
ENDROOT
BRANCH   1  10
HETATM   10  C1  UNL     1     -29.392   9.605 -25.441  1.00  0.00     0.218 C 
BRANCH  10  11
HETATM   11  N3  UNL     1     -29.184   9.730 -24.031  1.00  0.00    -0.316 N 
HETATM   12  N2  UNL     1     -29.933  10.318 -23.254  1.00  0.00    -0.253 N 
ATOM     13  H2  UNL     1     -29.750  11.297 -23.475  1.00  0.00     0.207 HD
ATOM     14  H3  UNL     1     -28.348   9.297 -23.639  1.00  0.00     0.182 HD
BRANCH  12  15
HETATM   15  N1  UNL     1     -30.788  10.406 -22.351  1.00  0.00    -0.331 N 
ATOM     16  H12 UNL     1     -30.175  10.496 -21.541  1.00  0.00     0.178 HD
ATOM     17  H11 UNL     1     -31.733  10.438 -21.969  1.00  0.00     0.178 HD
ENDBRANCH  12  15
ENDBRANCH  10  11
ENDBRANCH   1  10
BRANCH   4  18
HETATM   18  N5  UNL     1     -28.563   4.894 -25.722  1.00  0.00    -0.234 N 
ATOM     19  H52 UNL     1     -28.092   4.452 -26.512  1.00  0.00     0.174 HD
ATOM     20  H51 UNL     1     -28.428   4.540 -24.775  1.00  0.00     0.174 HD
ENDBRANCH   4  18
BRANCH   7  21
HETATM   21  N7  UNL     1     -32.410   6.545 -27.468  1.00  0.00    -0.234 N 
ATOM     22  H72 UNL     1     -32.786   7.281 -28.066  1.00  0.00     0.174 HD
ATOM     23  H71 UNL     1     -32.909   5.664 -27.346  1.00  0.00     0.174 HD
ENDBRANCH   7  21
TORSDOF 5
ENDMDL
