MODEL 1
REMARK VINA RESULT: -5.831262458      0.000      0.000
REMARK  7 active torsions:
REMARK  status: ('A' for Active; 'I' for Inactive)
REMARK    1  A    between atoms: N1_1  and  N2_4 
REMARK    2  A    between atoms: C1_6  and  N3_7 
REMARK    3  A    between atoms: N3_7  and  C2_9 
REMARK    4  A    between atoms: C3_12  and  C4_13 
REMARK    5  A    between atoms: C4_13  and  N5_14 
REMARK    6  A    between atoms: N5_14  and  N6_15 
REMARK    7  A    between atoms: C6_19  and  N7_20 
ROOT
HETATM    1  C2  UNL     1      -5.512   7.728  15.281  1.00  0.00     0.109 C 
HETATM    2  N4  UNL     1      -6.222   8.456  14.498  1.00  0.00    -0.372 N 
ATOM      3  H4  UNL     1      -6.286   9.471  14.571  1.00  0.00     0.161 HD
HETATM    4  C3  UNL     1      -6.925   7.676  13.497  1.00  0.00     0.101 C 
HETATM    5  C5  UNL     1      -7.011   6.309  14.202  1.00  0.00     0.067 C 
HETATM    6  C6  UNL     1      -5.655   6.323  14.857  1.00  0.00     0.252 C 
ENDROOT
BRANCH   1   7
HETATM    7  N3  UNL     1      -4.698   8.218  16.380  1.00  0.00    -0.340 N 
ATOM      8  H3  UNL     1      -4.167   9.083  16.279  1.00  0.00     0.168 HD
BRANCH   7   9
HETATM    9  C1  UNL     1      -4.649   7.487  17.593  1.00  0.00     0.198 C 
HETATM   10  N2  UNL     1      -4.738   8.076  18.719  1.00  0.00    -0.303 N 
ATOM     11  H2  UNL     1      -4.846   9.090  18.747  1.00  0.00     0.187 HD
BRANCH  10  12
HETATM   12  N1  UNL     1      -4.690   7.358  19.915  1.00  0.00    -0.344 N 
ATOM     13  H12 UNL     1      -4.264   6.431  19.908  1.00  0.00     0.176 HD
ATOM     14  H11 UNL     1      -5.071   7.745  20.779  1.00  0.00     0.176 HD
ENDBRANCH  10  12
ENDBRANCH   7   9
ENDBRANCH   1   7
BRANCH   6  15
HETATM   15  N7  UNL     1      -4.665   6.060  13.818  1.00  0.00    -0.068 N 
ATOM     16  H73 UNL     1      -4.980   5.363  13.143  1.00  0.00     0.275 HD
ATOM     17  H72 UNL     1      -4.558   6.840  13.169  1.00  0.00     0.275 HD
ATOM     18  H71 UNL     1      -3.790   5.801  14.272  1.00  0.00     0.275 HD
ENDBRANCH   6  15
BRANCH   4  19
HETATM   19  C4  UNL     1      -8.302   8.287  13.358  1.00  0.00     0.159 C 
BRANCH  19  20
HETATM   20  N5  UNL     1      -9.239   7.170  13.253  1.00  0.00    -0.146 NA
BRANCH  20  21
HETATM   21  N6  UNL     1     -10.169   7.377  12.226  1.00  0.00    -0.348 N 
ATOM     22  H62 UNL     1     -10.365   8.293  11.821  1.00  0.00     0.172 HD
ATOM     23  H61 UNL     1     -10.612   6.503  11.943  1.00  0.00     0.172 HD
ENDBRANCH  20  21
ENDBRANCH  19  20
ENDBRANCH   4  19
TORSDOF 7
ENDMDL
MODEL 2
REMARK VINA RESULT: -5.617924127      2.646      4.449
REMARK  7 active torsions:
REMARK  status: ('A' for Active; 'I' for Inactive)
REMARK    1  A    between atoms: N1_1  and  N2_4 
REMARK    2  A    between atoms: C1_6  and  N3_7 
REMARK    3  A    between atoms: N3_7  and  C2_9 
REMARK    4  A    between atoms: C3_12  and  C4_13 
REMARK    5  A    between atoms: C4_13  and  N5_14 
REMARK    6  A    between atoms: N5_14  and  N6_15 
REMARK    7  A    between atoms: C6_19  and  N7_20 
ROOT
HETATM    1  C2  UNL     1      -6.376   7.547  14.176  1.00  0.00     0.109 C 
HETATM    2  N4  UNL     1      -5.767   8.653  14.406  1.00  0.00    -0.372 N 
ATOM      3  H4  UNL     1      -4.773   8.718  14.625  1.00  0.00     0.161 HD
HETATM    4  C3  UNL     1      -6.647   9.803  14.319  1.00  0.00     0.101 C 
HETATM    5  C5  UNL     1      -8.010   9.148  14.616  1.00  0.00     0.067 C 
HETATM    6  C6  UNL     1      -7.787   7.854  13.880  1.00  0.00     0.252 C 
ENDROOT
BRANCH   1   7
HETATM    7  N3  UNL     1      -5.765   6.230  14.192  1.00  0.00    -0.340 N 
ATOM      8  H3  UNL     1      -4.922   6.048  13.646  1.00  0.00     0.168 HD
BRANCH   7   9
HETATM    9  C1  UNL     1      -6.346   5.199  14.970  1.00  0.00     0.198 C 
HETATM   10  N2  UNL     1      -6.429   4.007  14.527  1.00  0.00    -0.303 N 
ATOM     11  H2  UNL     1      -6.071   3.793  13.597  1.00  0.00     0.187 HD
BRANCH  10  12
HETATM   12  N1  UNL     1      -7.001   2.990  15.293  1.00  0.00    -0.344 N 
ATOM     13  H12 UNL     1      -6.479   2.634  16.094  1.00  0.00     0.176 HD
ATOM     14  H11 UNL     1      -7.918   2.607  15.062  1.00  0.00     0.176 HD
ENDBRANCH  10  12
ENDBRANCH   7   9
ENDBRANCH   1   7
BRANCH   6  15
HETATM   15  N7  UNL     1      -7.900   8.138  12.453  1.00  0.00    -0.068 N 
ATOM     16  H73 UNL     1      -8.445   8.978  12.262  1.00  0.00     0.275 HD
ATOM     17  H72 UNL     1      -7.019   8.449  12.043  1.00  0.00     0.275 HD
ATOM     18  H71 UNL     1      -8.279   7.311  11.994  1.00  0.00     0.275 HD
ENDBRANCH   6  15
BRANCH   4  19
HETATM   19  C4  UNL     1      -6.254  10.738  15.441  1.00  0.00     0.159 C 
BRANCH  19  20
HETATM   20  N5  UNL     1      -5.902  12.010  14.813  1.00  0.00    -0.146 NA
BRANCH  20  21
HETATM   21  N6  UNL     1      -4.589  11.994  14.326  1.00  0.00    -0.348 N 
ATOM     22  H62 UNL     1      -3.766  12.064  14.925  1.00  0.00     0.172 HD
ATOM     23  H61 UNL     1      -4.570  11.905  13.310  1.00  0.00     0.172 HD
ENDBRANCH  20  21
ENDBRANCH  19  20
ENDBRANCH   4  19
TORSDOF 7
ENDMDL
MODEL 3
REMARK VINA RESULT: -5.588170708      2.546      5.388
REMARK  7 active torsions:
REMARK  status: ('A' for Active; 'I' for Inactive)
REMARK    1  A    between atoms: N1_1  and  N2_4 
REMARK    2  A    between atoms: C1_6  and  N3_7 
REMARK    3  A    between atoms: N3_7  and  C2_9 
REMARK    4  A    between atoms: C3_12  and  C4_13 
REMARK    5  A    between atoms: C4_13  and  N5_14 
REMARK    6  A    between atoms: N5_14  and  N6_15 
REMARK    7  A    between atoms: C6_19  and  N7_20 
ROOT
HETATM    1  C2  UNL     1      -7.187   9.204  14.144  1.00  0.00     0.109 C 
HETATM    2  N4  UNL     1      -6.372   8.214  14.078  1.00  0.00    -0.372 N 
ATOM      3  H4  UNL     1      -6.449   7.462  13.393  1.00  0.00     0.161 HD
HETATM    4  C3  UNL     1      -5.330   8.282  15.085  1.00  0.00     0.101 C 
HETATM    5  C5  UNL     1      -6.020   9.144  16.159  1.00  0.00     0.067 C 
HETATM    6  C6  UNL     1      -6.746  10.089  15.238  1.00  0.00     0.252 C 
ENDROOT
BRANCH   1   7
HETATM    7  N3  UNL     1      -8.330   9.413  13.273  1.00  0.00    -0.340 N 
ATOM      8  H3  UNL     1      -8.455  10.304  12.794  1.00  0.00     0.168 HD
BRANCH   7   9
HETATM    9  C1  UNL     1      -9.272   8.369  13.094  1.00  0.00     0.198 C 
HETATM   10  N2  UNL     1     -10.241   8.491  12.277  1.00  0.00    -0.303 N 
ATOM     11  H2  UNL     1     -10.341   9.355  11.744  1.00  0.00     0.187 HD
BRANCH  10  12
HETATM   12  N1  UNL     1     -11.169   7.464  12.099  1.00  0.00    -0.344 N 
ATOM     13  H12 UNL     1     -11.505   6.965  12.923  1.00  0.00     0.176 HD
ATOM     14  H11 UNL     1     -11.507   7.214  11.169  1.00  0.00     0.176 HD
ENDBRANCH  10  12
ENDBRANCH   7   9
ENDBRANCH   1   7
BRANCH   6  15
HETATM   15  N7  UNL     1      -5.759  11.019  14.700  1.00  0.00    -0.068 N 
ATOM     16  H73 UNL     1      -5.019  11.236  15.367  1.00  0.00     0.275 HD
ATOM     17  H72 UNL     1      -5.174  10.598  13.978  1.00  0.00     0.275 HD
ATOM     18  H71 UNL     1      -6.251  11.850  14.373  1.00  0.00     0.275 HD
ENDBRANCH   6  15
BRANCH   4  19
HETATM   19  C4  UNL     1      -5.123   6.872  15.592  1.00  0.00     0.159 C 
BRANCH  19  20
HETATM   20  N5  UNL     1      -4.973   6.027  14.408  1.00  0.00    -0.146 NA
BRANCH  20  21
HETATM   21  N6  UNL     1      -5.765   4.875  14.500  1.00  0.00    -0.348 N 
ATOM     22  H62 UNL     1      -5.570   4.107  15.142  1.00  0.00     0.172 HD
ATOM     23  H61 UNL     1      -6.549   4.910  13.848  1.00  0.00     0.172 HD
ENDBRANCH  20  21
ENDBRANCH  19  20
ENDBRANCH   4  19
TORSDOF 7
ENDMDL
MODEL 4
REMARK VINA RESULT: -5.472526672      3.474      5.308
REMARK  7 active torsions:
REMARK  status: ('A' for Active; 'I' for Inactive)
REMARK    1  A    between atoms: N1_1  and  N2_4 
REMARK    2  A    between atoms: C1_6  and  N3_7 
REMARK    3  A    between atoms: N3_7  and  C2_9 
REMARK    4  A    between atoms: C3_12  and  C4_13 
REMARK    5  A    between atoms: C4_13  and  N5_14 
REMARK    6  A    between atoms: N5_14  and  N6_15 
REMARK    7  A    between atoms: C6_19  and  N7_20 
ROOT
HETATM    1  C2  UNL     1      -5.657  10.608  14.754  1.00  0.00     0.109 C 
HETATM    2  N4  UNL     1      -5.077   9.464  14.797  1.00  0.00    -0.372 N 
ATOM      3  H4  UNL     1      -4.066   9.339  14.749  1.00  0.00     0.161 HD
HETATM    4  C3  UNL     1      -6.018   8.366  14.923  1.00  0.00     0.101 C 
HETATM    5  C5  UNL     1      -7.285   9.000  14.319  1.00  0.00     0.067 C 
HETATM    6  C6  UNL     1      -7.110  10.390  14.871  1.00  0.00     0.252 C 
ENDROOT
BRANCH   1   7
HETATM    7  N3  UNL     1      -4.984  11.889  14.630  1.00  0.00    -0.340 N 
ATOM      8  H3  UNL     1      -4.074  12.036  15.067  1.00  0.00     0.168 HD
BRANCH   7   9
HETATM    9  C1  UNL     1      -5.600  12.933  13.896  1.00  0.00     0.198 C 
HETATM   10  N2  UNL     1      -4.908  13.865  13.372  1.00  0.00    -0.303 N 
ATOM     11  H2  UNL     1      -3.894  13.860  13.483  1.00  0.00     0.187 HD
BRANCH  10  12
HETATM   12  N1  UNL     1      -5.512  14.894  12.648  1.00  0.00    -0.344 N 
ATOM     13  H12 UNL     1      -6.415  14.713  12.209  1.00  0.00     0.176 HD
ATOM     14  H11 UNL     1      -5.067  15.808  12.558  1.00  0.00     0.176 HD
ENDBRANCH  10  12
ENDBRANCH   7   9
ENDBRANCH   1   7
BRANCH   6  15
HETATM   15  N7  UNL     1      -7.450  10.343  16.289  1.00  0.00    -0.068 N 
ATOM     16  H73 UNL     1      -7.533  11.270  16.705  1.00  0.00     0.275 HD
ATOM     17  H72 UNL     1      -8.407  10.032  16.454  1.00  0.00     0.275 HD
ATOM     18  H71 UNL     1      -6.759   9.760  16.761  1.00  0.00     0.275 HD
ENDBRANCH   6  15
BRANCH   4  19
HETATM   19  C4  UNL     1      -5.508   7.253  14.035  1.00  0.00     0.159 C 
BRANCH  19  20
HETATM   20  N5  UNL     1      -5.108   6.166  14.927  1.00  0.00    -0.146 NA
BRANCH  20  21
HETATM   21  N6  UNL     1      -5.850   5.003  14.680  1.00  0.00    -0.348 N 
ATOM     22  H62 UNL     1      -6.095   4.681  13.744  1.00  0.00     0.172 HD
ATOM     23  H61 UNL     1      -6.104   4.532  15.548  1.00  0.00     0.172 HD
ENDBRANCH  20  21
ENDBRANCH  19  20
ENDBRANCH   4  19
TORSDOF 7
ENDMDL
MODEL 5
REMARK VINA RESULT: -5.461097150      3.636      5.041
REMARK  7 active torsions:
REMARK  status: ('A' for Active; 'I' for Inactive)
REMARK    1  A    between atoms: N1_1  and  N2_4 
REMARK    2  A    between atoms: C1_6  and  N3_7 
REMARK    3  A    between atoms: N3_7  and  C2_9 
REMARK    4  A    between atoms: C3_12  and  C4_13 
REMARK    5  A    between atoms: C4_13  and  N5_14 
REMARK    6  A    between atoms: N5_14  and  N6_15 
REMARK    7  A    between atoms: C6_19  and  N7_20 
ROOT
HETATM    1  C2  UNL     1      -5.783  10.865  14.633  1.00  0.00     0.109 C 
HETATM    2  N4  UNL     1      -5.055   9.817  14.492  1.00  0.00    -0.372 N 
ATOM      3  H4  UNL     1      -4.126   9.825  14.071  1.00  0.00     0.161 HD
HETATM    4  C3  UNL     1      -5.698   8.619  14.998  1.00  0.00     0.101 C 
HETATM    5  C5  UNL     1      -7.181   9.021  14.895  1.00  0.00     0.067 C 
HETATM    6  C6  UNL     1      -7.038  10.465  15.295  1.00  0.00     0.252 C 
ENDROOT
BRANCH   1   7
HETATM    7  N3  UNL     1      -5.413  12.208  14.223  1.00  0.00    -0.340 N 
ATOM      8  H3  UNL     1      -5.595  12.523  13.270  1.00  0.00     0.168 HD
BRANCH   7   9
HETATM    9  C1  UNL     1      -4.799  13.079  15.157  1.00  0.00     0.198 C 
HETATM   10  N2  UNL     1      -4.343  14.213  14.798  1.00  0.00    -0.303 N 
ATOM     11  H2  UNL     1      -4.421  14.497  13.822  1.00  0.00     0.187 HD
BRANCH  10  12
HETATM   12  N1  UNL     1      -3.739  15.073  15.716  1.00  0.00    -0.344 N 
ATOM     13  H12 UNL     1      -2.827  15.467  15.485  1.00  0.00     0.176 HD
ATOM     14  H11 UNL     1      -4.194  15.306  16.599  1.00  0.00     0.176 HD
ENDBRANCH  10  12
ENDBRANCH   7   9
ENDBRANCH   1   7
BRANCH   6  15
HETATM   15  N7  UNL     1      -6.822  10.499  16.737  1.00  0.00    -0.068 N 
ATOM     16  H73 UNL     1      -5.942  10.947  16.993  1.00  0.00     0.275 HD
ATOM     17  H72 UNL     1      -7.449  11.147  17.215  1.00  0.00     0.275 HD
ATOM     18  H71 UNL     1      -6.896   9.546  17.092  1.00  0.00     0.275 HD
ENDBRANCH   6  15
BRANCH   4  19
HETATM   19  C4  UNL     1      -5.381   7.509  14.021  1.00  0.00     0.159 C 
BRANCH  19  20
HETATM   20  N5  UNL     1      -4.866   6.395  14.815  1.00  0.00    -0.146 NA
BRANCH  20  21
HETATM   21  N6  UNL     1      -5.652   5.247  14.655  1.00  0.00    -0.348 N 
ATOM     22  H62 UNL     1      -6.668   5.244  14.742  1.00  0.00     0.172 HD
ATOM     23  H61 UNL     1      -5.079   4.431  14.443  1.00  0.00     0.172 HD
ENDBRANCH  20  21
ENDBRANCH  19  20
ENDBRANCH   4  19
TORSDOF 7
ENDMDL
