MODEL 1
REMARK VINA RESULT: -6.079082941      0.000      0.000
REMARK  5 active torsions:
REMARK  status: ('A' for Active; 'I' for Inactive)
REMARK    1  A    between atoms: C4_11  and  N4_12 
REMARK    2  A    between atoms: N4_12  and  N5_14 
REMARK    3  A    between atoms: N5_14  and  C5_16 
REMARK    4  A    between atoms: C5_16  and  C6_17 
REMARK    5  A    between atoms: C6_17  and  N6_18 
ROOT
HETATM    1  C1  UNL     1      -9.217   7.412  12.872  1.00  0.00     0.090 C 
HETATM    2  C2  UNL     1      -7.946   7.147  13.584  1.00  0.00     0.109 A 
HETATM    3  N1  UNL     1      -7.598   5.893  13.865  1.00  0.00    -0.180 N 
ATOM      4  H1  UNL     1      -8.213   5.129  13.585  1.00  0.00     0.185 HD
HETATM    5  C3  UNL     1      -6.441   5.612  14.516  1.00  0.00     0.691 A 
HETATM    6  N2  UNL     1      -6.088   4.404  14.795  1.00  0.00    -0.234 N 
ATOM      7  H21 UNL     1      -5.218   4.193  15.285  1.00  0.00     0.174 HD
ATOM      8  H22 UNL     1      -6.684   3.621  14.528  1.00  0.00     0.174 HD
HETATM    9  N3  UNL     1      -5.643   6.662  14.874  1.00  0.00    -0.021 N 
ATOM     10  H3  UNL     1      -4.767   6.480  15.364  1.00  0.00     0.203 HD
HETATM   11  C4  UNL     1      -5.988   7.923  14.594  1.00  0.00     0.712 A 
HETATM   12  N7  UNL     1      -7.139   8.161  13.950  1.00  0.00    -0.178 N 
ATOM     13  H7  UNL     1      -7.406   9.121  13.734  1.00  0.00     0.185 HD
ENDROOT
BRANCH  11  14
HETATM   14  N4  UNL     1      -5.249   8.906  14.926  1.00  0.00    -0.136 N 
ATOM     15  H4  UNL     1      -4.370   9.080  14.438  1.00  0.00     0.205 HD
BRANCH  14  16
HETATM   16  N5  UNL     1      -5.656   9.740  15.963  1.00  0.00    -0.321 N 
ATOM     17  H5  UNL     1      -5.525   9.413  16.920  1.00  0.00     0.180 HD
BRANCH  16  18
HETATM   18  C5  UNL     1      -6.250  11.035  15.768  1.00  0.00     0.167 C 
BRANCH  18  19
HETATM   19  C6  UNL     1      -5.737  11.620  14.475  1.00  0.00     0.250 C 
BRANCH  19  20
HETATM   20  N6  UNL     1      -4.602  12.484  14.746  1.00  0.00    -0.078 N 
ATOM     21  H63 UNL     1      -4.782  13.452  14.480  1.00  0.00     0.274 HD
ATOM     22  H62 UNL     1      -4.460  12.631  15.746  1.00  0.00     0.274 HD
ATOM     23  H61 UNL     1      -3.769  12.109  14.292  1.00  0.00     0.274 HD
ENDBRANCH  19  20
ENDBRANCH  18  19
ENDBRANCH  16  18
ENDBRANCH  14  16
ENDBRANCH  11  14
TORSDOF 5
ENDMDL
MODEL 2
REMARK VINA RESULT: -5.957518688      1.510      4.686
REMARK  5 active torsions:
REMARK  status: ('A' for Active; 'I' for Inactive)
REMARK    1  A    between atoms: C4_11  and  N4_12 
REMARK    2  A    between atoms: N4_12  and  N5_14 
REMARK    3  A    between atoms: N5_14  and  C5_16 
REMARK    4  A    between atoms: C5_16  and  C6_17 
REMARK    5  A    between atoms: C6_17  and  N6_18 
ROOT
HETATM    1  C1  UNL     1      -9.351   8.703  13.309  1.00  0.00     0.090 C 
HETATM    2  C2  UNL     1      -8.015   8.805  13.941  1.00  0.00     0.109 A 
HETATM    3  N1  UNL     1      -7.786   9.758  14.842  1.00  0.00    -0.180 N 
ATOM      4  H1  UNL     1      -8.534  10.407  15.085  1.00  0.00     0.185 HD
HETATM    5  C3  UNL     1      -6.575   9.883  15.443  1.00  0.00     0.691 A 
HETATM    6  N2  UNL     1      -6.336  10.799  16.317  1.00  0.00    -0.234 N 
ATOM      7  H21 UNL     1      -5.426  10.893  16.768  1.00  0.00     0.174 HD
ATOM      8  H22 UNL     1      -7.065  11.462  16.579  1.00  0.00     0.174 HD
HETATM    9  N3  UNL     1      -5.598   8.995  15.091  1.00  0.00    -0.021 N 
ATOM     10  H3  UNL     1      -4.679   9.065  15.527  1.00  0.00     0.203 HD
HETATM   11  C4  UNL     1      -5.824   8.036  14.187  1.00  0.00     0.712 A 
HETATM   12  N7  UNL     1      -7.033   7.945  13.616  1.00  0.00    -0.178 N 
ATOM     13  H7  UNL     1      -7.210   7.215  12.926  1.00  0.00     0.185 HD
ENDROOT
BRANCH  11  14
HETATM   14  N4  UNL     1      -4.917   7.205  13.855  1.00  0.00    -0.136 N 
ATOM     15  H4  UNL     1      -4.122   7.507  13.290  1.00  0.00     0.205 HD
BRANCH  14  16
HETATM   16  N5  UNL     1      -5.024   5.882  14.272  1.00  0.00    -0.321 N 
ATOM     17  H5  UNL     1      -4.441   5.185  13.809  1.00  0.00     0.180 HD
BRANCH  16  18
HETATM   18  C5  UNL     1      -5.907   5.437  15.316  1.00  0.00     0.167 C 
BRANCH  18  19
HETATM   19  C6  UNL     1      -6.808   4.357  14.770  1.00  0.00     0.250 C 
BRANCH  19  20
HETATM   20  N6  UNL     1      -6.018   3.183  14.440  1.00  0.00    -0.078 N 
ATOM     21  H63 UNL     1      -5.303   3.383  13.740  1.00  0.00     0.274 HD
ATOM     22  H62 UNL     1      -5.401   2.907  15.204  1.00  0.00     0.274 HD
ATOM     23  H61 UNL     1      -6.635   2.424  14.153  1.00  0.00     0.274 HD
ENDBRANCH  19  20
ENDBRANCH  18  19
ENDBRANCH  16  18
ENDBRANCH  14  16
ENDBRANCH  11  14
TORSDOF 5
ENDMDL
MODEL 3
REMARK VINA RESULT: -5.951652006      1.402      1.846
REMARK  5 active torsions:
REMARK  status: ('A' for Active; 'I' for Inactive)
REMARK    1  A    between atoms: C4_11  and  N4_12 
REMARK    2  A    between atoms: N4_12  and  N5_14 
REMARK    3  A    between atoms: N5_14  and  C5_16 
REMARK    4  A    between atoms: C5_16  and  C6_17 
REMARK    5  A    between atoms: C6_17  and  N6_18 
ROOT
HETATM    1  C1  UNL     1      -9.066   8.627  13.125  1.00  0.00     0.090 C 
HETATM    2  C2  UNL     1      -7.761   8.564  13.822  1.00  0.00     0.109 A 
HETATM    3  N1  UNL     1      -6.940   7.542  13.591  1.00  0.00    -0.180 N 
ATOM      4  H1  UNL     1      -7.222   6.813  12.936  1.00  0.00     0.185 HD
HETATM    5  C3  UNL     1      -5.736   7.450  14.211  1.00  0.00     0.691 A 
HETATM    6  N2  UNL     1      -4.930   6.468  13.999  1.00  0.00    -0.234 N 
ATOM      7  H21 UNL     1      -4.024   6.400  14.465  1.00  0.00     0.174 HD
ATOM      8  H22 UNL     1      -5.185   5.725  13.350  1.00  0.00     0.174 HD
HETATM    9  N3  UNL     1      -5.394   8.446  15.082  1.00  0.00    -0.021 N 
ATOM     10  H3  UNL     1      -4.495   8.404  15.561  1.00  0.00     0.203 HD
HETATM   11  C4  UNL     1      -6.215   9.476  15.317  1.00  0.00     0.712 A 
HETATM   12  N7  UNL     1      -7.396   9.530  14.686  1.00  0.00    -0.178 N 
ATOM     13  H7  UNL     1      -8.025  10.313  14.861  1.00  0.00     0.185 HD
ENDROOT
BRANCH  11  14
HETATM   14  N4  UNL     1      -5.902  10.407  16.128  1.00  0.00    -0.136 N 
ATOM     15  H4  UNL     1      -5.905  10.238  17.134  1.00  0.00     0.205 HD
BRANCH  14  16
HETATM   16  N5  UNL     1      -5.556  11.657  15.624  1.00  0.00    -0.321 N 
ATOM     17  H5  UNL     1      -5.529  12.444  16.272  1.00  0.00     0.180 HD
BRANCH  16  18
HETATM   18  C5  UNL     1      -5.236  11.907  14.245  1.00  0.00     0.167 C 
BRANCH  18  19
HETATM   19  C6  UNL     1      -5.540  13.350  13.925  1.00  0.00     0.250 C 
BRANCH  19  20
HETATM   20  N6  UNL     1      -4.412  14.183  14.308  1.00  0.00    -0.078 N 
ATOM     21  H63 UNL     1      -3.655  13.639  14.721  1.00  0.00     0.274 HD
ATOM     22  H62 UNL     1      -3.909  14.545  13.498  1.00  0.00     0.274 HD
ATOM     23  H61 UNL     1      -4.731  14.928  14.926  1.00  0.00     0.274 HD
ENDBRANCH  19  20
ENDBRANCH  18  19
ENDBRANCH  16  18
ENDBRANCH  14  16
ENDBRANCH  11  14
TORSDOF 5
ENDMDL
MODEL 4
REMARK VINA RESULT: -5.918499409      1.699      4.878
REMARK  5 active torsions:
REMARK  status: ('A' for Active; 'I' for Inactive)
REMARK    1  A    between atoms: C4_11  and  N4_12 
REMARK    2  A    between atoms: N4_12  and  N5_14 
REMARK    3  A    between atoms: N5_14  and  C5_16 
REMARK    4  A    between atoms: C5_16  and  C6_17 
REMARK    5  A    between atoms: C6_17  and  N6_18 
ROOT
HETATM    1  C1  UNL     1      -6.480  10.836  16.623  1.00  0.00     0.090 C 
HETATM    2  C2  UNL     1      -6.694   9.825  15.562  1.00  0.00     0.109 A 
HETATM    3  N1  UNL     1      -7.882   9.737  14.967  1.00  0.00    -0.180 N 
ATOM      4  H1  UNL     1      -8.631  10.367  15.251  1.00  0.00     0.185 HD
HETATM    5  C3  UNL     1      -8.115   8.823  13.991  1.00  0.00     0.691 A 
HETATM    6  N2  UNL     1      -9.258   8.724  13.404  1.00  0.00    -0.234 N 
ATOM      7  H21 UNL     1      -9.433   8.038  12.670  1.00  0.00     0.174 HD
ATOM      8  H22 UNL     1     -10.026   9.341  13.668  1.00  0.00     0.174 HD
HETATM    9  N3  UNL     1      -7.086   7.996  13.637  1.00  0.00    -0.021 N 
ATOM     10  H3  UNL     1      -7.233   7.301  12.906  1.00  0.00     0.203 HD
HETATM   11  C4  UNL     1      -5.891   8.082  14.231  1.00  0.00     0.712 A 
HETATM   12  N7  UNL     1      -5.700   8.996  15.192  1.00  0.00    -0.178 N 
ATOM     13  H7  UNL     1      -4.790   9.065  15.648  1.00  0.00     0.185 HD
ENDROOT
BRANCH  11  14
HETATM   14  N4  UNL     1      -4.929   7.312  13.907  1.00  0.00    -0.136 N 
ATOM     15  H4  UNL     1      -4.131   7.675  13.385  1.00  0.00     0.205 HD
BRANCH  14  16
HETATM   16  N5  UNL     1      -4.980   5.971  14.274  1.00  0.00    -0.321 N 
ATOM     17  H5  UNL     1      -4.398   5.311  13.758  1.00  0.00     0.180 HD
BRANCH  16  18
HETATM   18  C5  UNL     1      -5.804   5.459  15.334  1.00  0.00     0.167 C 
BRANCH  18  19
HETATM   19  C6  UNL     1      -6.751   4.429  14.766  1.00  0.00     0.250 C 
BRANCH  19  20
HETATM   20  N6  UNL     1      -6.017   3.217  14.444  1.00  0.00    -0.078 N 
ATOM     21  H63 UNL     1      -5.024   3.396  14.295  1.00  0.00     0.274 HD
ATOM     22  H62 UNL     1      -5.935   2.593  15.246  1.00  0.00     0.274 HD
ATOM     23  H61 UNL     1      -6.450   2.758  13.643  1.00  0.00     0.274 HD
ENDBRANCH  19  20
ENDBRANCH  18  19
ENDBRANCH  16  18
ENDBRANCH  14  16
ENDBRANCH  11  14
TORSDOF 5
ENDMDL
MODEL 5
REMARK VINA RESULT: -5.833158928      1.003      1.594
REMARK  5 active torsions:
REMARK  status: ('A' for Active; 'I' for Inactive)
REMARK    1  A    between atoms: C4_11  and  N4_12 
REMARK    2  A    between atoms: N4_12  and  N5_14 
REMARK    3  A    between atoms: N5_14  and  C5_16 
REMARK    4  A    between atoms: C5_16  and  C6_17 
REMARK    5  A    between atoms: C6_17  and  N6_18 
ROOT
HETATM    1  C1  UNL     1      -9.181   7.504  12.859  1.00  0.00     0.090 C 
HETATM    2  C2  UNL     1      -7.913   7.251  13.582  1.00  0.00     0.109 A 
HETATM    3  N1  UNL     1      -7.557   6.001  13.867  1.00  0.00    -0.180 N 
ATOM      4  H1  UNL     1      -8.163   5.231  13.584  1.00  0.00     0.185 HD
HETATM    5  C3  UNL     1      -6.403   5.730  14.528  1.00  0.00     0.691 A 
HETATM    6  N2  UNL     1      -6.042   4.526  14.812  1.00  0.00    -0.234 N 
ATOM      7  H21 UNL     1      -5.175   4.323  15.308  1.00  0.00     0.174 HD
ATOM      8  H22 UNL     1      -6.629   3.737  14.541  1.00  0.00     0.174 HD
HETATM    9  N3  UNL     1      -5.617   6.787  14.891  1.00  0.00    -0.021 N 
ATOM     10  H3  UNL     1      -4.744   6.614  15.388  1.00  0.00     0.203 HD
HETATM   11  C4  UNL     1      -5.971   8.045  14.606  1.00  0.00     0.712 A 
HETATM   12  N7  UNL     1      -7.118   8.272  13.952  1.00  0.00    -0.178 N 
ATOM     13  H7  UNL     1      -7.392   9.230  13.733  1.00  0.00     0.185 HD
ENDROOT
BRANCH  11  14
HETATM   14  N4  UNL     1      -5.242   9.035  14.943  1.00  0.00    -0.136 N 
ATOM     15  H4  UNL     1      -4.296   8.885  15.292  1.00  0.00     0.205 HD
BRANCH  14  16
HETATM   16  N5  UNL     1      -5.755  10.324  14.827  1.00  0.00    -0.321 N 
ATOM     17  H5  UNL     1      -5.842  10.722  13.892  1.00  0.00     0.180 HD
BRANCH  16  18
HETATM   18  C5  UNL     1      -6.169  11.128  15.945  1.00  0.00     0.167 C 
BRANCH  18  19
HETATM   19  C6  UNL     1      -6.660  10.220  17.046  1.00  0.00     0.250 C 
BRANCH  19  20
HETATM   20  N6  UNL     1      -7.825  10.811  17.682  1.00  0.00    -0.078 N 
ATOM     21  H63 UNL     1      -8.141  10.269  18.487  1.00  0.00     0.274 HD
ATOM     22  H62 UNL     1      -7.599  11.678  18.169  1.00  0.00     0.274 HD
ATOM     23  H61 UNL     1      -8.564  10.940  16.992  1.00  0.00     0.274 HD
ENDBRANCH  19  20
ENDBRANCH  18  19
ENDBRANCH  16  18
ENDBRANCH  14  16
ENDBRANCH  11  14
TORSDOF 5
ENDMDL
