MODEL 1
REMARK VINA RESULT: -6.276077155      0.000      0.000
REMARK  5 active torsions:
REMARK  status: ('A' for Active; 'I' for Inactive)
REMARK    1  A    between atoms: C2_3  and  N2_4 
REMARK    2  A    between atoms: N2_4  and  C3_7 
REMARK    3  A    between atoms: C3_7  and  C4_8 
REMARK    4  A    between atoms: C5_11  and  N4_12 
REMARK    5  A    between atoms: C6_17  and  N6_18 
ROOT
HETATM    1  N1  UNL     1      -3.882  14.472  15.166  1.00  0.00    -0.196 NA
HETATM    2  C1  UNL     1      -4.557  13.600  14.823  1.00  0.00     0.086 C 
HETATM    3  C2  UNL     1      -5.422  12.513  14.371  1.00  0.00     0.356 C 
ENDROOT
BRANCH   3   4
HETATM    4  N2  UNL     1      -5.658  11.525  15.407  1.00  0.00    -0.057 N 
ATOM      5  H22 UNL     1      -4.803  11.237  15.881  1.00  0.00     0.278 HD
ATOM      6  H21 UNL     1      -6.139  11.910  16.220  1.00  0.00     0.278 HD
BRANCH   4   7
HETATM    7  C3  UNL     1      -6.366  10.421  14.810  1.00  0.00     0.310 C 
BRANCH   7   8
HETATM    8  C4  UNL     1      -5.823   9.108  15.238  1.00  0.00     0.139 A 
HETATM    9  N3  UNL     1      -5.700   8.057  14.417  1.00  0.00    -0.178 N 
HETATM   10  C5  UNL     1      -5.199   6.896  14.863  1.00  0.00     0.691 A 
ATOM     11  H3  UNL     1      -5.990   8.141  13.443  1.00  0.00     0.185 HD
HETATM   12  N5  UNL     1      -4.824   6.806  16.145  1.00  0.00    -0.023 N 
HETATM   13  C6  UNL     1      -4.926   7.829  17.009  1.00  0.00     0.691 A 
ATOM     14  H5  UNL     1      -4.444   5.921  16.480  1.00  0.00     0.203 HD
HETATM   15  N7  UNL     1      -5.433   8.974  16.517  1.00  0.00    -0.178 N 
ATOM     16  H7  UNL     1      -5.526   9.776  17.142  1.00  0.00     0.185 HD
BRANCH  10  17
HETATM   17  N4  UNL     1      -5.063   5.856  14.104  1.00  0.00    -0.234 N 
ATOM     18  H42 UNL     1      -5.548   5.841  13.207  1.00  0.00     0.174 HD
ATOM     19  H41 UNL     1      -4.491   5.054  14.367  1.00  0.00     0.174 HD
ENDBRANCH  10  17
BRANCH  13  20
HETATM   20  N6  UNL     1      -4.548   7.694  18.245  1.00  0.00    -0.234 N 
ATOM     21  H62 UNL     1      -4.956   7.009  18.881  1.00  0.00     0.174 HD
ATOM     22  H61 UNL     1      -3.811   8.284  18.632  1.00  0.00     0.174 HD
ENDBRANCH  13  20
ENDBRANCH   7   8
ENDBRANCH   4   7
ENDBRANCH   3   4
TORSDOF 5
ENDMDL
MODEL 2
REMARK VINA RESULT: -6.219224786      0.089      2.208
REMARK  5 active torsions:
REMARK  status: ('A' for Active; 'I' for Inactive)
REMARK    1  A    between atoms: C2_3  and  N2_4 
REMARK    2  A    between atoms: N2_4  and  C3_7 
REMARK    3  A    between atoms: C3_7  and  C4_8 
REMARK    4  A    between atoms: C5_11  and  N4_12 
REMARK    5  A    between atoms: C6_17  and  N6_18 
ROOT
HETATM    1  N1  UNL     1      -3.925  14.525  15.137  1.00  0.00    -0.196 NA
HETATM    2  C1  UNL     1      -4.567  13.625  14.800  1.00  0.00     0.086 C 
HETATM    3  C2  UNL     1      -5.387  12.501  14.354  1.00  0.00     0.356 C 
ENDROOT
BRANCH   3   4
HETATM    4  N2  UNL     1      -5.707  11.586  15.433  1.00  0.00    -0.057 N 
ATOM      5  H22 UNL     1      -4.895  11.343  16.000  1.00  0.00     0.278 HD
ATOM      6  H21 UNL     1      -6.261  12.022  16.171  1.00  0.00     0.278 HD
BRANCH   4   7
HETATM    7  C3  UNL     1      -6.353  10.434  14.857  1.00  0.00     0.310 C 
BRANCH   7   8
HETATM    8  C4  UNL     1      -5.797   9.160  15.377  1.00  0.00     0.139 A 
HETATM    9  N3  UNL     1      -5.420   8.985  16.650  1.00  0.00    -0.178 N 
HETATM   10  C5  UNL     1      -4.926   7.809  17.062  1.00  0.00     0.691 A 
ATOM     11  H3  UNL     1      -5.512   9.755  17.314  1.00  0.00     0.185 HD
HETATM   12  N5  UNL     1      -4.814   6.812  16.176  1.00  0.00    -0.023 N 
HETATM   13  C6  UNL     1      -5.176   6.935  14.889  1.00  0.00     0.691 A 
ATOM     14  H5  UNL     1      -4.438   5.919  16.494  1.00  0.00     0.203 HD
HETATM   15  N7  UNL     1      -5.668   8.133  14.521  1.00  0.00    -0.178 N 
ATOM     16  H7  UNL     1      -5.956   8.266  13.552  1.00  0.00     0.185 HD
BRANCH  10  17
HETATM   17  N4  UNL     1      -4.551   7.597  18.283  1.00  0.00    -0.234 N 
ATOM     18  H42 UNL     1      -5.216   7.777  19.035  1.00  0.00     0.174 HD
ATOM     19  H41 UNL     1      -3.619   7.259  18.522  1.00  0.00     0.174 HD
ENDBRANCH  10  17
BRANCH  13  20
HETATM   20  N6  UNL     1      -5.050   5.937  14.066  1.00  0.00    -0.234 N 
ATOM     21  H62 UNL     1      -5.842   5.503  13.591  1.00  0.00     0.174 HD
ATOM     22  H61 UNL     1      -4.132   5.542  13.862  1.00  0.00     0.174 HD
ENDBRANCH  13  20
ENDBRANCH   7   8
ENDBRANCH   4   7
ENDBRANCH   3   4
TORSDOF 5
ENDMDL
MODEL 3
REMARK VINA RESULT: -6.008831343      1.716      2.540
REMARK  5 active torsions:
REMARK  status: ('A' for Active; 'I' for Inactive)
REMARK    1  A    between atoms: C2_3  and  N2_4 
REMARK    2  A    between atoms: N2_4  and  C3_7 
REMARK    3  A    between atoms: C3_7  and  C4_8 
REMARK    4  A    between atoms: C5_11  and  N4_12 
REMARK    5  A    between atoms: C6_17  and  N6_18 
ROOT
HETATM    1  N1  UNL     1      -3.953  14.311  15.171  1.00  0.00    -0.196 NA
HETATM    2  C1  UNL     1      -4.652  13.482  14.771  1.00  0.00     0.086 C 
HETATM    3  C2  UNL     1      -5.554  12.452  14.262  1.00  0.00     0.356 C 
ENDROOT
BRANCH   3   4
HETATM    4  N2  UNL     1      -5.241  11.135  14.784  1.00  0.00    -0.057 N 
ATOM      5  H22 UNL     1      -4.762  10.544  14.105  1.00  0.00     0.278 HD
ATOM      6  H21 UNL     1      -4.506  11.152  15.490  1.00  0.00     0.278 HD
BRANCH   4   7
HETATM    7  C3  UNL     1      -6.467  10.550  15.267  1.00  0.00     0.310 C 
BRANCH   7   8
HETATM    8  C4  UNL     1      -6.737   9.226  14.653  1.00  0.00     0.139 A 
HETATM    9  N3  UNL     1      -7.909   8.898  14.093  1.00  0.00    -0.178 N 
HETATM   10  C5  UNL     1      -8.093   7.685  13.552  1.00  0.00     0.691 A 
ATOM     11  H3  UNL     1      -8.669   9.579  14.077  1.00  0.00     0.185 HD
HETATM   12  N5  UNL     1      -7.083   6.807  13.582  1.00  0.00    -0.023 N 
HETATM   13  C6  UNL     1      -5.890   7.086  14.131  1.00  0.00     0.691 A 
ATOM     14  H5  UNL     1      -7.227   5.886  13.170  1.00  0.00     0.203 HD
HETATM   15  N7  UNL     1      -5.751   8.315  14.661  1.00  0.00    -0.178 N 
ATOM     16  H7  UNL     1      -4.858   8.566  15.086  1.00  0.00     0.185 HD
BRANCH  10  17
HETATM   17  N4  UNL     1      -9.208   7.328  13.001  1.00  0.00    -0.234 N 
ATOM     18  H42 UNL     1      -9.266   7.315  11.982  1.00  0.00     0.174 HD
ATOM     19  H41 UNL     1     -10.029   7.059  13.543  1.00  0.00     0.174 HD
ENDBRANCH  10  17
BRANCH  13  20
HETATM   20  N6  UNL     1      -4.938   6.200  14.136  1.00  0.00    -0.234 N 
ATOM     21  H62 UNL     1      -3.958   6.435  14.293  1.00  0.00     0.174 HD
ATOM     22  H61 UNL     1      -5.144   5.213  13.976  1.00  0.00     0.174 HD
ENDBRANCH  13  20
ENDBRANCH   7   8
ENDBRANCH   4   7
ENDBRANCH   3   4
TORSDOF 5
ENDMDL
MODEL 4
REMARK VINA RESULT: -5.964483611      1.689      2.723
REMARK  5 active torsions:
REMARK  status: ('A' for Active; 'I' for Inactive)
REMARK    1  A    between atoms: C2_3  and  N2_4 
REMARK    2  A    between atoms: N2_4  and  C3_7 
REMARK    3  A    between atoms: C3_7  and  C4_8 
REMARK    4  A    between atoms: C5_11  and  N4_12 
REMARK    5  A    between atoms: C6_17  and  N6_18 
ROOT
HETATM    1  N1  UNL     1      -3.979  14.317  15.131  1.00  0.00    -0.196 NA
HETATM    2  C1  UNL     1      -4.689  13.487  14.753  1.00  0.00     0.086 C 
HETATM    3  C2  UNL     1      -5.606  12.456  14.272  1.00  0.00     0.356 C 
ENDROOT
BRANCH   3   4
HETATM    4  N2  UNL     1      -5.249  11.132  14.746  1.00  0.00    -0.057 N 
ATOM      5  H22 UNL     1      -4.751  10.582  14.047  1.00  0.00     0.278 HD
ATOM      6  H21 UNL     1      -4.513  11.149  15.452  1.00  0.00     0.278 HD
BRANCH   4   7
HETATM    7  C3  UNL     1      -6.453  10.491  15.210  1.00  0.00     0.310 C 
BRANCH   7   8
HETATM    8  C4  UNL     1      -6.611   9.124  14.652  1.00  0.00     0.139 A 
HETATM    9  N3  UNL     1      -5.642   8.200  14.678  1.00  0.00    -0.178 N 
HETATM   10  C5  UNL     1      -5.845   6.981  14.160  1.00  0.00     0.691 A 
ATOM     11  H3  UNL     1      -4.740   8.427  15.098  1.00  0.00     0.185 HD
HETATM   12  N5  UNL     1      -7.036   6.704  13.614  1.00  0.00    -0.023 N 
HETATM   13  C6  UNL     1      -8.040   7.594  13.562  1.00  0.00     0.691 A 
ATOM     14  H5  UNL     1      -7.186   5.775  13.220  1.00  0.00     0.203 HD
HETATM   15  N7  UNL     1      -7.791   8.804  14.096  1.00  0.00    -0.178 N 
ATOM     16  H7  UNL     1      -8.529   9.508  14.077  1.00  0.00     0.185 HD
BRANCH  10  17
HETATM   17  N4  UNL     1      -4.937   6.059  14.164  1.00  0.00    -0.234 N 
ATOM     18  H42 UNL     1      -4.180   6.125  14.844  1.00  0.00     0.174 HD
ATOM     19  H41 UNL     1      -4.948   5.272  13.516  1.00  0.00     0.174 HD
ENDBRANCH  10  17
BRANCH  13  20
HETATM   20  N6  UNL     1      -9.180   7.277  13.023  1.00  0.00    -0.234 N 
ATOM     21  H62 UNL     1      -9.368   6.362  12.612  1.00  0.00     0.174 HD
ATOM     22  H61 UNL     1      -9.945   7.951  12.989  1.00  0.00     0.174 HD
ENDBRANCH  13  20
ENDBRANCH   7   8
ENDBRANCH   4   7
ENDBRANCH   3   4
TORSDOF 5
ENDMDL
MODEL 5
REMARK VINA RESULT: -5.865239104      2.231      4.927
REMARK  5 active torsions:
REMARK  status: ('A' for Active; 'I' for Inactive)
REMARK    1  A    between atoms: C2_3  and  N2_4 
REMARK    2  A    between atoms: N2_4  and  C3_7 
REMARK    3  A    between atoms: C3_7  and  C4_8 
REMARK    4  A    between atoms: C5_11  and  N4_12 
REMARK    5  A    between atoms: C6_17  and  N6_18 
ROOT
HETATM    1  N1  UNL     1      -4.763   6.163  14.227  1.00  0.00    -0.196 NA
HETATM    2  C1  UNL     1      -5.867   6.486  14.119  1.00  0.00     0.086 C 
HETATM    3  C2  UNL     1      -7.271   6.872  13.991  1.00  0.00     0.356 C 
ENDROOT
BRANCH   3   4
HETATM    4  N2  UNL     1      -7.467   7.937  13.025  1.00  0.00    -0.057 N 
ATOM      5  H22 UNL     1      -6.591   8.283  12.634  1.00  0.00     0.278 HD
ATOM      6  H21 UNL     1      -7.883   7.610  12.153  1.00  0.00     0.278 HD
BRANCH   4   7
HETATM    7  C3  UNL     1      -8.243   8.971  13.662  1.00  0.00     0.310 C 
BRANCH   7   8
HETATM    8  C4  UNL     1      -7.411   9.847  14.523  1.00  0.00     0.139 A 
HETATM    9  N3  UNL     1      -6.385  10.575  14.062  1.00  0.00    -0.178 N 
HETATM   10  C5  UNL     1      -5.670  11.351  14.889  1.00  0.00     0.691 A 
ATOM     11  H3  UNL     1      -6.145  10.539  13.070  1.00  0.00     0.185 HD
HETATM   12  N5  UNL     1      -6.000  11.384  16.186  1.00  0.00    -0.023 N 
HETATM   13  C6  UNL     1      -7.018  10.675  16.699  1.00  0.00     0.691 A 
ATOM     14  H5  UNL     1      -5.453  11.976  16.812  1.00  0.00     0.203 HD
HETATM   15  N7  UNL     1      -7.708   9.911  15.831  1.00  0.00    -0.178 N 
ATOM     16  H7  UNL     1      -8.490   9.358  16.181  1.00  0.00     0.185 HD
BRANCH  10  17
HETATM   17  N4  UNL     1      -4.672  12.069  14.486  1.00  0.00    -0.234 N 
ATOM     18  H42 UNL     1      -3.876  11.600  14.054  1.00  0.00     0.174 HD
ATOM     19  H41 UNL     1      -4.650  13.084  14.582  1.00  0.00     0.174 HD
ENDBRANCH  10  17
BRANCH  13  20
HETATM   20  N6  UNL     1      -7.301  10.741  17.966  1.00  0.00    -0.234 N 
ATOM     21  H62 UNL     1      -7.374  11.622  18.475  1.00  0.00     0.174 HD
ATOM     22  H61 UNL     1      -7.463   9.892  18.509  1.00  0.00     0.174 HD
ENDBRANCH  13  20
ENDBRANCH   7   8
ENDBRANCH   4   7
ENDBRANCH   3   4
TORSDOF 5
ENDMDL
