MODEL 1
REMARK VINA RESULT: -4.716248737      0.000      0.000
REMARK  5 active torsions:
REMARK  status: ('A' for Active; 'I' for Inactive)
REMARK    1  A    between atoms: O1_2  and  C2_3 
REMARK    2  A    between atoms: C2_3  and  O3_5 
REMARK    3  A    between atoms: O3_5  and  C3_6 
REMARK    4  A    between atoms: C5_8  and  O4_9 
REMARK    5  A    between atoms: C7_14  and  N2_15 
ROOT
HETATM    1  C3  UNL     1      20.035   0.075  24.603  1.00  0.00     0.149 C 
HETATM    2  C4  UNL     1      20.354   1.446  25.082  1.00  0.00     0.072 C 
HETATM    3  C5  UNL     1      21.409   1.517  26.129  1.00  0.00     0.171 C 
HETATM    4  C6  UNL     1      22.690   0.966  25.489  1.00  0.00     0.054 A 
HETATM    5  N1  UNL     1      23.912   1.468  25.481  1.00  0.00    -0.337 N 
ATOM      6  H1  UNL     1      24.115   2.352  25.946  1.00  0.00     0.168 HD
HETATM    7  C7  UNL     1      24.872   0.797  24.851  1.00  0.00     0.142 A 
HETATM    8  S1  UNL     1      24.065  -0.571  24.250  1.00  0.00    -0.056 SA
HETATM    9  C8  UNL     1      22.500  -0.224  24.840  1.00  0.00     0.022 A 
HETATM   10  C9  UNL     1      21.152  -0.912  24.774  1.00  0.00     0.015 C 
HETATM   11  C10 UNL     1      21.248  -1.799  23.520  1.00  0.00     0.023 C 
HETATM   12  C11 UNL     1      20.957  -1.858  25.926  1.00  0.00     0.023 C 
ENDROOT
BRANCH   1  13
HETATM   13  O3  UNL     1      19.709   0.138  23.230  1.00  0.00    -0.291 OA
BRANCH  13  14
HETATM   14  C2  UNL     1      18.928   1.136  22.676  1.00  0.00     0.406 C 
HETATM   15  O2  UNL     1      19.481   2.076  22.085  1.00  0.00    -0.230 OA
BRANCH  14  16
HETATM   16  O1  UNL     1      17.555   1.099  22.774  1.00  0.00    -0.303 OA
HETATM   17  C1  UNL     1      16.705   1.500  21.695  1.00  0.00     0.215 C 
ENDBRANCH  14  16
ENDBRANCH  13  14
ENDBRANCH   1  13
BRANCH   3  18
HETATM   18  O4  UNL     1      21.126   0.899  27.316  1.00  0.00    -0.389 OA
ATOM     19  H4  UNL     1      21.484   0.027  27.432  1.00  0.00     0.210 HD
ENDBRANCH   3  18
BRANCH   7  20
HETATM   20  N2  UNL     1      26.135   1.148  24.743  1.00  0.00    -0.380 N 
ATOM     21  H22 UNL     1      26.591   2.031  24.973  1.00  0.00     0.158 HD
ATOM     22  H21 UNL     1      26.901   0.569  24.397  1.00  0.00     0.158 HD
ENDBRANCH   7  20
TORSDOF 5
ENDMDL
MODEL 2
REMARK VINA RESULT: -4.131563404      2.594      3.479
REMARK  5 active torsions:
REMARK  status: ('A' for Active; 'I' for Inactive)
REMARK    1  A    between atoms: O1_2  and  C2_3 
REMARK    2  A    between atoms: C2_3  and  O3_5 
REMARK    3  A    between atoms: O3_5  and  C3_6 
REMARK    4  A    between atoms: C5_8  and  O4_9 
REMARK    5  A    between atoms: C7_14  and  N2_15 
ROOT
HETATM    1  C3  UNL     1      20.820   0.566  25.438  1.00  0.00     0.149 C 
HETATM    2  C4  UNL     1      21.589   1.350  24.437  1.00  0.00     0.072 C 
HETATM    3  C5  UNL     1      22.462   2.413  25.004  1.00  0.00     0.171 C 
HETATM    4  C6  UNL     1      23.492   1.700  25.889  1.00  0.00     0.054 A 
HETATM    5  N1  UNL     1      24.806   1.836  25.932  1.00  0.00    -0.337 N 
ATOM      6  H1  UNL     1      25.281   2.495  25.315  1.00  0.00     0.168 HD
HETATM    7  C7  UNL     1      25.495   1.097  26.795  1.00  0.00     0.142 A 
HETATM    8  S1  UNL     1      24.295   0.182  27.574  1.00  0.00    -0.056 SA
HETATM    9  C8  UNL     1      22.931   0.794  26.747  1.00  0.00     0.022 A 
HETATM   10  C9  UNL     1      21.439   0.539  26.805  1.00  0.00     0.015 C 
HETATM   11  C10 UNL     1      21.326  -0.879  27.391  1.00  0.00     0.023 C 
HETATM   12  C11 UNL     1      20.761   1.443  27.798  1.00  0.00     0.023 C 
ENDROOT
BRANCH   1  13
HETATM   13  O3  UNL     1      20.704  -0.766  24.982  1.00  0.00    -0.291 OA
BRANCH  13  14
HETATM   14  C2  UNL     1      21.519  -1.311  24.007  1.00  0.00     0.406 C 
HETATM   15  O2  UNL     1      21.096  -1.391  22.843  1.00  0.00    -0.230 OA
BRANCH  14  16
HETATM   16  O1  UNL     1      22.783  -1.764  24.311  1.00  0.00    -0.303 OA
HETATM   17  C1  UNL     1      23.947  -1.283  23.631  1.00  0.00     0.215 C 
ENDBRANCH  14  16
ENDBRANCH  13  14
ENDBRANCH   1  13
BRANCH   3  18
HETATM   18  O4  UNL     1      21.827   3.423  25.675  1.00  0.00    -0.389 OA
ATOM     19  H4  UNL     1      21.713   3.300  26.609  1.00  0.00     0.210 HD
ENDBRANCH   3  18
BRANCH   7  20
HETATM   20  N2  UNL     1      26.799   1.104  26.971  1.00  0.00    -0.380 N 
ATOM     21  H22 UNL     1      27.533   1.536  26.409  1.00  0.00     0.158 HD
ATOM     22  H21 UNL     1      27.314   0.660  27.731  1.00  0.00     0.158 HD
ENDBRANCH   7  20
TORSDOF 5
ENDMDL
MODEL 3
REMARK VINA RESULT: -3.938116799      2.060      2.773
REMARK  5 active torsions:
REMARK  status: ('A' for Active; 'I' for Inactive)
REMARK    1  A    between atoms: O1_2  and  C2_3 
REMARK    2  A    between atoms: C2_3  and  O3_5 
REMARK    3  A    between atoms: O3_5  and  C3_6 
REMARK    4  A    between atoms: C5_8  and  O4_9 
REMARK    5  A    between atoms: C7_14  and  N2_15 
ROOT
HETATM    1  C3  UNL     1      20.881   1.080  25.641  1.00  0.00     0.149 C 
HETATM    2  C4  UNL     1      21.683   2.014  24.809  1.00  0.00     0.072 C 
HETATM    3  C5  UNL     1      22.462   3.027  25.572  1.00  0.00     0.171 C 
HETATM    4  C6  UNL     1      23.458   2.245  26.436  1.00  0.00     0.054 A 
HETATM    5  N1  UNL     1      24.757   2.424  26.597  1.00  0.00    -0.337 N 
ATOM      6  H1  UNL     1      25.244   3.173  26.107  1.00  0.00     0.168 HD
HETATM    7  C7  UNL     1      25.416   1.605  27.412  1.00  0.00     0.142 A 
HETATM    8  S1  UNL     1      24.208   0.553  27.974  1.00  0.00    -0.056 SA
HETATM    9  C8  UNL     1      22.879   1.215  27.128  1.00  0.00     0.022 A 
HETATM   10  C9  UNL     1      21.401   0.900  27.037  1.00  0.00     0.015 C 
HETATM   11  C10 UNL     1      21.312  -0.586  27.430  1.00  0.00     0.023 C 
HETATM   12  C11 UNL     1      20.612   1.642  28.080  1.00  0.00     0.023 C 
ENDROOT
BRANCH   1  13
HETATM   13  O3  UNL     1      20.861  -0.185  25.013  1.00  0.00    -0.291 OA
BRANCH  13  14
HETATM   14  C2  UNL     1      20.231  -0.427  23.806  1.00  0.00     0.406 C 
HETATM   15  O2  UNL     1      20.809  -1.117  22.952  1.00  0.00    -0.230 OA
BRANCH  14  16
HETATM   16  O1  UNL     1      18.980   0.086  23.542  1.00  0.00    -0.303 OA
HETATM   17  C1  UNL     1      18.781   1.174  22.636  1.00  0.00     0.215 C 
ENDBRANCH  14  16
ENDBRANCH  13  14
ENDBRANCH   1  13
BRANCH   3  18
HETATM   18  O4  UNL     1      21.734   3.918  26.313  1.00  0.00    -0.389 OA
ATOM     19  H4  UNL     1      21.622   4.783  25.938  1.00  0.00     0.210 HD
ENDBRANCH   3  18
BRANCH   7  20
HETATM   20  N2  UNL     1      26.703   1.638  27.687  1.00  0.00    -0.380 N 
ATOM     21  H22 UNL     1      27.392   2.368  27.507  1.00  0.00     0.158 HD
ATOM     22  H21 UNL     1      27.246   0.908  28.148  1.00  0.00     0.158 HD
ENDBRANCH   7  20
TORSDOF 5
ENDMDL
MODEL 4
REMARK VINA RESULT: -3.826741577      2.137      3.220
REMARK  5 active torsions:
REMARK  status: ('A' for Active; 'I' for Inactive)
REMARK    1  A    between atoms: O1_2  and  C2_3 
REMARK    2  A    between atoms: C2_3  and  O3_5 
REMARK    3  A    between atoms: O3_5  and  C3_6 
REMARK    4  A    between atoms: C5_8  and  O4_9 
REMARK    5  A    between atoms: C7_14  and  N2_15 
ROOT
HETATM    1  C3  UNL     1      22.347   0.838  26.908  1.00  0.00     0.149 C 
HETATM    2  C4  UNL     1      22.933   1.918  26.072  1.00  0.00     0.072 C 
HETATM    3  C5  UNL     1      24.310   1.653  25.574  1.00  0.00     0.171 C 
HETATM    4  C6  UNL     1      24.214   0.410  24.680  1.00  0.00     0.054 A 
HETATM    5  N1  UNL     1      24.690   0.206  23.465  1.00  0.00    -0.337 N 
ATOM      6  H1  UNL     1      25.212   0.937  22.981  1.00  0.00     0.168 HD
HETATM    7  C7  UNL     1      24.476  -0.971  22.887  1.00  0.00     0.142 A 
HETATM    8  S1  UNL     1      23.587  -1.827  24.053  1.00  0.00    -0.056 SA
HETATM    9  C8  UNL     1      23.524  -0.619  25.261  1.00  0.00     0.022 A 
HETATM   10  C9  UNL     1      22.926  -0.522  26.649  1.00  0.00     0.015 C 
HETATM   11  C10 UNL     1      21.797  -1.567  26.643  1.00  0.00     0.023 C 
HETATM   12  C11 UNL     1      23.896  -0.981  27.703  1.00  0.00     0.023 C 
ENDROOT
BRANCH   1  13
HETATM   13  O3  UNL     1      20.957   0.778  26.664  1.00  0.00    -0.291 OA
BRANCH  13  14
HETATM   14  C2  UNL     1      20.267   1.736  25.945  1.00  0.00     0.406 C 
HETATM   15  O2  UNL     1      19.886   2.765  26.523  1.00  0.00    -0.230 OA
BRANCH  14  16
HETATM   16  O1  UNL     1      19.999   1.562  24.605  1.00  0.00    -0.303 OA
HETATM   17  C1  UNL     1      19.966   0.267  23.998  1.00  0.00     0.215 C 
ENDBRANCH  14  16
ENDBRANCH  13  14
ENDBRANCH   1  13
BRANCH   3  18
HETATM   18  O4  UNL     1      25.283   1.521  26.527  1.00  0.00    -0.389 OA
ATOM     19  H4  UNL     1      25.518   2.310  26.999  1.00  0.00     0.210 HD
ENDBRANCH   3  18
BRANCH   7  20
HETATM   20  N2  UNL     1      24.876  -1.344  21.689  1.00  0.00    -0.380 N 
ATOM     21  H22 UNL     1      25.466  -0.856  21.016  1.00  0.00     0.158 HD
ATOM     22  H21 UNL     1      24.652  -2.219  21.217  1.00  0.00     0.158 HD
ENDBRANCH   7  20
TORSDOF 5
ENDMDL
MODEL 5
REMARK VINA RESULT: -3.818161409     10.464     11.731
REMARK  5 active torsions:
REMARK  status: ('A' for Active; 'I' for Inactive)
REMARK    1  A    between atoms: O1_2  and  C2_3 
REMARK    2  A    between atoms: C2_3  and  O3_5 
REMARK    3  A    between atoms: O3_5  and  C3_6 
REMARK    4  A    between atoms: C5_8  and  O4_9 
REMARK    5  A    between atoms: C7_14  and  N2_15 
ROOT
HETATM    1  C3  UNL     1      24.176   7.256  15.217  1.00  0.00     0.149 C 
HETATM    2  C4  UNL     1      24.175   5.857  15.718  1.00  0.00     0.072 C 
HETATM    3  C5  UNL     1      24.693   5.683  17.102  1.00  0.00     0.171 C 
HETATM    4  C6  UNL     1      23.753   6.477  18.018  1.00  0.00     0.054 A 
HETATM    5  N1  UNL     1      23.165   6.112  19.143  1.00  0.00    -0.337 N 
ATOM      6  H1  UNL     1      23.306   5.178  19.525  1.00  0.00     0.168 HD
HETATM    7  C7  UNL     1      22.384   6.989  19.766  1.00  0.00     0.142 A 
HETATM    8  S1  UNL     1      22.461   8.362  18.770  1.00  0.00    -0.056 SA
HETATM    9  C8  UNL     1      23.511   7.748  17.570  1.00  0.00     0.022 A 
HETATM   10  C9  UNL     1      24.123   8.296  16.297  1.00  0.00     0.015 C 
HETATM   11  C10 UNL     1      23.162   9.422  15.878  1.00  0.00     0.023 C 
HETATM   12  C11 UNL     1      25.442   8.967  16.562  1.00  0.00     0.023 C 
ENDROOT
BRANCH   1  13
HETATM   13  O3  UNL     1      23.056   7.438  14.375  1.00  0.00    -0.291 OA
BRANCH  13  14
HETATM   14  C2  UNL     1      23.154   7.728  13.027  1.00  0.00     0.406 C 
HETATM   15  O2  UNL     1      22.150   8.135  12.423  1.00  0.00    -0.230 OA
BRANCH  14  16
HETATM   16  O1  UNL     1      24.345   7.571  12.352  1.00  0.00    -0.303 OA
HETATM   17  C1  UNL     1      24.424   7.637  10.926  1.00  0.00     0.215 C 
ENDBRANCH  14  16
ENDBRANCH  13  14
ENDBRANCH   1  13
BRANCH   3  18
HETATM   18  O4  UNL     1      26.005   6.018  17.304  1.00  0.00    -0.389 OA
ATOM     19  H4  UNL     1      26.492   5.463  17.900  1.00  0.00     0.210 HD
ENDBRANCH   3  18
BRANCH   7  20
HETATM   20  N2  UNL     1      21.724   6.796  20.889  1.00  0.00    -0.380 N 
ATOM     21  H22 UNL     1      22.074   6.629  21.832  1.00  0.00     0.158 HD
ATOM     22  H21 UNL     1      20.711   6.782  21.005  1.00  0.00     0.158 HD
ENDBRANCH   7  20
TORSDOF 5
ENDMDL
