MODEL 1
REMARK VINA RESULT: -5.689164500      0.000      0.000
REMARK  2 active torsions:
REMARK  status: ('A' for Active; 'I' for Inactive)
REMARK    1  A    between atoms: N2_14  and  O2_16 
REMARK    2  A    between atoms: C11_22  and  N4_23 
ROOT
HETATM    1  C1  UNL     1      23.233   9.055  20.871  1.00  0.00     0.030 C 
HETATM    2  C2  UNL     1      22.453   7.909  20.345  1.00  0.00     0.045 C 
HETATM    3  C3  UNL     1      23.229   6.792  19.782  1.00  0.00     0.060 C 
HETATM    4  C4  UNL     1      23.812   7.081  18.419  1.00  0.00     0.166 C 
HETATM    5  O1  UNL     1      24.288   5.855  17.878  1.00  0.00    -0.329 OA
HETATM    6  C5  UNL     1      24.466   5.689  16.519  1.00  0.00     0.115 C 
HETATM    7  N1  UNL     1      25.054   4.646  16.082  1.00  0.00    -0.383 N 
ATOM      8  H11 UNL     1      25.186   4.524  15.078  1.00  0.00     0.157 HD
ATOM      9  H12 UNL     1      25.394   3.934  16.728  1.00  0.00     0.157 HD
HETATM   10  C6  UNL     1      23.978   6.710  15.594  1.00  0.00     0.111 C 
HETATM   11  C7  UNL     1      23.002   7.636  16.221  1.00  0.00    -0.007 C 
HETATM   12  C8  UNL     1      22.917   7.816  17.531  1.00  0.00    -0.005 C 
HETATM   13  C9  UNL     1      21.930   8.759  18.105  1.00  0.00     0.072 C 
HETATM   14  N2  UNL     1      21.664   9.851  17.504  1.00  0.00    -0.271 N 
ATOM     15  H2  UNL     1      20.974  10.447  17.961  1.00  0.00     0.194 HD
HETATM   16  C10 UNL     1      21.340   8.344  19.381  1.00  0.00     0.259 C 
HETATM   17  N3  UNL     1      20.575   9.312  20.083  1.00  0.00    -0.026 N 
ATOM     18  H31 UNL     1      19.927   9.847  19.505  1.00  0.00     0.281 HD
ATOM     19  H32 UNL     1      21.104  10.119  20.414  1.00  0.00     0.281 HD
HETATM   20  C11 UNL     1      19.939   8.510  21.146  1.00  0.00     0.444 C 
HETATM   21  S1  UNL     1      21.299   7.381  21.679  1.00  0.00    -0.096 SA
ENDROOT
BRANCH  14  22
HETATM   22  O2  UNL     1      22.166  10.327  16.351  1.00  0.00    -0.290 OA
ATOM     23  H2  UNL     1      22.530  11.185  16.166  1.00  0.00     0.244 HD
ENDBRANCH  14  22
BRANCH  20  24
HETATM   24  N4  UNL     1      18.812   7.778  20.671  1.00  0.00    -0.041 N 
ATOM     25  H43 UNL     1      18.031   7.836  21.326  1.00  0.00     0.277 HD
ATOM     26  H42 UNL     1      18.384   8.241  19.868  1.00  0.00     0.277 HD
ATOM     27  H41 UNL     1      19.042   6.808  20.457  1.00  0.00     0.277 HD
ENDBRANCH  20  24
TORSDOF 2
ENDMDL
MODEL 2
REMARK VINA RESULT: -4.118429443      0.956      1.019
REMARK  2 active torsions:
REMARK  status: ('A' for Active; 'I' for Inactive)
REMARK    1  A    between atoms: N2_14  and  O2_16 
REMARK    2  A    between atoms: C11_22  and  N4_23 
ROOT
HETATM    1  C1  UNL     1      23.695   8.446  20.969  1.00  0.00     0.030 C 
HETATM    2  C2  UNL     1      22.707   7.436  20.518  1.00  0.00     0.045 C 
HETATM    3  C3  UNL     1      23.243   6.119  20.142  1.00  0.00     0.060 C 
HETATM    4  C4  UNL     1      23.940   6.105  18.801  1.00  0.00     0.166 C 
HETATM    5  O1  UNL     1      24.158   4.748  18.436  1.00  0.00    -0.329 OA
HETATM    6  C5  UNL     1      24.360   4.380  17.121  1.00  0.00     0.115 C 
HETATM    7  N1  UNL     1      24.723   3.190  16.847  1.00  0.00    -0.383 N 
ATOM      8  H11 UNL     1      24.873   2.918  15.874  1.00  0.00     0.157 HD
ATOM      9  H12 UNL     1      24.867   2.507  17.591  1.00  0.00     0.157 HD
HETATM   10  C6  UNL     1      24.154   5.358  16.054  1.00  0.00     0.111 C 
HETATM   11  C7  UNL     1      23.378   6.542  16.501  1.00  0.00    -0.007 C 
HETATM   12  C8  UNL     1      23.273   6.898  17.773  1.00  0.00    -0.005 C 
HETATM   13  C9  UNL     1      22.492   8.094  18.165  1.00  0.00     0.072 C 
HETATM   14  N2  UNL     1      22.502   9.134  17.429  1.00  0.00    -0.271 N 
ATOM     15  H2  UNL     1      21.940   9.915  17.765  1.00  0.00     0.194 HD
HETATM   16  C10 UNL     1      21.764   7.976  19.432  1.00  0.00     0.259 C 
HETATM   17  N3  UNL     1      21.200   9.165  19.964  1.00  0.00    -0.026 N 
ATOM     18  H31 UNL     1      20.714   9.750  19.285  1.00  0.00     0.281 HD
ATOM     19  H32 UNL     1      21.878   9.875  20.241  1.00  0.00     0.281 HD
HETATM   20  C11 UNL     1      20.352   8.655  21.060  1.00  0.00     0.444 C 
HETATM   21  S1  UNL     1      21.403   7.337  21.814  1.00  0.00    -0.096 SA
ENDROOT
BRANCH  14  22
HETATM   22  O2  UNL     1      23.152   9.345  16.270  1.00  0.00    -0.290 OA
ATOM     23  H2  UNL     1      22.957   9.968  15.580  1.00  0.00     0.244 HD
ENDBRANCH  14  22
BRANCH  20  24
HETATM   24  N4  UNL     1      19.115   8.128  20.587  1.00  0.00    -0.041 N 
ATOM     25  H43 UNL     1      19.257   7.255  20.077  1.00  0.00     0.277 HD
ATOM     26  H42 UNL     1      18.546   7.776  21.357  1.00  0.00     0.277 HD
ATOM     27  H41 UNL     1      18.597   8.803  20.025  1.00  0.00     0.277 HD
ENDBRANCH  20  24
TORSDOF 2
ENDMDL
MODEL 3
REMARK VINA RESULT: -3.710072099      9.516     11.228
REMARK  2 active torsions:
REMARK  status: ('A' for Active; 'I' for Inactive)
REMARK    1  A    between atoms: N2_14  and  O2_16 
REMARK    2  A    between atoms: C11_22  and  N4_23 
ROOT
HETATM    1  C1  UNL     1      23.767   1.351  24.382  1.00  0.00     0.030 C 
HETATM    2  C2  UNL     1      23.031   0.875  25.578  1.00  0.00     0.045 C 
HETATM    3  C3  UNL     1      21.647   1.352  25.727  1.00  0.00     0.060 C 
HETATM    4  C4  UNL     1      21.543   2.790  26.177  1.00  0.00     0.166 C 
HETATM    5  O1  UNL     1      20.193   3.036  26.547  1.00  0.00    -0.329 OA
HETATM    6  C5  UNL     1      19.855   4.074  27.392  1.00  0.00     0.115 C 
HETATM    7  N1  UNL     1      18.629   4.375  27.565  1.00  0.00    -0.383 N 
ATOM      8  H11 UNL     1      18.379   5.143  28.189  1.00  0.00     0.157 HD
ATOM      9  H12 UNL     1      17.895   3.856  27.083  1.00  0.00     0.157 HD
HETATM   10  C6  UNL     1      20.907   4.819  28.082  1.00  0.00     0.111 C 
HETATM   11  C7  UNL     1      22.211   4.111  28.077  1.00  0.00    -0.007 C 
HETATM   12  C8  UNL     1      22.517   3.168  27.197  1.00  0.00    -0.005 C 
HETATM   13  C9  UNL     1      23.838   2.498  27.230  1.00  0.00     0.072 C 
HETATM   14  N2  UNL     1      24.884   3.161  27.529  1.00  0.00    -0.271 N 
ATOM     15  H2  UNL     1      25.755   2.630  27.532  1.00  0.00     0.194 HD
HETATM   16  C10 UNL     1      23.824   1.075  26.878  1.00  0.00     0.259 C 
HETATM   17  N3  UNL     1      25.081   0.451  26.666  1.00  0.00    -0.026 N 
ATOM     18  H31 UNL     1      25.794   0.678  27.359  1.00  0.00     0.281 HD
ATOM     19  H32 UNL     1      25.604   0.803  25.865  1.00  0.00     0.281 HD
HETATM   20  C11 UNL     1      24.721  -0.979  26.593  1.00  0.00     0.444 C 
HETATM   21  S1  UNL     1      23.164  -0.961  25.602  1.00  0.00    -0.096 SA
ENDROOT
BRANCH  14  22
HETATM   22  O2  UNL     1      25.001   4.464  27.842  1.00  0.00    -0.290 OA
ATOM     23  H2  UNL     1      25.386   5.169  27.335  1.00  0.00     0.244 HD
ENDBRANCH  14  22
BRANCH  20  24
HETATM   24  N4  UNL     1      24.512  -1.551  27.882  1.00  0.00    -0.041 N 
ATOM     25  H43 UNL     1      24.971  -1.000  28.609  1.00  0.00     0.277 HD
ATOM     26  H42 UNL     1      23.543  -1.439  28.181  1.00  0.00     0.277 HD
ATOM     27  H41 UNL     1      24.801  -2.528  27.923  1.00  0.00     0.277 HD
ENDBRANCH  20  24
TORSDOF 2
ENDMDL
MODEL 4
REMARK VINA RESULT: -3.624708634      2.113      3.347
REMARK  2 active torsions:
REMARK  status: ('A' for Active; 'I' for Inactive)
REMARK    1  A    between atoms: N2_14  and  O2_16 
REMARK    2  A    between atoms: C11_22  and  N4_23 
ROOT
HETATM    1  C1  UNL     1      20.271   7.345  18.915  1.00  0.00     0.030 C 
HETATM    2  C2  UNL     1      21.441   8.245  18.773  1.00  0.00     0.045 C 
HETATM    3  C3  UNL     1      21.817   8.618  17.400  1.00  0.00     0.060 C 
HETATM    4  C4  UNL     1      22.514   7.515  16.639  1.00  0.00     0.166 C 
HETATM    5  O1  UNL     1      23.063   8.080  15.456  1.00  0.00    -0.329 OA
HETATM    6  C5  UNL     1      24.103   7.472  14.783  1.00  0.00     0.115 C 
HETATM    7  N1  UNL     1      24.456   7.907  13.638  1.00  0.00    -0.383 N 
ATOM      8  H11 UNL     1      25.225   7.457  13.141  1.00  0.00     0.157 HD
ATOM      9  H12 UNL     1      23.975   8.700  13.215  1.00  0.00     0.157 HD
HETATM   10  C6  UNL     1      24.793   6.334  15.390  1.00  0.00     0.111 C 
HETATM   11  C7  UNL     1      24.527   6.210  16.845  1.00  0.00    -0.007 C 
HETATM   12  C8  UNL     1      23.472   6.753  17.434  1.00  0.00    -0.005 C 
HETATM   13  C9  UNL     1      23.248   6.592  18.890  1.00  0.00     0.072 C 
HETATM   14  N2  UNL     1      23.542   5.492  19.464  1.00  0.00    -0.271 N 
ATOM     15  H2  UNL     1      23.360   5.459  20.467  1.00  0.00     0.194 HD
HETATM   16  C10 UNL     1      22.663   7.754  19.563  1.00  0.00     0.259 C 
HETATM   17  N3  UNL     1      22.214   7.568  20.897  1.00  0.00    -0.026 N 
ATOM     18  H31 UNL     1      22.854   7.048  21.496  1.00  0.00     0.281 HD
ATOM     19  H32 UNL     1      21.432   6.921  21.000  1.00  0.00     0.281 HD
HETATM   20  C11 UNL     1      21.937   8.950  21.339  1.00  0.00     0.444 C 
HETATM   21  S1  UNL     1      21.137   9.703  19.856  1.00  0.00    -0.096 SA
ENDROOT
BRANCH  14  22
HETATM   22  O2  UNL     1      24.057   4.370  18.931  1.00  0.00    -0.290 OA
ATOM     23  H2  UNL     1      23.606   3.636  18.531  1.00  0.00     0.244 HD
ENDBRANCH  14  22
BRANCH  20  24
HETATM   24  N4  UNL     1      23.125   9.649  21.702  1.00  0.00    -0.041 N 
ATOM     25  H43 UNL     1      23.609  10.007  20.877  1.00  0.00     0.277 HD
ATOM     26  H42 UNL     1      22.906  10.535  22.158  1.00  0.00     0.277 HD
ATOM     27  H41 UNL     1      23.747   9.082  22.277  1.00  0.00     0.277 HD
ENDBRANCH  20  24
TORSDOF 2
ENDMDL
MODEL 5
REMARK VINA RESULT: -3.525703769      9.382     11.069
REMARK  2 active torsions:
REMARK  status: ('A' for Active; 'I' for Inactive)
REMARK    1  A    between atoms: N2_14  and  O2_16 
REMARK    2  A    between atoms: C11_22  and  N4_23 
ROOT
HETATM    1  C1  UNL     1      22.625   2.408  27.877  1.00  0.00     0.030 C 
HETATM    2  C2  UNL     1      23.122   1.905  26.574  1.00  0.00     0.045 C 
HETATM    3  C3  UNL     1      22.393   2.354  25.377  1.00  0.00     0.060 C 
HETATM    4  C4  UNL     1      21.059   1.670  25.186  1.00  0.00     0.166 C 
HETATM    5  O1  UNL     1      20.595   1.978  23.878  1.00  0.00    -0.329 OA
HETATM    6  C5  UNL     1      19.662   1.185  23.240  1.00  0.00     0.115 C 
HETATM    7  N1  UNL     1      19.139   1.579  22.147  1.00  0.00    -0.383 N 
ATOM      8  H11 UNL     1      18.449   0.993  21.676  1.00  0.00     0.157 HD
ATOM      9  H12 UNL     1      19.404   2.476  21.739  1.00  0.00     0.157 HD
HETATM   10  C6  UNL     1      19.282  -0.100  23.824  1.00  0.00     0.111 C 
HETATM   11  C7  UNL     1      20.241  -0.570  24.854  1.00  0.00    -0.007 C 
HETATM   12  C8  UNL     1      21.070   0.244  25.493  1.00  0.00    -0.005 C 
HETATM   13  C9  UNL     1      22.002  -0.275  26.520  1.00  0.00     0.072 C 
HETATM   14  N2  UNL     1      21.636  -1.214  27.301  1.00  0.00    -0.271 N 
ATOM     15  H2  UNL     1      22.333  -1.517  27.980  1.00  0.00     0.194 HD
HETATM   16  C10 UNL     1      23.312   0.381  26.563  1.00  0.00     0.259 C 
HETATM   17  N3  UNL     1      24.146   0.085  27.672  1.00  0.00    -0.026 N 
ATOM     18  H31 UNL     1      24.193  -0.903  27.922  1.00  0.00     0.281 HD
ATOM     19  H32 UNL     1      23.787   0.399  28.574  1.00  0.00     0.281 HD
HETATM   20  C11 UNL     1      25.435   0.686  27.275  1.00  0.00     0.444 C 
HETATM   21  S1  UNL     1      24.923   2.281  26.500  1.00  0.00    -0.096 SA
ENDROOT
BRANCH  14  22
HETATM   22  O2  UNL     1      20.457  -1.859  27.355  1.00  0.00    -0.290 OA
ATOM     23  H2  UNL     1      19.803  -1.854  28.044  1.00  0.00     0.244 HD
ENDBRANCH  14  22
BRANCH  20  24
HETATM   24  N4  UNL     1      26.152  -0.134  26.355  1.00  0.00    -0.041 N 
ATOM     25  H43 UNL     1      27.094  -0.332  26.694  1.00  0.00     0.277 HD
ATOM     26  H42 UNL     1      25.781  -1.084  26.341  1.00  0.00     0.277 HD
ATOM     27  H41 UNL     1      26.175   0.266  25.417  1.00  0.00     0.277 HD
ENDBRANCH  20  24
TORSDOF 2
ENDMDL
