MODEL 1
REMARK VINA RESULT: -8.479823388      0.000      0.000
REMARK  1 active torsions:
REMARK  status: ('A' for Active; 'I' for Inactive)
REMARK    1  A    between atoms: C3_4  and  O2_5 
ROOT
HETATM    1  C1  UNL     1      23.209   8.290  13.472  1.00  0.00     0.077 C 
HETATM    2  C2  UNL     1      23.697   7.491  14.650  1.00  0.00     0.060 A 
HETATM    3  O1  UNL     1      24.512   6.482  14.650  1.00  0.00    -0.291 OA
HETATM    4  C3  UNL     1      24.716   6.028  15.861  1.00  0.00     0.211 A 
HETATM    5  C4  UNL     1      23.978   6.798  16.742  1.00  0.00     0.096 A 
HETATM    6  C5  UNL     1      23.328   7.731  15.961  1.00  0.00     0.003 A 
HETATM    7  C6  UNL     1      22.413   8.766  16.564  1.00  0.00     0.050 C 
HETATM    8  C7  UNL     1      21.959   8.269  17.888  1.00  0.00     0.014 C 
HETATM    9  C8  UNL     1      21.340   9.323  18.764  1.00  0.00     0.024 C 
HETATM   10  C9  UNL     1      21.394   8.656  20.132  1.00  0.00     0.019 C 
HETATM   11  C10 UNL     1      21.724   9.612  21.203  1.00  0.00     0.094 C 
HETATM   12  N1  UNL     1      21.473   9.229  22.425  1.00  0.00    -0.295 N 
ATOM     13  H1  UNL     1      21.666   9.820  23.234  1.00  0.00     0.187 HD
HETATM   14  N2  UNL     1      20.914   7.938  22.548  1.00  0.00    -0.208 N 
ATOM     15  H2  UNL     1      21.177   7.371  23.355  1.00  0.00     0.216 HD
HETATM   16  O3  UNL     1      20.056   7.421  21.658  1.00  0.00    -0.264 OA
HETATM   17  C11 UNL     1      20.044   8.052  20.441  1.00  0.00     0.218 C 
HETATM   18  C12 UNL     1      22.473   7.614  20.061  1.00  0.00     0.043 C 
HETATM   19  C13 UNL     1      23.153   7.878  18.772  1.00  0.00     0.087 C 
HETATM   20  N3  UNL     1      23.812   6.766  18.176  1.00  0.00    -0.381 N 
ATOM     21  H3  UNL     1      24.151   5.983  18.736  1.00  0.00     0.160 HD
ENDROOT
BRANCH   4  22
HETATM   22  O2  UNL     1      25.534   4.950  16.254  1.00  0.00    -0.339 OA
ATOM     23  H2  UNL     1      25.615   4.564  17.118  1.00  0.00     0.220 HD
ENDBRANCH   4  22
TORSDOF 1
ENDMDL
MODEL 2
REMARK VINA RESULT: -7.748953498      2.196      6.138
REMARK  1 active torsions:
REMARK  status: ('A' for Active; 'I' for Inactive)
REMARK    1  A    between atoms: C3_4  and  O2_5 
ROOT
HETATM    1  C1  UNL     1      20.573   9.048  23.360  1.00  0.00     0.077 C 
HETATM    2  C2  UNL     1      21.302   7.903  22.710  1.00  0.00     0.060 A 
HETATM    3  O1  UNL     1      21.711   6.801  23.257  1.00  0.00    -0.291 OA
HETATM    4  C3  UNL     1      22.312   6.027  22.389  1.00  0.00     0.211 A 
HETATM    5  C4  UNL     1      22.301   6.664  21.161  1.00  0.00     0.096 A 
HETATM    6  C5  UNL     1      21.654   7.863  21.373  1.00  0.00     0.003 A 
HETATM    7  C6  UNL     1      21.442   8.854  20.257  1.00  0.00     0.050 C 
HETATM    8  C7  UNL     1      22.442   8.579  19.195  1.00  0.00     0.014 C 
HETATM    9  C8  UNL     1      22.138   9.233  17.876  1.00  0.00     0.024 C 
HETATM   10  C9  UNL     1      23.032   8.445  16.929  1.00  0.00     0.019 C 
HETATM   11  C10 UNL     1      22.379   8.190  15.633  1.00  0.00     0.094 C 
HETATM   12  N1  UNL     1      23.157   7.826  14.649  1.00  0.00    -0.295 N 
ATOM     13  H1  UNL     1      22.800   7.627  13.715  1.00  0.00     0.187 HD
HETATM   14  N2  UNL     1      24.528   7.726  14.971  1.00  0.00    -0.208 N 
ATOM     15  H2  UNL     1      25.080   6.995  14.522  1.00  0.00     0.216 HD
HETATM   16  O3  UNL     1      25.141   8.544  15.838  1.00  0.00    -0.264 OA
HETATM   17  C11 UNL     1      24.296   9.232  16.671  1.00  0.00     0.218 C 
HETATM   18  C12 UNL     1      23.315   7.130  17.597  1.00  0.00     0.043 C 
HETATM   19  C13 UNL     1      22.398   7.106  18.761  1.00  0.00     0.087 C 
HETATM   20  N3  UNL     1      22.807   6.298  19.858  1.00  0.00    -0.381 N 
ATOM     21  H3  UNL     1      23.428   5.499  19.732  1.00  0.00     0.160 HD
ENDROOT
BRANCH   4  22
HETATM   22  O2  UNL     1      22.884   4.759  22.612  1.00  0.00    -0.339 OA
ATOM     23  H2  UNL     1      22.473   3.908  22.517  1.00  0.00     0.220 HD
ENDBRANCH   4  22
TORSDOF 1
ENDMDL
MODEL 3
REMARK VINA RESULT: -6.422470620      1.032      1.273
REMARK  1 active torsions:
REMARK  status: ('A' for Active; 'I' for Inactive)
REMARK    1  A    between atoms: C3_4  and  O2_5 
ROOT
HETATM    1  C1  UNL     1      24.553   7.132  14.386  1.00  0.00     0.077 C 
HETATM    2  C2  UNL     1      24.423   6.290  15.627  1.00  0.00     0.060 A 
HETATM    3  O1  UNL     1      24.791   5.059  15.801  1.00  0.00    -0.291 OA
HETATM    4  C3  UNL     1      24.522   4.643  17.012  1.00  0.00     0.211 A 
HETATM    5  C4  UNL     1      23.927   5.682  17.705  1.00  0.00     0.096 A 
HETATM    6  C5  UNL     1      23.866   6.732  16.813  1.00  0.00     0.003 A 
HETATM    7  C6  UNL     1      23.273   8.063  17.200  1.00  0.00     0.050 C 
HETATM    8  C7  UNL     1      22.369   7.850  18.358  1.00  0.00     0.014 C 
HETATM    9  C8  UNL     1      21.985   9.111  19.083  1.00  0.00     0.024 C 
HETATM   10  C9  UNL     1      21.466   8.560  20.404  1.00  0.00     0.019 C 
HETATM   11  C10 UNL     1      21.856   9.403  21.547  1.00  0.00     0.094 C 
HETATM   12  N1  UNL     1      21.199   9.216  22.660  1.00  0.00    -0.295 N 
ATOM     13  H1  UNL     1      21.396   9.751  23.507  1.00  0.00     0.187 HD
HETATM   14  N2  UNL     1      20.199   8.222  22.609  1.00  0.00    -0.208 N 
ATOM     15  H2  UNL     1      20.038   7.653  23.440  1.00  0.00     0.216 HD
HETATM   16  O3  UNL     1      19.450   7.988  21.523  1.00  0.00    -0.264 OA
HETATM   17  C11 UNL     1      19.957   8.501  20.357  1.00  0.00     0.218 C 
HETATM   18  C12 UNL     1      22.078   7.199  20.573  1.00  0.00     0.043 C 
HETATM   19  C13 UNL     1      23.093   7.117  19.497  1.00  0.00     0.087 C 
HETATM   20  N3  UNL     1      23.424   5.806  19.053  1.00  0.00    -0.381 N 
ATOM     21  H3  UNL     1      23.312   4.992  19.658  1.00  0.00     0.160 HD
ENDROOT
BRANCH   4  22
HETATM   22  O2  UNL     1      24.774   3.372  17.566  1.00  0.00    -0.339 OA
ATOM     23  H2  UNL     1      25.330   3.158  18.305  1.00  0.00     0.220 HD
ENDBRANCH   4  22
TORSDOF 1
ENDMDL
MODEL 4
REMARK VINA RESULT: -5.740189732      3.368      7.660
REMARK  1 active torsions:
REMARK  status: ('A' for Active; 'I' for Inactive)
REMARK    1  A    between atoms: C3_4  and  O2_5 
ROOT
HETATM    1  C1  UNL     1      20.832   6.299  26.490  1.00  0.00     0.077 C 
HETATM    2  C2  UNL     1      20.644   7.612  25.779  1.00  0.00     0.060 A 
HETATM    3  O1  UNL     1      20.159   8.717  26.254  1.00  0.00    -0.291 OA
HETATM    4  C3  UNL     1      20.141   9.663  25.350  1.00  0.00     0.211 A 
HETATM    5  C4  UNL     1      20.658   9.148  24.175  1.00  0.00     0.096 A 
HETATM    6  C5  UNL     1      20.976   7.835  24.456  1.00  0.00     0.003 A 
HETATM    7  C6  UNL     1      21.574   6.927  23.412  1.00  0.00     0.050 C 
HETATM    8  C7  UNL     1      21.239   7.475  22.073  1.00  0.00     0.014 C 
HETATM    9  C8  UNL     1      22.053   6.897  20.948  1.00  0.00     0.024 C 
HETATM   10  C9  UNL     1      21.819   7.918  19.843  1.00  0.00     0.019 C 
HETATM   11  C10 UNL     1      23.034   8.163  19.048  1.00  0.00     0.094 C 
HETATM   12  N1  UNL     1      22.868   8.752  17.894  1.00  0.00    -0.295 N 
ATOM     13  H1  UNL     1      23.647   8.964  17.272  1.00  0.00     0.187 HD
HETATM   14  N2  UNL     1      21.532   9.072  17.569  1.00  0.00    -0.208 N 
ATOM     15  H2  UNL     1      21.353   9.930  17.047  1.00  0.00     0.216 HD
HETATM   16  O3  UNL     1      20.488   8.306  17.914  1.00  0.00    -0.264 OA
HETATM   17  C11 UNL     1      20.745   7.403  18.913  1.00  0.00     0.218 C 
HETATM   18  C12 UNL     1      21.413   9.197  20.517  1.00  0.00     0.043 C 
HETATM   19  C13 UNL     1      21.661   8.947  21.956  1.00  0.00     0.087 C 
HETATM   20  N3  UNL     1      20.880   9.715  22.865  1.00  0.00    -0.381 N 
ATOM     21  H3  UNL     1      20.495  10.623  22.604  1.00  0.00     0.160 HD
ENDROOT
BRANCH   4  22
HETATM   22  O2  UNL     1      19.689  10.989  25.495  1.00  0.00    -0.339 OA
ATOM     23  H2  UNL     1      19.069  11.457  24.948  1.00  0.00     0.220 HD
ENDBRANCH   4  22
TORSDOF 1
ENDMDL
MODEL 5
REMARK VINA RESULT: -5.715376325      1.425      2.628
REMARK  1 active torsions:
REMARK  status: ('A' for Active; 'I' for Inactive)
REMARK    1  A    between atoms: C3_4  and  O2_5 
ROOT
HETATM    1  C1  UNL     1      25.717   5.042  15.853  1.00  0.00     0.077 C 
HETATM    2  C2  UNL     1      24.716   6.163  15.780  1.00  0.00     0.060 A 
HETATM    3  O1  UNL     1      24.423   6.910  14.761  1.00  0.00    -0.291 OA
HETATM    4  C3  UNL     1      23.502   7.791  15.058  1.00  0.00     0.211 A 
HETATM    5  C4  UNL     1      23.150   7.618  16.384  1.00  0.00     0.096 A 
HETATM    6  C5  UNL     1      23.930   6.576  16.840  1.00  0.00     0.003 A 
HETATM    7  C6  UNL     1      23.836   6.082  18.261  1.00  0.00     0.050 C 
HETATM    8  C7  UNL     1      23.260   7.168  19.093  1.00  0.00     0.014 C 
HETATM    9  C8  UNL     1      22.772   6.719  20.443  1.00  0.00     0.024 C 
HETATM   10  C9  UNL     1      21.879   7.884  20.849  1.00  0.00     0.019 C 
HETATM   11  C10 UNL     1      20.664   7.432  21.551  1.00  0.00     0.094 C 
HETATM   12  N1  UNL     1      20.008   8.339  22.224  1.00  0.00    -0.295 N 
ATOM     13  H1  UNL     1      19.156   8.124  22.742  1.00  0.00     0.187 HD
HETATM   14  N2  UNL     1      20.562   9.636  22.184  1.00  0.00    -0.208 N 
ATOM     15  H2  UNL     1      19.927  10.434  22.180  1.00  0.00     0.216 HD
HETATM   16  O3  UNL     1      21.881   9.871  22.151  1.00  0.00    -0.264 OA
HETATM   17  C11 UNL     1      22.646   8.796  21.779  1.00  0.00     0.218 C 
HETATM   18  C12 UNL     1      21.477   8.581  19.582  1.00  0.00     0.043 C 
HETATM   19  C13 UNL     1      21.936   7.674  18.503  1.00  0.00     0.087 C 
HETATM   20  N3  UNL     1      22.205   8.287  17.248  1.00  0.00    -0.381 N 
ATOM     21  H3  UNL     1      21.751   9.158  16.970  1.00  0.00     0.160 HD
ENDROOT
BRANCH   4  22
HETATM   22  O2  UNL     1      22.933   8.765  14.214  1.00  0.00    -0.339 OA
ATOM     23  H2  UNL     1      23.361   9.513  13.814  1.00  0.00     0.220 HD
ENDBRANCH   4  22
TORSDOF 1
ENDMDL
