MODEL 1
REMARK VINA RESULT: -7.330360412      0.000      0.000
REMARK  5 active torsions:
REMARK  status: ('A' for Active; 'I' for Inactive)
REMARK    1  A    between atoms: C2_2  and  C4_4 
REMARK    2  A    between atoms: C4_4  and  C5_5 
REMARK    3  A    between atoms: C4_4  and  S1_17 
REMARK    4  A    between atoms: S1_17  and  C10_18 
REMARK    5  A    between atoms: C10_18  and  C11_19 
ROOT
HETATM    1  C4  UNL     1       4.502   9.380   8.814  1.00  0.00     0.074 C 
ENDROOT
BRANCH   1   2
HETATM    2  C2  UNL     1       4.775  10.434   9.856  1.00  0.00    -0.005 C 
HETATM    3  C1  UNL     1       5.658  10.051  10.984  1.00  0.00     0.011 C 
HETATM    4  C3  UNL     1       5.401  11.674   9.201  1.00  0.00     0.011 C 
ENDBRANCH   1   2
BRANCH   1   5
HETATM    5  C5  UNL     1       5.182   9.758   7.527  1.00  0.00     0.011 C 
HETATM    6  C6  UNL     1       6.211   9.214   6.975  1.00  0.00     0.097 A 
HETATM    7  C7  UNL     1       6.927   8.098   7.517  1.00  0.00     0.264 A 
HETATM    8  C9  UNL     1       6.722   9.758   5.695  1.00  0.00     0.264 A 
HETATM    9  O1  UNL     1       6.619   7.541   8.574  1.00  0.00    -0.267 OA
HETATM   10  N1  UNL     1       8.078   7.542   6.843  1.00  0.00    -0.275 N 
HETATM   11  C8  UNL     1       8.529   8.098   5.618  1.00  0.00     0.329 A 
ATOM     12  H1  UNL     1       8.569   6.746   7.251  1.00  0.00     0.173 HD
HETATM   13  O2  UNL     1       9.543   7.577   5.063  1.00  0.00    -0.246 OA
HETATM   14  N2  UNL     1       7.842   9.197   5.065  1.00  0.00    -0.275 N 
ATOM     15  H2  UNL     1       8.167   9.594   4.184  1.00  0.00     0.173 HD
HETATM   16  O3  UNL     1       6.131  10.738   5.175  1.00  0.00    -0.267 OA
ENDBRANCH   1   5
BRANCH   1  17
HETATM   17  S1  UNL     1       2.763   9.051   8.510  1.00  0.00    -0.154 SA
BRANCH  17  18
HETATM   18  C10 UNL     1       1.789   9.066   9.986  1.00  0.00     0.133 C 
BRANCH  18  19
HETATM   19  C11 UNL     1       1.320   7.683  10.376  1.00  0.00     0.036 A 
HETATM   20  C12 UNL     1       0.633   6.779   9.603  1.00  0.00     0.116 A 
HETATM   21  N3  UNL     1       0.387   5.643  10.306  1.00  0.00    -0.341 N 
HETATM   22  C13 UNL     1       0.936   5.862  11.532  1.00  0.00     0.176 A 
ATOM     23  H3  UNL     1      -0.103   4.809   9.985  1.00  0.00     0.167 HD
HETATM   24  S2  UNL     1       0.883   4.754  12.727  1.00  0.00    -0.041 SA
HETATM   25  N4  UNL     1       1.492   7.088  11.562  1.00  0.00    -0.335 N 
ATOM     26  H4  UNL     1       1.971   7.499  12.363  1.00  0.00     0.168 HD
ENDBRANCH  18  19
ENDBRANCH  17  18
ENDBRANCH   1  17
TORSDOF 5
ENDMDL
MODEL 2
REMARK VINA RESULT: -7.132108086      7.321      9.933
REMARK  5 active torsions:
REMARK  status: ('A' for Active; 'I' for Inactive)
REMARK    1  A    between atoms: C2_2  and  C4_4 
REMARK    2  A    between atoms: C4_4  and  C5_5 
REMARK    3  A    between atoms: C4_4  and  S1_17 
REMARK    4  A    between atoms: S1_17  and  C10_18 
REMARK    5  A    between atoms: C10_18  and  C11_19 
ROOT
HETATM    1  C4  UNL     1       1.154   0.156  13.404  1.00  0.00     0.074 C 
ENDROOT
BRANCH   1   2
HETATM    2  C2  UNL     1       0.663  -1.269  13.389  1.00  0.00    -0.005 C 
HETATM    3  C1  UNL     1       1.453  -2.260  14.157  1.00  0.00     0.011 C 
HETATM    4  C3  UNL     1      -0.776  -1.336  13.921  1.00  0.00     0.011 C 
ENDBRANCH   1   2
BRANCH   1   5
HETATM    5  C5  UNL     1       2.422   0.243  14.207  1.00  0.00     0.011 C 
HETATM    6  C6  UNL     1       3.355   1.129  14.139  1.00  0.00     0.097 A 
HETATM    7  C7  UNL     1       3.349   2.245  13.240  1.00  0.00     0.264 A 
HETATM    8  C9  UNL     1       4.531   1.015  15.031  1.00  0.00     0.264 A 
HETATM    9  O1  UNL     1       2.437   2.468  12.439  1.00  0.00    -0.267 OA
HETATM   10  N1  UNL     1       4.434   3.198  13.217  1.00  0.00    -0.275 N 
HETATM   11  C8  UNL     1       5.541   3.047  14.091  1.00  0.00     0.329 A 
ATOM     12  H1  UNL     1       4.405   3.985  12.567  1.00  0.00     0.173 HD
HETATM   13  O2  UNL     1       6.469   3.908  14.036  1.00  0.00    -0.246 OA
HETATM   14  N2  UNL     1       5.569   1.957  14.985  1.00  0.00    -0.275 N 
ATOM     15  H2  UNL     1       6.365   1.850  15.614  1.00  0.00     0.173 HD
HETATM   16  O3  UNL     1       4.587   0.054  15.840  1.00  0.00    -0.267 OA
ENDBRANCH   1   5
BRANCH   1  17
HETATM   17  S1  UNL     1      -0.035   1.358  14.009  1.00  0.00    -0.154 SA
BRANCH  17  18
HETATM   18  C10 UNL     1      -0.980   2.108  12.716  1.00  0.00     0.133 C 
BRANCH  18  19
HETATM   19  C11 UNL     1      -0.759   3.601  12.637  1.00  0.00     0.036 A 
HETATM   20  C12 UNL     1      -1.466   4.589  13.278  1.00  0.00     0.116 A 
HETATM   21  N3  UNL     1      -0.969   5.812  12.954  1.00  0.00    -0.341 N 
HETATM   22  C13 UNL     1       0.060   5.560  12.100  1.00  0.00     0.176 A 
ATOM     23  H3  UNL     1      -1.297   6.721  13.280  1.00  0.00     0.167 HD
HETATM   24  S2  UNL     1       0.965   6.747  11.443  1.00  0.00    -0.041 SA
HETATM   25  N4  UNL     1       0.176   4.231  11.918  1.00  0.00    -0.335 N 
ATOM     26  H4  UNL     1       0.869   3.776  11.324  1.00  0.00     0.168 HD
ENDBRANCH  18  19
ENDBRANCH  17  18
ENDBRANCH   1  17
TORSDOF 5
ENDMDL
MODEL 3
REMARK VINA RESULT: -7.087651359      7.798     10.183
REMARK  5 active torsions:
REMARK  status: ('A' for Active; 'I' for Inactive)
REMARK    1  A    between atoms: C2_2  and  C4_4 
REMARK    2  A    between atoms: C4_4  and  C5_5 
REMARK    3  A    between atoms: C4_4  and  S1_17 
REMARK    4  A    between atoms: S1_17  and  C10_18 
REMARK    5  A    between atoms: C10_18  and  C11_19 
ROOT
HETATM    1  C4  UNL     1       1.168   1.642  13.110  1.00  0.00     0.074 C 
ENDROOT
BRANCH   1   2
HETATM    2  C2  UNL     1       0.116   1.026  12.223  1.00  0.00    -0.005 C 
HETATM    3  C1  UNL     1      -0.116  -0.431  12.367  1.00  0.00     0.011 C 
HETATM    4  C3  UNL     1      -1.237   1.718  12.453  1.00  0.00     0.011 C 
ENDBRANCH   1   2
BRANCH   1   5
HETATM    5  C5  UNL     1       1.771   0.580  13.987  1.00  0.00     0.011 C 
HETATM    6  C6  UNL     1       2.965   0.519  14.467  1.00  0.00     0.097 A 
HETATM    7  C7  UNL     1       3.982   1.502  14.238  1.00  0.00     0.264 A 
HETATM    8  C9  UNL     1       3.351  -0.634  15.312  1.00  0.00     0.264 A 
HETATM    9  O1  UNL     1       3.806   2.515  13.555  1.00  0.00    -0.267 OA
HETATM   10  N1  UNL     1       5.303   1.366  14.806  1.00  0.00    -0.275 N 
HETATM   11  C8  UNL     1       5.625   0.242  15.610  1.00  0.00     0.329 A 
ATOM     12  H1  UNL     1       6.008   2.081  14.629  1.00  0.00     0.173 HD
HETATM   13  O2  UNL     1       6.796   0.165  16.088  1.00  0.00    -0.246 OA
HETATM   14  N2  UNL     1       4.642  -0.739  15.850  1.00  0.00    -0.275 N 
ATOM     15  H2  UNL     1       4.875  -1.546  16.429  1.00  0.00     0.173 HD
HETATM   16  O3  UNL     1       2.496  -1.527  15.545  1.00  0.00    -0.267 OA
ENDBRANCH   1   5
BRANCH   1  17
HETATM   17  S1  UNL     1       0.598   3.014  14.118  1.00  0.00    -0.154 SA
BRANCH  17  18
HETATM   18  C10 UNL     1       1.005   4.592  13.431  1.00  0.00     0.133 C 
BRANCH  18  19
HETATM   19  C11 UNL     1      -0.096   5.133  12.548  1.00  0.00     0.036 A 
HETATM   20  C12 UNL     1      -0.158   5.115  11.177  1.00  0.00     0.116 A 
HETATM   21  N3  UNL     1      -1.307   5.700  10.746  1.00  0.00    -0.341 N 
HETATM   22  C13 UNL     1      -1.955   6.080  11.881  1.00  0.00     0.176 A 
ATOM     23  H3  UNL     1      -1.616   5.827   9.782  1.00  0.00     0.167 HD
HETATM   24  S2  UNL     1      -3.401   6.834  11.854  1.00  0.00    -0.041 SA
HETATM   25  N4  UNL     1      -1.220   5.735  12.955  1.00  0.00    -0.335 N 
ATOM     26  H4  UNL     1      -1.479   5.905  13.926  1.00  0.00     0.168 HD
ENDBRANCH  18  19
ENDBRANCH  17  18
ENDBRANCH   1  17
TORSDOF 5
ENDMDL
MODEL 4
REMARK VINA RESULT: -7.005006889      6.128      9.541
REMARK  5 active torsions:
REMARK  status: ('A' for Active; 'I' for Inactive)
REMARK    1  A    between atoms: C2_2  and  C4_4 
REMARK    2  A    between atoms: C4_4  and  C5_5 
REMARK    3  A    between atoms: C4_4  and  S1_17 
REMARK    4  A    between atoms: S1_17  and  C10_18 
REMARK    5  A    between atoms: C10_18  and  C11_19 
ROOT
HETATM    1  C4  UNL     1       0.993   2.159  12.520  1.00  0.00     0.074 C 
ENDROOT
BRANCH   1   2
HETATM    2  C2  UNL     1      -0.102   2.490  13.502  1.00  0.00    -0.005 C 
HETATM    3  C1  UNL     1       0.215   3.488  14.551  1.00  0.00     0.011 C 
HETATM    4  C3  UNL     1      -1.341   3.006  12.755  1.00  0.00     0.011 C 
ENDBRANCH   1   2
BRANCH   1   5
HETATM    5  C5  UNL     1       2.332   2.337  13.180  1.00  0.00     0.011 C 
HETATM    6  C6  UNL     1       2.979   1.502  13.917  1.00  0.00     0.097 A 
HETATM    7  C7  UNL     1       2.515   0.189  14.255  1.00  0.00     0.264 A 
HETATM    8  C9  UNL     1       4.294   1.893  14.475  1.00  0.00     0.264 A 
HETATM    9  O1  UNL     1       1.439  -0.272  13.865  1.00  0.00    -0.267 OA
HETATM   10  N1  UNL     1       3.295  -0.693  15.092  1.00  0.00    -0.275 N 
HETATM   11  C8  UNL     1       4.550  -0.273  15.603  1.00  0.00     0.329 A 
ATOM     12  H1  UNL     1       2.941  -1.623  15.317  1.00  0.00     0.173 HD
HETATM   13  O2  UNL     1       5.199  -1.080  16.333  1.00  0.00    -0.246 OA
HETATM   14  N2  UNL     1       5.028   1.014  15.285  1.00  0.00    -0.275 N 
ATOM     15  H2  UNL     1       5.931   1.314  15.652  1.00  0.00     0.173 HD
HETATM   16  O3  UNL     1       4.749   3.035  14.209  1.00  0.00    -0.267 OA
ENDBRANCH   1   5
BRANCH   1  17
HETATM   17  S1  UNL     1       0.939   3.093  10.987  1.00  0.00    -0.154 SA
BRANCH  17  18
HETATM   18  C10 UNL     1       2.188   4.341  10.894  1.00  0.00     0.133 C 
BRANCH  18  19
HETATM   19  C11 UNL     1       1.634   5.725  11.143  1.00  0.00     0.036 A 
HETATM   20  C12 UNL     1       0.554   6.070  11.917  1.00  0.00     0.116 A 
HETATM   21  N3  UNL     1       0.363   7.416  11.892  1.00  0.00    -0.341 N 
HETATM   22  C13 UNL     1       1.349   7.896  11.086  1.00  0.00     0.176 A 
ATOM     23  H3  UNL     1      -0.361   7.949  12.372  1.00  0.00     0.167 HD
HETATM   24  S2  UNL     1       1.518   9.485  10.759  1.00  0.00    -0.041 SA
HETATM   25  N4  UNL     1       2.105   6.873  10.643  1.00  0.00    -0.335 N 
ATOM     26  H4  UNL     1       2.910   6.960  10.024  1.00  0.00     0.168 HD
ENDBRANCH  18  19
ENDBRANCH  17  18
ENDBRANCH   1  17
TORSDOF 5
ENDMDL
MODEL 5
REMARK VINA RESULT: -6.971934782      5.604      9.289
REMARK  5 active torsions:
REMARK  status: ('A' for Active; 'I' for Inactive)
REMARK    1  A    between atoms: C2_2  and  C4_4 
REMARK    2  A    between atoms: C4_4  and  C5_5 
REMARK    3  A    between atoms: C4_4  and  S1_17 
REMARK    4  A    between atoms: S1_17  and  C10_18 
REMARK    5  A    between atoms: C10_18  and  C11_19 
ROOT
HETATM    1  C4  UNL     1       1.208   3.419  12.119  1.00  0.00     0.074 C 
ENDROOT
BRANCH   1   2
HETATM    2  C2  UNL     1       0.143   4.098  12.942  1.00  0.00    -0.005 C 
HETATM    3  C1  UNL     1      -1.247   3.611  12.775  1.00  0.00     0.011 C 
HETATM    4  C3  UNL     1       0.479   3.983  14.436  1.00  0.00     0.011 C 
ENDBRANCH   1   2
BRANCH   1   5
HETATM    5  C5  UNL     1       2.387   3.093  12.993  1.00  0.00     0.011 C 
HETATM    6  C6  UNL     1       2.662   1.985  13.588  1.00  0.00     0.097 A 
HETATM    7  C7  UNL     1       1.851   0.805  13.519  1.00  0.00     0.264 A 
HETATM    8  C9  UNL     1       3.888   1.887  14.413  1.00  0.00     0.264 A 
HETATM    9  O1  UNL     1       0.803   0.739  12.872  1.00  0.00    -0.267 OA
HETATM   10  N1  UNL     1       2.220  -0.404  14.218  1.00  0.00    -0.275 N 
HETATM   11  C8  UNL     1       3.406  -0.449  14.996  1.00  0.00     0.329 A 
ATOM     12  H1  UNL     1       1.625  -1.230  14.151  1.00  0.00     0.173 HD
HETATM   13  O2  UNL     1       3.690  -1.532  15.591  1.00  0.00    -0.246 OA
HETATM   14  N2  UNL     1       4.220   0.698  15.079  1.00  0.00    -0.275 N 
ATOM     15  H2  UNL     1       5.072   0.664  15.639  1.00  0.00     0.173 HD
HETATM   16  O3  UNL     1       4.636   2.893  14.507  1.00  0.00    -0.267 OA
ENDBRANCH   1   5
BRANCH   1  17
HETATM   17  S1  UNL     1       1.753   4.344  10.679  1.00  0.00    -0.154 SA
BRANCH  17  18
HETATM   18  C10 UNL     1       0.717   5.731  10.315  1.00  0.00     0.133 C 
BRANCH  18  19
HETATM   19  C11 UNL     1       1.392   7.046  10.629  1.00  0.00     0.036 A 
HETATM   20  C12 UNL     1       0.831   8.164  11.197  1.00  0.00     0.116 A 
HETATM   21  N3  UNL     1       1.757   9.150  11.317  1.00  0.00    -0.341 N 
HETATM   22  C13 UNL     1       2.904   8.620  10.813  1.00  0.00     0.176 A 
ATOM     23  H3  UNL     1       1.622  10.085  11.702  1.00  0.00     0.167 HD
HETATM   24  S2  UNL     1       4.304   9.455  10.751  1.00  0.00    -0.041 SA
HETATM   25  N4  UNL     1       2.673   7.358  10.403  1.00  0.00    -0.335 N 
ATOM     26  H4  UNL     1       3.366   6.737   9.986  1.00  0.00     0.168 HD
ENDBRANCH  18  19
ENDBRANCH  17  18
ENDBRANCH   1  17
TORSDOF 5
ENDMDL
