MODEL 1
REMARK VINA RESULT: -7.980255261      0.000      0.000
REMARK  7 active torsions:
REMARK  status: ('A' for Active; 'I' for Inactive)
REMARK    1  A    between atoms: C2_2  and  C4_4 
REMARK    2  A    between atoms: C4_4  and  C5_5 
REMARK    3  A    between atoms: C5_5  and  C6_6 
REMARK    4  A    between atoms: C6_6  and  C8_8 
REMARK    5  A    between atoms: C16_19  and  O2_20 
REMARK    6  A    between atoms: C18_24  and  C19_25 
REMARK    7  A    between atoms: C19_25  and  O4_26 
ROOT
HETATM    1  C8  UNL     1       1.792   0.370  13.472  1.00  0.00     0.090 C 
HETATM    2  C9  UNL     1       0.320   0.234  13.395  1.00  0.00     0.136 C 
HETATM    3  O1  UNL     1      -0.314  -0.363  14.236  1.00  0.00    -0.297 OA
HETATM    4  C10 UNL     1      -0.553   0.786  12.325  1.00  0.00     0.107 C 
HETATM    5  C11 UNL     1      -1.037   2.143  12.852  1.00  0.00     0.125 C 
HETATM    6  N1  UNL     1      -2.204   2.566  12.213  1.00  0.00    -0.394 N 
ATOM      7  H1  UNL     1      -3.115   2.300  12.587  1.00  0.00     0.159 HD
HETATM    8  C12 UNL     1      -2.125   3.352  11.060  1.00  0.00     0.056 C 
HETATM    9  C13 UNL     1      -0.808   3.949  10.736  1.00  0.00     0.052 C 
HETATM   10  C14 UNL     1      -0.063   4.277  11.960  1.00  0.00     0.032 C 
HETATM   11  C15 UNL     1      -0.731   4.959  13.088  1.00  0.00     0.043 C 
HETATM   12  C16 UNL     1       0.052   4.015  14.017  1.00  0.00     0.155 C 
HETATM   13  C17 UNL     1       0.141   3.063  12.880  1.00  0.00     0.112 C 
HETATM   14  O3  UNL     1       1.284   2.448  12.547  1.00  0.00    -0.367 OA
HETATM   15  C18 UNL     1       2.076   1.862  13.487  1.00  0.00     0.158 C 
ENDROOT
BRANCH   1  16
HETATM   16  C6  UNL     1       2.471  -0.409  14.515  1.00  0.00    -0.005 C 
HETATM   17  C7  UNL     1       2.392  -1.894  14.407  1.00  0.00     0.011 C 
BRANCH  16  18
HETATM   18  C5  UNL     1       3.919  -0.033  14.737  1.00  0.00     0.005 C 
BRANCH  18  19
HETATM   19  C4  UNL     1       4.474  -0.597  16.017  1.00  0.00     0.004 C 
BRANCH  19  20
HETATM   20  C2  UNL     1       5.801  -0.063  16.416  1.00  0.00    -0.023 C 
HETATM   21  C1  UNL     1       5.827   1.413  15.982  1.00  0.00     0.009 C 
HETATM   22  C3  UNL     1       5.899  -0.045  17.927  1.00  0.00     0.009 C 
ENDBRANCH  19  20
ENDBRANCH  18  19
ENDBRANCH  16  18
ENDBRANCH   1  16
BRANCH  15  23
HETATM   23  C19 UNL     1       3.519   2.023  12.984  1.00  0.00     0.197 C 
BRANCH  23  24
HETATM   24  O4  UNL     1       4.031   3.282  13.308  1.00  0.00    -0.398 OA
ATOM     25  H4  UNL     1       4.939   3.365  13.039  1.00  0.00     0.209 HD
ENDBRANCH  23  24
ENDBRANCH  15  23
BRANCH  12  26
HETATM   26  O2  UNL     1       1.172   4.657  14.461  1.00  0.00    -0.392 OA
ATOM     27  H2  UNL     1       1.815   4.010  14.726  1.00  0.00     0.210 HD
ENDBRANCH  12  26
TORSDOF 7
ENDMDL
MODEL 2
REMARK VINA RESULT: -7.924745654      8.662     10.927
REMARK  7 active torsions:
REMARK  status: ('A' for Active; 'I' for Inactive)
REMARK    1  A    between atoms: C2_2  and  C4_4 
REMARK    2  A    between atoms: C4_4  and  C5_5 
REMARK    3  A    between atoms: C5_5  and  C6_6 
REMARK    4  A    between atoms: C6_6  and  C8_8 
REMARK    5  A    between atoms: C16_19  and  O2_20 
REMARK    6  A    between atoms: C18_24  and  C19_25 
REMARK    7  A    between atoms: C19_25  and  O4_26 
ROOT
HETATM    1  C8  UNL     1       4.991  10.991   7.111  1.00  0.00     0.090 C 
HETATM    2  C9  UNL     1       3.837  10.255   6.550  1.00  0.00     0.136 C 
HETATM    3  O1  UNL     1       3.951   9.506   5.606  1.00  0.00    -0.297 OA
HETATM    4  C10 UNL     1       2.434  10.323   7.041  1.00  0.00     0.107 C 
HETATM    5  C11 UNL     1       2.286   9.149   8.018  1.00  0.00     0.125 C 
HETATM    6  N1  UNL     1       0.951   8.785   8.198  1.00  0.00    -0.394 N 
ATOM      7  H1  UNL     1       0.525   8.091   7.583  1.00  0.00     0.159 HD
HETATM    8  C12 UNL     1       0.197   9.371   9.219  1.00  0.00     0.056 C 
HETATM    9  C13 UNL     1       0.934  10.136  10.252  1.00  0.00     0.052 C 
HETATM   10  C14 UNL     1       2.260   9.550  10.495  1.00  0.00     0.032 C 
HETATM   11  C15 UNL     1       2.420   8.089  10.652  1.00  0.00     0.043 C 
HETATM   12  C16 UNL     1       3.697   8.220   9.805  1.00  0.00     0.155 C 
HETATM   13  C17 UNL     1       3.117   9.457   9.223  1.00  0.00     0.112 C 
HETATM   14  O3  UNL     1       3.823  10.587   9.088  1.00  0.00    -0.367 OA
HETATM   15  C18 UNL     1       5.083  10.580   8.571  1.00  0.00     0.158 C 
ENDROOT
BRANCH   1  16
HETATM   16  C6  UNL     1       6.248  10.918   6.357  1.00  0.00    -0.005 C 
HETATM   17  C7  UNL     1       6.977  12.199   6.135  1.00  0.00     0.011 C 
BRANCH  16  18
HETATM   18  C5  UNL     1       7.238   9.902   6.883  1.00  0.00     0.005 C 
BRANCH  18  19
HETATM   19  C4  UNL     1       7.299   8.660   6.036  1.00  0.00     0.004 C 
BRANCH  19  20
HETATM   20  C2  UNL     1       8.513   7.827   6.227  1.00  0.00    -0.023 C 
HETATM   21  C1  UNL     1       8.033   6.477   6.786  1.00  0.00     0.009 C 
HETATM   22  C3  UNL     1       9.123   7.516   4.877  1.00  0.00     0.009 C 
ENDBRANCH  19  20
ENDBRANCH  18  19
ENDBRANCH  16  18
ENDBRANCH   1  16
BRANCH  15  23
HETATM   23  C19 UNL     1       5.839  11.712   9.283  1.00  0.00     0.197 C 
BRANCH  23  24
HETATM   24  O4  UNL     1       5.513  11.763  10.641  1.00  0.00    -0.398 OA
ATOM     25  H4  UNL     1       5.401  10.890  11.001  1.00  0.00     0.209 HD
ENDBRANCH  23  24
ENDBRANCH  15  23
BRANCH  12  26
HETATM   26  O2  UNL     1       4.777   8.296  10.638  1.00  0.00    -0.392 OA
ATOM     27  H2  UNL     1       5.553   8.478  10.121  1.00  0.00     0.210 HD
ENDBRANCH  12  26
TORSDOF 7
ENDMDL
MODEL 3
REMARK VINA RESULT: -7.338526930      6.461      9.140
REMARK  7 active torsions:
REMARK  status: ('A' for Active; 'I' for Inactive)
REMARK    1  A    between atoms: C2_2  and  C4_4 
REMARK    2  A    between atoms: C4_4  and  C5_5 
REMARK    3  A    between atoms: C5_5  and  C6_6 
REMARK    4  A    between atoms: C6_6  and  C8_8 
REMARK    5  A    between atoms: C16_19  and  O2_20 
REMARK    6  A    between atoms: C18_24  and  C19_25 
REMARK    7  A    between atoms: C19_25  and  O4_26 
ROOT
HETATM    1  C8  UNL     1       2.462   9.737   8.977  1.00  0.00     0.090 C 
HETATM    2  C9  UNL     1       1.192   9.353   8.323  1.00  0.00     0.136 C 
HETATM    3  O1  UNL     1       1.107   9.203   7.124  1.00  0.00    -0.297 OA
HETATM    4  C10 UNL     1      -0.105   9.106   9.009  1.00  0.00     0.107 C 
HETATM    5  C11 UNL     1      -0.156   7.591   9.251  1.00  0.00     0.125 C 
HETATM    6  N1  UNL     1      -1.462   7.137   9.443  1.00  0.00    -0.394 N 
ATOM      7  H1  UNL     1      -2.022   6.844   8.641  1.00  0.00     0.159 HD
HETATM    8  C12 UNL     1      -2.004   7.084  10.730  1.00  0.00     0.056 C 
HETATM    9  C13 UNL     1      -1.065   7.233  11.867  1.00  0.00     0.052 C 
HETATM   10  C14 UNL     1       0.248   6.656  11.545  1.00  0.00     0.032 C 
HETATM   11  C15 UNL     1       0.350   5.331  10.899  1.00  0.00     0.043 C 
HETATM   12  C16 UNL     1       1.476   5.927  10.037  1.00  0.00     0.155 C 
HETATM   13  C17 UNL     1       0.877   7.265  10.282  1.00  0.00     0.112 C 
HETATM   14  O3  UNL     1       1.614   8.328  10.630  1.00  0.00    -0.367 OA
HETATM   15  C18 UNL     1       2.769   8.636   9.977  1.00  0.00     0.158 C 
ENDROOT
BRANCH   1  16
HETATM   16  C6  UNL     1       3.572  10.110   8.092  1.00  0.00    -0.005 C 
HETATM   17  C7  UNL     1       4.204  11.440   8.326  1.00  0.00     0.011 C 
BRANCH  16  18
HETATM   18  C5  UNL     1       4.674   9.078   7.998  1.00  0.00     0.005 C 
BRANCH  18  19
HETATM   19  C4  UNL     1       5.667   9.389   6.910  1.00  0.00     0.004 C 
BRANCH  19  20
HETATM   20  C2  UNL     1       7.059   8.954   7.187  1.00  0.00    -0.023 C 
HETATM   21  C1  UNL     1       6.971   7.509   7.707  1.00  0.00     0.009 C 
HETATM   22  C3  UNL     1       7.826   8.872   5.884  1.00  0.00     0.009 C 
ENDBRANCH  19  20
ENDBRANCH  18  19
ENDBRANCH  16  18
ENDBRANCH   1  16
BRANCH  15  23
HETATM   23  C19 UNL     1       3.695   9.266  11.030  1.00  0.00     0.197 C 
BRANCH  23  24
HETATM   24  O4  UNL     1       2.960   9.870  12.053  1.00  0.00    -0.398 OA
ATOM     25  H4  UNL     1       2.947  10.816  11.956  1.00  0.00     0.209 HD
ENDBRANCH  23  24
ENDBRANCH  15  23
BRANCH  12  26
HETATM   26  O2  UNL     1       2.680   5.604  10.594  1.00  0.00    -0.392 OA
ATOM     27  H2  UNL     1       3.375   5.935  10.038  1.00  0.00     0.210 HD
ENDBRANCH  12  26
TORSDOF 7
ENDMDL
MODEL 4
REMARK VINA RESULT: -7.331871030      1.556      3.149
REMARK  7 active torsions:
REMARK  status: ('A' for Active; 'I' for Inactive)
REMARK    1  A    between atoms: C2_2  and  C4_4 
REMARK    2  A    between atoms: C4_4  and  C5_5 
REMARK    3  A    between atoms: C5_5  and  C6_6 
REMARK    4  A    between atoms: C6_6  and  C8_8 
REMARK    5  A    between atoms: C16_19  and  O2_20 
REMARK    6  A    between atoms: C18_24  and  C19_25 
REMARK    7  A    between atoms: C19_25  and  O4_26 
ROOT
HETATM    1  C8  UNL     1       1.695   1.462  13.681  1.00  0.00     0.090 C 
HETATM    2  C9  UNL     1       2.077   2.854  14.005  1.00  0.00     0.136 C 
HETATM    3  O1  UNL     1       3.235   3.198  14.091  1.00  0.00    -0.297 OA
HETATM    4  C10 UNL     1       1.140   3.980  14.261  1.00  0.00     0.107 C 
HETATM    5  C11 UNL     1       0.977   4.691  12.911  1.00  0.00     0.125 C 
HETATM    6  N1  UNL     1       0.532   6.004  13.063  1.00  0.00    -0.394 N 
ATOM      7  H1  UNL     1       1.207   6.762  13.173  1.00  0.00     0.159 HD
HETATM    8  C12 UNL     1      -0.837   6.285  13.063  1.00  0.00     0.056 C 
HETATM    9  C13 UNL     1      -1.749   5.209  12.606  1.00  0.00     0.052 C 
HETATM   10  C14 UNL     1      -1.117   4.392  11.560  1.00  0.00     0.032 C 
HETATM   11  C15 UNL     1      -0.391   5.030  10.442  1.00  0.00     0.043 C 
HETATM   12  C16 UNL     1       0.661   3.918  10.597  1.00  0.00     0.155 C 
HETATM   13  C17 UNL     1       0.216   3.773  12.007  1.00  0.00     0.112 C 
HETATM   14  O3  UNL     1      -0.021   2.578  12.566  1.00  0.00    -0.367 OA
HETATM   15  C18 UNL     1       0.849   1.541  12.421  1.00  0.00     0.158 C 
ENDROOT
BRANCH   1  16
HETATM   16  C6  UNL     1       2.778   0.472  13.649  1.00  0.00    -0.005 C 
HETATM   17  C7  UNL     1       4.049   0.884  12.989  1.00  0.00     0.011 C 
BRANCH  16  18
HETATM   18  C5  UNL     1       3.122  -0.126  14.995  1.00  0.00     0.005 C 
BRANCH  18  19
HETATM   19  C4  UNL     1       4.605  -0.174  15.245  1.00  0.00     0.004 C 
BRANCH  19  20
HETATM   20  C2  UNL     1       5.079   0.659  16.379  1.00  0.00    -0.023 C 
HETATM   21  C1  UNL     1       5.818  -0.289  17.339  1.00  0.00     0.009 C 
HETATM   22  C3  UNL     1       6.127   1.632  15.881  1.00  0.00     0.009 C 
ENDBRANCH  19  20
ENDBRANCH  18  19
ENDBRANCH  16  18
ENDBRANCH   1  16
BRANCH  15  23
HETATM   23  C19 UNL     1      -0.011   0.267  12.407  1.00  0.00     0.197 C 
BRANCH  23  24
HETATM   24  O4  UNL     1      -1.342   0.551  12.724  1.00  0.00    -0.398 OA
ATOM     25  H4  UNL     1      -1.563   1.450  12.509  1.00  0.00     0.209 HD
ENDBRANCH  23  24
ENDBRANCH  15  23
BRANCH  12  26
HETATM   26  O2  UNL     1       0.399   2.930   9.692  1.00  0.00    -0.392 OA
ATOM     27  H2  UNL     1       1.200   2.451   9.518  1.00  0.00     0.210 HD
ENDBRANCH  12  26
TORSDOF 7
ENDMDL
MODEL 5
REMARK VINA RESULT: -7.270164778      8.040     10.266
REMARK  7 active torsions:
REMARK  status: ('A' for Active; 'I' for Inactive)
REMARK    1  A    between atoms: C2_2  and  C4_4 
REMARK    2  A    between atoms: C4_4  and  C5_5 
REMARK    3  A    between atoms: C5_5  and  C6_6 
REMARK    4  A    between atoms: C6_6  and  C8_8 
REMARK    5  A    between atoms: C16_19  and  O2_20 
REMARK    6  A    between atoms: C18_24  and  C19_25 
REMARK    7  A    between atoms: C19_25  and  O4_26 
ROOT
HETATM    1  C8  UNL     1       4.761   9.141   8.127  1.00  0.00     0.090 C 
HETATM    2  C9  UNL     1       4.674   8.606   9.503  1.00  0.00     0.136 C 
HETATM    3  O1  UNL     1       5.464   8.922  10.365  1.00  0.00    -0.297 OA
HETATM    4  C10 UNL     1       3.652   7.649  10.006  1.00  0.00     0.107 C 
HETATM    5  C11 UNL     1       2.551   8.518  10.629  1.00  0.00     0.125 C 
HETATM    6  N1  UNL     1       1.776   7.802  11.543  1.00  0.00    -0.394 N 
ATOM      7  H1  UNL     1       2.050   7.766  12.525  1.00  0.00     0.159 HD
HETATM    8  C12 UNL     1       0.626   7.134  11.115  1.00  0.00     0.056 C 
HETATM    9  C13 UNL     1       0.117   7.461   9.762  1.00  0.00     0.052 C 
HETATM   10  C14 UNL     1       0.376   8.869   9.427  1.00  0.00     0.032 C 
HETATM   11  C15 UNL     1       0.099   9.939  10.409  1.00  0.00     0.043 C 
HETATM   12  C16 UNL     1       1.415  10.590   9.949  1.00  0.00     0.155 C 
HETATM   13  C17 UNL     1       1.864   9.242   9.516  1.00  0.00     0.112 C 
HETATM   14  O3  UNL     1       2.441   9.025   8.326  1.00  0.00    -0.367 OA
HETATM   15  C18 UNL     1       3.434   9.833   7.860  1.00  0.00     0.158 C 
ENDROOT
BRANCH   1  16
HETATM   16  C6  UNL     1       5.956   9.929   7.800  1.00  0.00    -0.005 C 
HETATM   17  C7  UNL     1       6.128  11.223   8.519  1.00  0.00     0.011 C 
BRANCH  16  18
HETATM   18  C5  UNL     1       7.257   9.164   7.895  1.00  0.00     0.005 C 
BRANCH  18  19
HETATM   19  C4  UNL     1       7.465   8.228   6.734  1.00  0.00     0.004 C 
BRANCH  19  20
HETATM   20  C2  UNL     1       8.475   8.674   5.740  1.00  0.00    -0.023 C 
HETATM   21  C1  UNL     1       9.047   7.398   5.098  1.00  0.00     0.009 C 
HETATM   22  C3  UNL     1       7.779   9.417   4.620  1.00  0.00     0.009 C 
ENDBRANCH  19  20
ENDBRANCH  18  19
ENDBRANCH  16  18
ENDBRANCH   1  16
BRANCH  15  23
HETATM   23  C19 UNL     1       3.272   9.864   6.332  1.00  0.00     0.197 C 
BRANCH  23  24
HETATM   24  O4  UNL     1       3.159  11.175   5.862  1.00  0.00    -0.398 OA
ATOM     25  H4  UNL     1       3.402  11.234   4.945  1.00  0.00     0.209 HD
ENDBRANCH  23  24
ENDBRANCH  15  23
BRANCH  12  26
HETATM   26  O2  UNL     1       1.134  11.550   9.019  1.00  0.00    -0.392 OA
ATOM     27  H2  UNL     1       1.725  12.283   9.144  1.00  0.00     0.210 HD
ENDBRANCH  12  26
TORSDOF 7
ENDMDL
