MODEL 1
REMARK VINA RESULT: -6.486164555      0.000      0.000
REMARK  9 active torsions:
REMARK  status: ('A' for Active; 'I' for Inactive)
REMARK    1  A    between atoms: C4_4  and  C5_5 
REMARK    2  A    between atoms: C5_5  and  N1_7 
REMARK    3  A    between atoms: N1_7  and  C6_9 
REMARK    4  A    between atoms: C6_9  and  C7_10 
REMARK    5  A    between atoms: C8_12  and  C9_13 
REMARK    6  A    between atoms: C8_12  and  C14_18 
REMARK    7  A    between atoms: C9_13  and  C10_14 
REMARK    8  A    between atoms: C15_21  and  O4_22 
REMARK    9  A    between atoms: C16_24  and  O5_25 
ROOT
HETATM    1  C7  UNL     1       1.110   3.759  13.454  1.00  0.00     0.172 C 
HETATM    2  O1  UNL     1       0.035   4.538  13.156  1.00  0.00    -0.357 OA
HETATM    3  C8  UNL     1      -0.123   4.735  11.825  1.00  0.00     0.178 C 
HETATM    4  C15 UNL     1       1.248   4.427  11.212  1.00  0.00     0.195 C 
HETATM    5  C16 UNL     1       1.799   3.412  12.146  1.00  0.00     0.181 C 
ENDROOT
BRANCH   1   6
HETATM    6  C6  UNL     1       0.754   2.499  14.203  1.00  0.00     0.155 C 
BRANCH   6   7
HETATM    7  N1  UNL     1       1.033   1.285  13.514  1.00  0.00    -0.379 N 
ATOM      8  H1  UNL     1       0.540   1.139  12.633  1.00  0.00     0.160 HD
BRANCH   7   9
HETATM    9  C5  UNL     1       1.925   0.252  13.921  1.00  0.00     0.096 C 
HETATM   10  S1  UNL     1       1.300  -1.251  14.004  1.00  0.00    -0.061 SA
BRANCH   9  11
HETATM   11  C4  UNL     1       3.316   0.524  14.220  1.00  0.00     0.043 C 
HETATM   12  C2  UNL     1       4.036  -0.073  15.142  1.00  0.00    -0.085 C 
HETATM   13  C1  UNL     1       3.593  -1.132  16.060  1.00  0.00     0.043 C 
HETATM   14  C3  UNL     1       5.476   0.398  15.257  1.00  0.00     0.043 C 
ENDBRANCH   9  11
ENDBRANCH   7   9
ENDBRANCH   6   7
ENDBRANCH   1   6
BRANCH   5  15
HETATM   15  O5  UNL     1       3.187   3.515  12.243  1.00  0.00    -0.390 OA
ATOM     16  H5  UNL     1       3.501   4.365  11.956  1.00  0.00     0.210 HD
ENDBRANCH   5  15
BRANCH   3  17
HETATM   17  C9  UNL     1      -1.114   3.899  11.124  1.00  0.00     0.061 C 
BRANCH  17  18
HETATM   18  C10 UNL     1      -2.365   3.527  11.795  1.00  0.00    -0.048 C 
HETATM   19  C11 UNL     1      -2.366   2.129  12.377  1.00  0.00     0.014 C 
HETATM   20  C12 UNL     1      -2.874   4.463  12.843  1.00  0.00     0.014 C 
HETATM   21  C13 UNL     1      -3.466   3.485  10.716  1.00  0.00     0.014 C 
ENDBRANCH  17  18
ENDBRANCH   3  17
BRANCH   3  22
HETATM   22  C14 UNL     1      -0.355   6.167  11.461  1.00  0.00     0.212 C 
HETATM   23  O2  UNL     1      -0.425   6.975  12.436  1.00  0.00    -0.646 OA
HETATM   24  O3  UNL     1      -0.490   6.632  10.181  1.00  0.00    -0.646 OA
ENDBRANCH   3  22
BRANCH   4  25
HETATM   25  O4  UNL     1       2.042   5.572  11.268  1.00  0.00    -0.389 OA
ATOM     26  H4  UNL     1       2.955   5.324  11.172  1.00  0.00     0.210 HD
ENDBRANCH   4  25
TORSDOF 9
ENDMDL
MODEL 2
REMARK VINA RESULT: -6.458508741      1.263      1.967
REMARK  9 active torsions:
REMARK  status: ('A' for Active; 'I' for Inactive)
REMARK    1  A    between atoms: C4_4  and  C5_5 
REMARK    2  A    between atoms: C5_5  and  N1_7 
REMARK    3  A    between atoms: N1_7  and  C6_9 
REMARK    4  A    between atoms: C6_9  and  C7_10 
REMARK    5  A    between atoms: C8_12  and  C9_13 
REMARK    6  A    between atoms: C8_12  and  C14_18 
REMARK    7  A    between atoms: C9_13  and  C10_14 
REMARK    8  A    between atoms: C15_21  and  O4_22 
REMARK    9  A    between atoms: C16_24  and  O5_25 
ROOT
HETATM    1  C7  UNL     1       1.236   3.890  13.243  1.00  0.00     0.172 C 
HETATM    2  O1  UNL     1       0.117   4.638  13.037  1.00  0.00    -0.357 OA
HETATM    3  C8  UNL     1      -0.137   4.859  11.725  1.00  0.00     0.178 C 
HETATM    4  C15 UNL     1       1.199   4.614  11.014  1.00  0.00     0.195 C 
HETATM    5  C16 UNL     1       1.846   3.599  11.883  1.00  0.00     0.181 C 
ENDROOT
BRANCH   1   6
HETATM    6  C6  UNL     1       0.974   2.601  13.982  1.00  0.00     0.155 C 
BRANCH   6   7
HETATM    7  N1  UNL     1       1.516   1.434  13.374  1.00  0.00    -0.379 N 
ATOM      8  H1  UNL     1       1.276   1.278  12.396  1.00  0.00     0.160 HD
BRANCH   7   9
HETATM    9  C5  UNL     1       2.358   0.461  13.985  1.00  0.00     0.096 C 
HETATM   10  S1  UNL     1       3.944   0.826  14.066  1.00  0.00    -0.061 SA
BRANCH   9  11
HETATM   11  C4  UNL     1       1.824  -0.774  14.524  1.00  0.00     0.043 C 
HETATM   12  C2  UNL     1       0.762  -1.411  14.085  1.00  0.00    -0.085 C 
HETATM   13  C1  UNL     1      -0.105  -1.014  12.966  1.00  0.00     0.043 C 
HETATM   14  C3  UNL     1       0.410  -2.689  14.827  1.00  0.00     0.043 C 
ENDBRANCH   9  11
ENDBRANCH   7   9
ENDBRANCH   6   7
ENDBRANCH   1   6
BRANCH   5  15
HETATM   15  O5  UNL     1       3.233   3.749  11.890  1.00  0.00    -0.390 OA
ATOM     16  H5  UNL     1       3.610   3.604  11.030  1.00  0.00     0.210 HD
ENDBRANCH   5  15
BRANCH   3  17
HETATM   17  C9  UNL     1      -1.144   4.005  11.071  1.00  0.00     0.061 C 
BRANCH  17  18
HETATM   18  C10 UNL     1      -2.325   3.560  11.819  1.00  0.00    -0.048 C 
HETATM   19  C11 UNL     1      -2.191   2.180  12.429  1.00  0.00     0.014 C 
HETATM   20  C12 UNL     1      -2.844   4.482  12.874  1.00  0.00     0.014 C 
HETATM   21  C13 UNL     1      -3.478   3.411  10.806  1.00  0.00     0.014 C 
ENDBRANCH  17  18
ENDBRANCH   3  17
BRANCH   3  22
HETATM   22  C14 UNL     1      -0.442   6.290  11.414  1.00  0.00     0.212 C 
HETATM   23  O2  UNL     1      -0.453   7.076  12.409  1.00  0.00    -0.646 OA
HETATM   24  O3  UNL     1      -0.698   6.776  10.160  1.00  0.00    -0.646 OA
ENDBRANCH   3  22
BRANCH   4  25
HETATM   25  O4  UNL     1       1.956   5.785  11.045  1.00  0.00    -0.389 OA
ATOM     26  H4  UNL     1       2.687   5.701  10.444  1.00  0.00     0.210 HD
ENDBRANCH   4  25
TORSDOF 9
ENDMDL
MODEL 3
REMARK VINA RESULT: -6.451194442      2.662      4.617
REMARK  9 active torsions:
REMARK  status: ('A' for Active; 'I' for Inactive)
REMARK    1  A    between atoms: C4_4  and  C5_5 
REMARK    2  A    between atoms: C5_5  and  N1_7 
REMARK    3  A    between atoms: N1_7  and  C6_9 
REMARK    4  A    between atoms: C6_9  and  C7_10 
REMARK    5  A    between atoms: C8_12  and  C9_13 
REMARK    6  A    between atoms: C8_12  and  C14_18 
REMARK    7  A    between atoms: C9_13  and  C10_14 
REMARK    8  A    between atoms: C15_21  and  O4_22 
REMARK    9  A    between atoms: C16_24  and  O5_25 
ROOT
HETATM    1  C7  UNL     1       0.313   5.399  11.076  1.00  0.00     0.172 C 
HETATM    2  O1  UNL     1       0.295   6.380  10.132  1.00  0.00    -0.357 OA
HETATM    3  C8  UNL     1       0.058   7.609  10.651  1.00  0.00     0.178 C 
HETATM    4  C15 UNL     1      -0.593   7.346  12.014  1.00  0.00     0.195 C 
HETATM    5  C16 UNL     1       0.007   6.048  12.414  1.00  0.00     0.181 C 
ENDROOT
BRANCH   1   6
HETATM    6  C6  UNL     1       1.623   4.655  11.147  1.00  0.00     0.155 C 
BRANCH   6   7
HETATM    7  N1  UNL     1       2.062   4.326  12.461  1.00  0.00    -0.379 N 
ATOM      8  H1  UNL     1       2.461   5.088  13.010  1.00  0.00     0.160 HD
BRANCH   7   9
HETATM    9  C5  UNL     1       2.005   3.051  13.091  1.00  0.00     0.096 C 
HETATM   10  S1  UNL     1       0.802   2.061  12.612  1.00  0.00    -0.061 SA
BRANCH   9  11
HETATM   11  C4  UNL     1       2.979   2.651  14.087  1.00  0.00     0.043 C 
HETATM   12  C2  UNL     1       4.128   2.061  13.846  1.00  0.00    -0.085 C 
HETATM   13  C1  UNL     1       4.668   1.683  12.532  1.00  0.00     0.043 C 
HETATM   14  C3  UNL     1       4.971   1.743  15.070  1.00  0.00     0.043 C 
ENDBRANCH   9  11
ENDBRANCH   7   9
ENDBRANCH   6   7
ENDBRANCH   1   6
BRANCH   5  15
HETATM   15  O5  UNL     1      -0.888   5.290  13.170  1.00  0.00    -0.390 OA
ATOM     16  H5  UNL     1      -1.780   5.604  13.085  1.00  0.00     0.210 HD
ENDBRANCH   5  15
BRANCH   3  17
HETATM   17  C9  UNL     1       1.218   8.488  10.882  1.00  0.00     0.061 C 
BRANCH  17  18
HETATM   18  C10 UNL     1       2.236   8.647   9.838  1.00  0.00    -0.048 C 
HETATM   19  C11 UNL     1       3.443   7.747  10.005  1.00  0.00     0.014 C 
HETATM   20  C12 UNL     1       1.774   8.541   8.421  1.00  0.00     0.014 C 
HETATM   21  C13 UNL     1       2.810  10.072   9.973  1.00  0.00     0.014 C 
ENDBRANCH  17  18
ENDBRANCH   3  17
BRANCH   3  22
HETATM   22  C14 UNL     1      -0.989   8.376   9.906  1.00  0.00     0.212 C 
HETATM   23  O2  UNL     1      -1.179   9.566  10.300  1.00  0.00    -0.646 OA
HETATM   24  O3  UNL     1      -1.720   7.879   8.861  1.00  0.00    -0.646 OA
ENDBRANCH   3  22
BRANCH   4  25
HETATM   25  O4  UNL     1      -1.967   7.176  11.840  1.00  0.00    -0.389 OA
ATOM     26  H4  UNL     1      -2.417   7.434  12.637  1.00  0.00     0.210 HD
ENDBRANCH   4  25
TORSDOF 9
ENDMDL
MODEL 4
REMARK VINA RESULT: -6.429128434      1.616      1.955
REMARK  9 active torsions:
REMARK  status: ('A' for Active; 'I' for Inactive)
REMARK    1  A    between atoms: C4_4  and  C5_5 
REMARK    2  A    between atoms: C5_5  and  N1_7 
REMARK    3  A    between atoms: N1_7  and  C6_9 
REMARK    4  A    between atoms: C6_9  and  C7_10 
REMARK    5  A    between atoms: C8_12  and  C9_13 
REMARK    6  A    between atoms: C8_12  and  C14_18 
REMARK    7  A    between atoms: C9_13  and  C10_14 
REMARK    8  A    between atoms: C15_21  and  O4_22 
REMARK    9  A    between atoms: C16_24  and  O5_25 
ROOT
HETATM    1  C7  UNL     1       1.212   4.821  12.617  1.00  0.00     0.172 C 
HETATM    2  O1  UNL     1       0.086   5.585  12.596  1.00  0.00    -0.357 OA
HETATM    3  C8  UNL     1      -0.467   5.680  11.363  1.00  0.00     0.178 C 
HETATM    4  C15 UNL     1       0.662   5.313  10.392  1.00  0.00     0.195 C 
HETATM    5  C16 UNL     1       1.482   4.368  11.193  1.00  0.00     0.181 C 
ENDROOT
BRANCH   1   6
HETATM    6  C6  UNL     1       1.114   3.625  13.532  1.00  0.00     0.155 C 
BRANCH   6   7
HETATM    7  N1  UNL     1       2.333   3.240  14.157  1.00  0.00    -0.379 N 
ATOM      8  H1  UNL     1       2.645   3.817  14.939  1.00  0.00     0.160 HD
BRANCH   7   9
HETATM    9  C5  UNL     1       3.164   2.137  13.812  1.00  0.00     0.096 C 
HETATM   10  S1  UNL     1       4.705   2.489  13.416  1.00  0.00    -0.061 SA
BRANCH   9  11
HETATM   11  C4  UNL     1       2.669   0.775  13.835  1.00  0.00     0.043 C 
HETATM   12  C2  UNL     1       3.144  -0.204  14.571  1.00  0.00    -0.085 C 
HETATM   13  C1  UNL     1       4.267  -0.133  15.517  1.00  0.00     0.043 C 
HETATM   14  C3  UNL     1       2.445  -1.543  14.410  1.00  0.00     0.043 C 
ENDBRANCH   9  11
ENDBRANCH   7   9
ENDBRANCH   6   7
ENDBRANCH   1   6
BRANCH   5  15
HETATM   15  O5  UNL     1       2.834   4.466  10.861  1.00  0.00    -0.390 OA
ATOM     16  H5  UNL     1       3.157   3.675  10.447  1.00  0.00     0.210 HD
ENDBRANCH   5  15
BRANCH   3  17
HETATM   17  C9  UNL     1      -1.610   4.802  11.056  1.00  0.00     0.061 C 
BRANCH  17  18
HETATM   18  C10 UNL     1      -2.496   4.350  12.135  1.00  0.00    -0.048 C 
HETATM   19  C11 UNL     1      -2.284   2.910  12.552  1.00  0.00     0.014 C 
HETATM   20  C12 UNL     1      -2.537   5.187  13.372  1.00  0.00     0.014 C 
HETATM   21  C13 UNL     1      -3.936   4.371  11.581  1.00  0.00     0.014 C 
ENDBRANCH  17  18
ENDBRANCH   3  17
BRANCH   3  22
HETATM   22  C14 UNL     1      -0.818   7.082  10.977  1.00  0.00     0.212 C 
HETATM   23  O2  UNL     1      -1.654   7.196  10.031  1.00  0.00    -0.646 OA
HETATM   24  O3  UNL     1      -0.304   8.203  11.570  1.00  0.00    -0.646 OA
ENDBRANCH   3  22
BRANCH   4  25
HETATM   25  O4  UNL     1       1.420   6.452  10.120  1.00  0.00    -0.389 OA
ATOM     26  H4  UNL     1       2.338   6.262  10.277  1.00  0.00     0.210 HD
ENDBRANCH   4  25
TORSDOF 9
ENDMDL
MODEL 5
REMARK VINA RESULT: -6.401027958      2.993      6.296
REMARK  9 active torsions:
REMARK  status: ('A' for Active; 'I' for Inactive)
REMARK    1  A    between atoms: C4_4  and  C5_5 
REMARK    2  A    between atoms: C5_5  and  N1_7 
REMARK    3  A    between atoms: N1_7  and  C6_9 
REMARK    4  A    between atoms: C6_9  and  C7_10 
REMARK    5  A    between atoms: C8_12  and  C9_13 
REMARK    6  A    between atoms: C8_12  and  C14_18 
REMARK    7  A    between atoms: C9_13  and  C10_14 
REMARK    8  A    between atoms: C15_21  and  O4_22 
REMARK    9  A    between atoms: C16_24  and  O5_25 
ROOT
HETATM    1  C7  UNL     1       0.708   3.584  11.979  1.00  0.00     0.172 C 
HETATM    2  O1  UNL     1       1.150   2.300  12.081  1.00  0.00    -0.357 OA
HETATM    3  C8  UNL     1       1.386   1.922  13.360  1.00  0.00     0.178 C 
HETATM    4  C15 UNL     1       1.546   3.233  14.139  1.00  0.00     0.195 C 
HETATM    5  C16 UNL     1       0.677   4.168  13.380  1.00  0.00     0.181 C 
ENDROOT
BRANCH   1   6
HETATM    6  C6  UNL     1      -0.652   3.704  11.336  1.00  0.00     0.155 C 
BRANCH   6   7
HETATM    7  N1  UNL     1      -0.923   4.960  10.724  1.00  0.00    -0.379 N 
ATOM      8  H1  UNL     1      -0.510   5.117   9.805  1.00  0.00     0.160 HD
BRANCH   7   9
HETATM    9  C5  UNL     1      -1.709   6.022  11.256  1.00  0.00     0.096 C 
HETATM   10  S1  UNL     1      -1.696   7.420  10.418  1.00  0.00    -0.061 SA
BRANCH   9  11
HETATM   11  C4  UNL     1      -2.495   5.855  12.462  1.00  0.00     0.043 C 
HETATM   12  C2  UNL     1      -3.719   5.384  12.525  1.00  0.00    -0.085 C 
HETATM   13  C1  UNL     1      -4.548   4.928  11.399  1.00  0.00     0.043 C 
HETATM   14  C3  UNL     1      -4.324   5.311  13.916  1.00  0.00     0.043 C 
ENDBRANCH   9  11
ENDBRANCH   7   9
ENDBRANCH   6   7
ENDBRANCH   1   6
BRANCH   5  15
HETATM   15  O5  UNL     1       1.183   5.468  13.414  1.00  0.00    -0.390 OA
ATOM     16  H5  UNL     1       2.019   5.513  13.863  1.00  0.00     0.210 HD
ENDBRANCH   5  15
BRANCH   3  17
HETATM   17  C9  UNL     1       0.346   1.132  14.042  1.00  0.00     0.061 C 
BRANCH  17  18
HETATM   18  C10 UNL     1      -0.467   0.178  13.279  1.00  0.00    -0.048 C 
HETATM   19  C11 UNL     1      -1.836   0.697  12.892  1.00  0.00     0.014 C 
HETATM   20  C12 UNL     1       0.159  -0.422  12.062  1.00  0.00     0.014 C 
HETATM   21  C13 UNL     1      -0.768  -1.013  14.212  1.00  0.00     0.014 C 
ENDBRANCH  17  18
ENDBRANCH   3  17
BRANCH   3  22
HETATM   22  C14 UNL     1       2.707   1.243  13.544  1.00  0.00     0.212 C 
HETATM   23  O2  UNL     1       2.760   0.398  14.488  1.00  0.00    -0.646 OA
HETATM   24  O3  UNL     1       3.815   1.477  12.776  1.00  0.00    -0.646 OA
ENDBRANCH   3  22
BRANCH   4  25
HETATM   25  O4  UNL     1       2.869   3.665  14.043  1.00  0.00    -0.389 OA
ATOM     26  H4  UNL     1       3.204   3.843  14.914  1.00  0.00     0.210 HD
ENDBRANCH   4  25
TORSDOF 9
ENDMDL
