MODEL 1
REMARK VINA RESULT: -7.713859725      0.000      0.000
REMARK  8 active torsions:
REMARK  status: ('A' for Active; 'I' for Inactive)
REMARK    1  A    between atoms: C4_4  and  C5_5 
REMARK    2  A    between atoms: C5_5  and  O1_6 
REMARK    3  A    between atoms: C5_5  and  C6_8 
REMARK    4  A    between atoms: C6_8  and  C8_10 
REMARK    5  A    between atoms: C8_10  and  C9_11 
REMARK    6  A    between atoms: C13_15  and  O2_16 
REMARK    7  A    between atoms: C15_21  and  O3_22 
REMARK    8  A    between atoms: O3_22  and  C16_23 
ROOT
HETATM    1  C9  UNL     1      -0.220   1.536  12.747  1.00  0.00    -0.010 C 
HETATM    2  C10 UNL     1       0.757   0.855  13.297  1.00  0.00     0.023 A 
HETATM    3  C11 UNL     1       0.490  -0.450  13.741  1.00  0.00     0.003 A 
HETATM    4  C12 UNL     1      -0.896  -1.028  13.573  1.00  0.00     0.054 C 
HETATM    5  C13 UNL     1       1.490  -1.177  14.317  1.00  0.00     0.147 A 
HETATM    6  N1  UNL     1       2.714  -0.650  14.458  1.00  0.00    -0.332 N 
ATOM      7  H1  UNL     1       3.448  -1.210  14.892  1.00  0.00     0.168 HD
HETATM    8  C14 UNL     1       2.999   0.592  14.046  1.00  0.00     0.108 A 
HETATM    9  C15 UNL     1       4.230   1.098  14.198  1.00  0.00     0.182 C 
HETATM   10  C17 UNL     1       2.019   1.371  13.454  1.00  0.00     0.211 A 
HETATM   11  O6  UNL     1       2.352   2.543  13.083  1.00  0.00    -0.285 OA
ENDROOT
BRANCH   1  12
HETATM   12  C8  UNL     1      -0.210   2.884  12.213  1.00  0.00     0.035 C 
BRANCH  12  13
HETATM   13  C6  UNL     1      -0.824   3.934  13.143  1.00  0.00     0.017 C 
HETATM   14  C7  UNL     1      -2.181   4.372  12.625  1.00  0.00     0.013 C 
BRANCH  13  15
HETATM   15  C5  UNL     1       0.067   5.154  13.042  1.00  0.00     0.145 C 
BRANCH  15  16
HETATM   16  C4  UNL     1       0.540   5.322  11.648  1.00  0.00     0.007 C 
HETATM   17  C2  UNL     1       0.337   6.433  10.980  1.00  0.00    -0.089 C 
HETATM   18  C1  UNL     1      -0.382   7.554  11.624  1.00  0.00     0.042 C 
HETATM   19  C3  UNL     1       0.802   6.626   9.579  1.00  0.00     0.042 C 
ENDBRANCH  15  16
BRANCH  15  20
HETATM   20  O1  UNL     1       1.103   4.998  13.953  1.00  0.00    -0.391 OA
ATOM     21  H1  UNL     1       0.928   5.413  14.790  1.00  0.00     0.210 HD
ENDBRANCH  15  20
ENDBRANCH  13  15
ENDBRANCH  12  13
ENDBRANCH   1  12
BRANCH   5  22
HETATM   22  O2  UNL     1       1.206  -2.483  14.755  1.00  0.00    -0.346 OA
ATOM     23  H2  UNL     1       1.393  -3.208  14.171  1.00  0.00     0.219 HD
ENDBRANCH   5  22
BRANCH   9  24
HETATM   24  O3  UNL     1       5.185   0.304  14.788  1.00  0.00    -0.263 OA
BRANCH  24  25
HETATM   25  C16 UNL     1       5.536   0.495  16.120  1.00  0.00     0.337 C 
HETATM   26  O4  UNL     1       5.901   1.633  16.526  1.00  0.00    -0.623 OA
HETATM   27  O5  UNL     1       5.485  -0.557  16.998  1.00  0.00    -0.623 OA
ENDBRANCH  24  25
ENDBRANCH   9  24
TORSDOF 8
ENDMDL
MODEL 2
REMARK VINA RESULT: -7.640716816      1.358      1.595
REMARK  8 active torsions:
REMARK  status: ('A' for Active; 'I' for Inactive)
REMARK    1  A    between atoms: C4_4  and  C5_5 
REMARK    2  A    between atoms: C5_5  and  O1_6 
REMARK    3  A    between atoms: C5_5  and  C6_8 
REMARK    4  A    between atoms: C6_8  and  C8_10 
REMARK    5  A    between atoms: C8_10  and  C9_11 
REMARK    6  A    between atoms: C13_15  and  O2_16 
REMARK    7  A    between atoms: C15_21  and  O3_22 
REMARK    8  A    between atoms: O3_22  and  C16_23 
ROOT
HETATM    1  C9  UNL     1      -0.178   2.247  13.477  1.00  0.00    -0.010 C 
HETATM    2  C10 UNL     1       0.796   1.403  13.729  1.00  0.00     0.023 A 
HETATM    3  C11 UNL     1       0.508   0.029  13.698  1.00  0.00     0.003 A 
HETATM    4  C12 UNL     1      -0.893  -0.435  13.378  1.00  0.00     0.054 C 
HETATM    5  C13 UNL     1       1.504  -0.866  13.958  1.00  0.00     0.147 A 
HETATM    6  N1  UNL     1       2.742  -0.438  14.241  1.00  0.00    -0.332 N 
ATOM      7  H1  UNL     1       3.473  -1.123  14.432  1.00  0.00     0.168 HD
HETATM    8  C14 UNL     1       3.046   0.866  14.279  1.00  0.00     0.108 A 
HETATM    9  C15 UNL     1       4.291   1.271  14.564  1.00  0.00     0.182 C 
HETATM   10  C17 UNL     1       2.071   1.816  14.022  1.00  0.00     0.211 A 
HETATM   11  O6  UNL     1       2.423   3.039  14.072  1.00  0.00    -0.285 OA
ENDROOT
BRANCH   1  12
HETATM   12  C8  UNL     1      -0.149   3.696  13.445  1.00  0.00     0.035 C 
BRANCH  12  13
HETATM   13  C6  UNL     1      -1.203   4.327  12.531  1.00  0.00     0.017 C 
HETATM   14  C7  UNL     1      -2.461   3.480  12.510  1.00  0.00     0.013 C 
BRANCH  13  15
HETATM   15  C5  UNL     1      -0.636   4.255  11.129  1.00  0.00     0.145 C 
BRANCH  15  16
HETATM   16  C4  UNL     1      -0.031   5.555  10.759  1.00  0.00     0.007 C 
HETATM   17  C2  UNL     1       1.263   5.689  10.584  1.00  0.00    -0.089 C 
HETATM   18  C1  UNL     1       2.151   4.518  10.758  1.00  0.00     0.042 C 
HETATM   19  C3  UNL     1       1.895   6.985  10.213  1.00  0.00     0.042 C 
ENDBRANCH  15  16
BRANCH  15  20
HETATM   20  O1  UNL     1      -1.664   3.871  10.277  1.00  0.00    -0.391 OA
ATOM     21  H1  UNL     1      -2.478   4.332  10.445  1.00  0.00     0.210 HD
ENDBRANCH  15  20
ENDBRANCH  13  15
ENDBRANCH  12  13
ENDBRANCH   1  12
BRANCH   5  22
HETATM   22  O2  UNL     1       1.201  -2.239  13.923  1.00  0.00    -0.346 OA
ATOM     23  H2  UNL     1       0.309  -2.511  14.102  1.00  0.00     0.219 HD
ENDBRANCH   5  22
BRANCH   9  24
HETATM   24  O3  UNL     1       5.240   0.308  14.814  1.00  0.00    -0.263 OA
BRANCH  24  25
HETATM   25  C16 UNL     1       5.401  -0.205  16.097  1.00  0.00     0.337 C 
HETATM   26  O4  UNL     1       6.178   0.361  16.916  1.00  0.00    -0.623 OA
HETATM   27  O5  UNL     1       4.715  -1.330  16.475  1.00  0.00    -0.623 OA
ENDBRANCH  24  25
ENDBRANCH   9  24
TORSDOF 8
ENDMDL
MODEL 3
REMARK VINA RESULT: -7.634229828      1.255      1.630
REMARK  8 active torsions:
REMARK  status: ('A' for Active; 'I' for Inactive)
REMARK    1  A    between atoms: C4_4  and  C5_5 
REMARK    2  A    between atoms: C5_5  and  O1_6 
REMARK    3  A    between atoms: C5_5  and  C6_8 
REMARK    4  A    between atoms: C6_8  and  C8_10 
REMARK    5  A    between atoms: C8_10  and  C9_11 
REMARK    6  A    between atoms: C13_15  and  O2_16 
REMARK    7  A    between atoms: C15_21  and  O3_22 
REMARK    8  A    between atoms: O3_22  and  C16_23 
ROOT
HETATM    1  C9  UNL     1       0.143   2.600  13.052  1.00  0.00    -0.010 C 
HETATM    2  C10 UNL     1       0.986   1.674  13.443  1.00  0.00     0.023 A 
HETATM    3  C11 UNL     1       0.554   0.338  13.440  1.00  0.00     0.003 A 
HETATM    4  C12 UNL     1      -0.850   0.007  12.991  1.00  0.00     0.054 C 
HETATM    5  C13 UNL     1       1.413  -0.642  13.844  1.00  0.00     0.147 A 
HETATM    6  N1  UNL     1       2.655  -0.332  14.239  1.00  0.00    -0.332 N 
ATOM      7  H1  UNL     1       3.282  -1.079  14.537  1.00  0.00     0.168 HD
HETATM    8  C14 UNL     1       3.095   0.933  14.254  1.00  0.00     0.108 A 
HETATM    9  C15 UNL     1       4.342   1.219  14.653  1.00  0.00     0.182 C 
HETATM   10  C17 UNL     1       2.263   1.964  13.854  1.00  0.00     0.211 A 
HETATM   11  O6  UNL     1       2.740   3.145  13.890  1.00  0.00    -0.285 OA
ENDROOT
BRANCH   1  12
HETATM   12  C8  UNL     1       0.334   4.034  12.963  1.00  0.00     0.035 C 
BRANCH  12  13
HETATM   13  C6  UNL     1       0.095   4.616  11.567  1.00  0.00     0.017 C 
HETATM   14  C7  UNL     1       0.052   3.507  10.532  1.00  0.00     0.013 C 
BRANCH  13  15
HETATM   15  C5  UNL     1       1.325   5.435  11.238  1.00  0.00     0.145 C 
BRANCH  15  16
HETATM   16  C4  UNL     1       1.105   6.202   9.991  1.00  0.00     0.007 C 
HETATM   17  C2  UNL     1       1.476   7.456   9.877  1.00  0.00    -0.089 C 
HETATM   18  C1  UNL     1       2.132   8.132  11.018  1.00  0.00     0.042 C 
HETATM   19  C3  UNL     1       1.266   8.248   8.634  1.00  0.00     0.042 C 
ENDBRANCH  15  16
BRANCH  15  20
HETATM   20  O1  UNL     1       2.404   4.565  11.159  1.00  0.00    -0.391 OA
ATOM     21  H1  UNL     1       3.035   4.690  11.858  1.00  0.00     0.210 HD
ENDBRANCH  15  20
ENDBRANCH  13  15
ENDBRANCH  12  13
ENDBRANCH   1  12
BRANCH   5  22
HETATM   22  O2  UNL     1       0.965  -1.975  13.834  1.00  0.00    -0.346 OA
ATOM     23  H2  UNL     1       0.460  -2.290  14.575  1.00  0.00     0.219 HD
ENDBRANCH   5  22
BRANCH   9  24
HETATM   24  O3  UNL     1       5.148   0.176  15.045  1.00  0.00    -0.263 OA
BRANCH  24  25
HETATM   25  C16 UNL     1       5.015  -0.379  16.313  1.00  0.00     0.337 C 
HETATM   26  O4  UNL     1       5.572   0.164  17.308  1.00  0.00    -0.623 OA
HETATM   27  O5  UNL     1       4.277  -1.521  16.486  1.00  0.00    -0.623 OA
ENDBRANCH  24  25
ENDBRANCH   9  24
TORSDOF 8
ENDMDL
MODEL 4
REMARK VINA RESULT: -7.588870113      1.117      2.233
REMARK  8 active torsions:
REMARK  status: ('A' for Active; 'I' for Inactive)
REMARK    1  A    between atoms: C4_4  and  C5_5 
REMARK    2  A    between atoms: C5_5  and  O1_6 
REMARK    3  A    between atoms: C5_5  and  C6_8 
REMARK    4  A    between atoms: C6_8  and  C8_10 
REMARK    5  A    between atoms: C8_10  and  C9_11 
REMARK    6  A    between atoms: C13_15  and  O2_16 
REMARK    7  A    between atoms: C15_21  and  O3_22 
REMARK    8  A    between atoms: O3_22  and  C16_23 
ROOT
HETATM    1  C9  UNL     1       0.873   2.982  11.958  1.00  0.00    -0.010 C 
HETATM    2  C10 UNL     1       1.409   2.053  12.715  1.00  0.00     0.023 A 
HETATM    3  C11 UNL     1       0.579   1.027  13.193  1.00  0.00     0.003 A 
HETATM    4  C12 UNL     1      -0.886   1.017  12.828  1.00  0.00     0.054 C 
HETATM    5  C13 UNL     1       1.114   0.051  13.983  1.00  0.00     0.147 A 
HETATM    6  N1  UNL     1       2.416   0.074  14.298  1.00  0.00    -0.332 N 
ATOM      7  H1  UNL     1       2.797  -0.665  14.890  1.00  0.00     0.168 HD
HETATM    8  C14 UNL     1       3.232   1.041  13.857  1.00  0.00     0.108 A 
HETATM    9  C15 UNL     1       4.531   1.043  14.186  1.00  0.00     0.182 C 
HETATM   10  C17 UNL     1       2.739   2.054  13.053  1.00  0.00     0.211 A 
HETATM   11  O6  UNL     1       3.564   2.944  12.666  1.00  0.00    -0.285 OA
ENDROOT
BRANCH   1  12
HETATM   12  C8  UNL     1       1.499   4.137  11.343  1.00  0.00     0.035 C 
BRANCH  12  13
HETATM   13  C6  UNL     1       0.583   5.356  11.215  1.00  0.00     0.017 C 
HETATM   14  C7  UNL     1       1.401   6.610  10.971  1.00  0.00     0.013 C 
BRANCH  13  15
HETATM   15  C5  UNL     1      -0.058   5.542  12.573  1.00  0.00     0.145 C 
BRANCH  15  16
HETATM   16  C4  UNL     1      -1.308   6.326  12.442  1.00  0.00     0.007 C 
HETATM   17  C2  UNL     1      -2.489   5.760  12.528  1.00  0.00    -0.089 C 
HETATM   18  C1  UNL     1      -2.588   4.303  12.762  1.00  0.00     0.042 C 
HETATM   19  C3  UNL     1      -3.760   6.526  12.398  1.00  0.00     0.042 C 
ENDBRANCH  15  16
BRANCH  15  20
HETATM   20  O1  UNL     1       0.878   6.146  13.403  1.00  0.00    -0.391 OA
ATOM     21  H1  UNL     1       1.643   5.603  13.557  1.00  0.00     0.210 HD
ENDBRANCH  15  20
ENDBRANCH  13  15
ENDBRANCH  12  13
ENDBRANCH   1  12
BRANCH   5  22
HETATM   22  O2  UNL     1       0.270  -0.970  14.453  1.00  0.00    -0.346 OA
ATOM     23  H2  UNL     1       0.467  -1.868  14.214  1.00  0.00     0.219 HD
ENDBRANCH   5  22
BRANCH   9  24
HETATM   24  O3  UNL     1       4.995   0.025  14.986  1.00  0.00    -0.263 OA
BRANCH  24  25
HETATM   25  C16 UNL     1       5.500   0.299  16.252  1.00  0.00     0.337 C 
HETATM   26  O4  UNL     1       5.928   1.453  16.532  1.00  0.00    -0.623 OA
HETATM   27  O5  UNL     1       5.534  -0.689  17.203  1.00  0.00    -0.623 OA
ENDBRANCH  24  25
ENDBRANCH   9  24
TORSDOF 8
ENDMDL
MODEL 5
REMARK VINA RESULT: -7.584834417      1.966      4.467
REMARK  8 active torsions:
REMARK  status: ('A' for Active; 'I' for Inactive)
REMARK    1  A    between atoms: C4_4  and  C5_5 
REMARK    2  A    between atoms: C5_5  and  O1_6 
REMARK    3  A    between atoms: C5_5  and  C6_8 
REMARK    4  A    between atoms: C6_8  and  C8_10 
REMARK    5  A    between atoms: C8_10  and  C9_11 
REMARK    6  A    between atoms: C13_15  and  O2_16 
REMARK    7  A    between atoms: C15_21  and  O3_22 
REMARK    8  A    between atoms: O3_22  and  C16_23 
ROOT
HETATM    1  C9  UNL     1       2.781   1.603  13.548  1.00  0.00    -0.010 C 
HETATM    2  C10 UNL     1       2.658   0.489  14.231  1.00  0.00     0.023 A 
HETATM    3  C11 UNL     1       3.746   0.065  15.009  1.00  0.00     0.003 A 
HETATM    4  C12 UNL     1       5.011   0.890  15.041  1.00  0.00     0.054 C 
HETATM    5  C13 UNL     1       3.642  -1.091  15.727  1.00  0.00     0.147 A 
HETATM    6  N1  UNL     1       2.513  -1.812  15.688  1.00  0.00    -0.332 N 
ATOM      7  H1  UNL     1       2.455  -2.672  16.233  1.00  0.00     0.168 HD
HETATM    8  C14 UNL     1       1.459  -1.432  14.954  1.00  0.00     0.108 A 
HETATM    9  C15 UNL     1       0.340  -2.169  14.931  1.00  0.00     0.182 C 
HETATM   10  C17 UNL     1       1.513  -0.267  14.208  1.00  0.00     0.211 A 
HETATM   11  O6  UNL     1       0.479   0.040  13.531  1.00  0.00    -0.285 OA
ENDROOT
BRANCH   1  12
HETATM   12  C8  UNL     1       1.822   2.254  12.677  1.00  0.00     0.035 C 
BRANCH  12  13
HETATM   13  C6  UNL     1       1.276   3.578  13.219  1.00  0.00     0.017 C 
HETATM   14  C7  UNL     1       0.506   3.346  14.506  1.00  0.00     0.013 C 
BRANCH  13  15
HETATM   15  C5  UNL     1       0.254   4.054  12.209  1.00  0.00     0.145 C 
BRANCH  15  16
HETATM   16  C4  UNL     1      -1.090   4.100  12.831  1.00  0.00     0.007 C 
HETATM   17  C2  UNL     1      -1.793   5.207  12.872  1.00  0.00    -0.089 C 
HETATM   18  C1  UNL     1      -1.241   6.449  12.287  1.00  0.00     0.042 C 
HETATM   19  C3  UNL     1      -3.146   5.278  13.491  1.00  0.00     0.042 C 
ENDBRANCH  15  16
BRANCH  15  20
HETATM   20  O1  UNL     1       0.318   3.206  11.112  1.00  0.00    -0.391 OA
ATOM     21  H1  UNL     1       0.893   3.527  10.426  1.00  0.00     0.210 HD
ENDBRANCH  15  20
ENDBRANCH  13  15
ENDBRANCH  12  13
ENDBRANCH   1  12
BRANCH   5  22
HETATM   22  O2  UNL     1       4.740  -1.503  16.502  1.00  0.00    -0.346 OA
ATOM     23  H2  UNL     1       5.493  -0.926  16.565  1.00  0.00     0.219 HD
ENDBRANCH   5  22
BRANCH   9  24
HETATM   24  O3  UNL     1       0.311  -3.321  15.682  1.00  0.00    -0.263 OA
BRANCH  24  25
HETATM   25  C16 UNL     1      -0.598  -4.331  15.388  1.00  0.00     0.337 C 
HETATM   26  O4  UNL     1      -1.710  -4.052  14.858  1.00  0.00    -0.623 OA
HETATM   27  O5  UNL     1      -0.289  -5.635  15.675  1.00  0.00    -0.623 OA
ENDBRANCH  24  25
ENDBRANCH   9  24
TORSDOF 8
ENDMDL
