MODEL 1
REMARK VINA RESULT: -7.204260566      0.000      0.000
REMARK  10 active torsions:
REMARK  status: ('A' for Active; 'I' for Inactive)
REMARK    1  A    between atoms: C2_2  and  C3_4 
REMARK    2  A    between atoms: C3_4  and  C4_5 
REMARK    3  A    between atoms: C3_4  and  C10_11 
REMARK    4  A    between atoms: C4_5  and  C5_6 
REMARK    5  A    between atoms: C5_6  and  C6_7 
REMARK    6  A    between atoms: C10_11  and  O2_12 
REMARK    7  A    between atoms: C15_18  and  O3_19 
REMARK    8  A    between atoms: C16_21  and  O4_22 
REMARK    9  A    between atoms: C16_21  and  C17_24 
REMARK   10  A    between atoms: C17_24  and  O5_25 
ROOT
HETATM    1  C10 UNL     1       3.535  10.655   8.843  1.00  0.00     0.098 C 
HETATM    2  C11 UNL     1       3.052  11.951   8.285  1.00  0.00     0.021 C 
HETATM    3  C12 UNL     1       2.915  12.172   6.857  1.00  0.00     0.013 C 
HETATM    4  C13 UNL     1       1.793  12.454   8.993  1.00  0.00     0.010 C 
HETATM    5  C14 UNL     1       0.590  11.650   8.701  1.00  0.00     0.035 C 
HETATM    6  C15 UNL     1       0.334  10.508   9.643  1.00  0.00     0.155 C 
HETATM    7  C16 UNL     1       1.434   9.576   9.851  1.00  0.00     0.115 C 
HETATM    8  C18 UNL     1       2.604   9.528   8.962  1.00  0.00     0.024 C 
HETATM    9  C19 UNL     1       3.335   8.346   9.647  1.00  0.00     0.022 C 
HETATM   10  C20 UNL     1       2.104   8.975   7.619  1.00  0.00     0.022 C 
ENDROOT
BRANCH   1  11
HETATM   11  C3  UNL     1       4.937  10.438   8.438  1.00  0.00     0.001 C 
BRANCH  11  12
HETATM   12  C2  UNL     1       5.871  11.546   8.744  1.00  0.00     0.150 C 
HETATM   13  C1  UNL     1       6.633  12.351   7.745  1.00  0.00     0.096 C 
HETATM   14  O1  UNL     1       6.139  11.957   9.891  1.00  0.00    -0.293 OA
ENDBRANCH  11  12
BRANCH  11  15
HETATM   15  C4  UNL     1       5.359   9.712   7.267  1.00  0.00     0.045 C 
BRANCH  15  16
HETATM   16  C5  UNL     1       6.418   8.657   7.342  1.00  0.00     0.032 C 
BRANCH  16  17
HETATM   17  C6  UNL     1       7.448   8.597   6.322  1.00  0.00    -0.024 C 
HETATM   18  C7  UNL     1       8.186   7.488   6.093  1.00  0.00    -0.091 C 
HETATM   19  C8  UNL     1       9.210   7.543   5.026  1.00  0.00     0.042 C 
HETATM   20  C9  UNL     1       8.005   6.252   6.862  1.00  0.00     0.042 C 
ENDBRANCH  16  17
ENDBRANCH  15  16
ENDBRANCH  11  15
ENDBRANCH   1  11
BRANCH   1  21
HETATM   21  O2  UNL     1       3.629  11.024  10.238  1.00  0.00    -0.384 OA
ATOM     22  H2  UNL     1       3.512  11.966  10.234  1.00  0.00     0.211 HD
ENDBRANCH   1  21
BRANCH   7  23
HETATM   23  O4  UNL     1       0.791   8.308   9.575  1.00  0.00    -0.384 OA
ATOM     24  H4  UNL     1       1.505   7.816   9.188  1.00  0.00     0.210 HD
ENDBRANCH   7  23
BRANCH   7  25
HETATM   25  C17 UNL     1       1.675   9.415  11.340  1.00  0.00     0.205 C 
BRANCH  25  26
HETATM   26  O5  UNL     1       1.108  10.558  11.978  1.00  0.00    -0.398 OA
ATOM     27  H5  UNL     1       1.830  11.055  12.345  1.00  0.00     0.209 HD
ENDBRANCH  25  26
ENDBRANCH   7  25
BRANCH   6  28
HETATM   28  O3  UNL     1      -0.946   9.938   9.440  1.00  0.00    -0.392 OA
ATOM     29  H3  UNL     1      -0.953   9.010   9.643  1.00  0.00     0.210 HD
ENDBRANCH   6  28
TORSDOF 10
ENDMDL
MODEL 2
REMARK VINA RESULT: -6.808487873      7.419     10.506
REMARK  10 active torsions:
REMARK  status: ('A' for Active; 'I' for Inactive)
REMARK    1  A    between atoms: C2_2  and  C3_4 
REMARK    2  A    between atoms: C3_4  and  C4_5 
REMARK    3  A    between atoms: C3_4  and  C10_11 
REMARK    4  A    between atoms: C4_5  and  C5_6 
REMARK    5  A    between atoms: C5_6  and  C6_7 
REMARK    6  A    between atoms: C10_11  and  O2_12 
REMARK    7  A    between atoms: C15_18  and  O3_19 
REMARK    8  A    between atoms: C16_21  and  O4_22 
REMARK    9  A    between atoms: C16_21  and  C17_24 
REMARK   10  A    between atoms: C17_24  and  O5_25 
ROOT
HETATM    1  C10 UNL     1      -1.916   3.951  11.734  1.00  0.00     0.098 C 
HETATM    2  C11 UNL     1      -2.710   5.129  12.190  1.00  0.00     0.021 C 
HETATM    3  C12 UNL     1      -3.199   5.248  13.552  1.00  0.00     0.013 C 
HETATM    4  C13 UNL     1      -2.077   6.455  11.768  1.00  0.00     0.010 C 
HETATM    5  C14 UNL     1      -0.825   6.767  12.486  1.00  0.00     0.035 C 
HETATM    6  C15 UNL     1       0.433   6.271  11.833  1.00  0.00     0.155 C 
HETATM    7  C16 UNL     1       0.475   4.855  11.492  1.00  0.00     0.115 C 
HETATM    8  C18 UNL     1      -0.483   3.884  12.040  1.00  0.00     0.024 C 
HETATM    9  C19 UNL     1       0.110   2.614  11.380  1.00  0.00     0.022 C 
HETATM   10  C20 UNL     1      -0.160   3.755  13.536  1.00  0.00     0.022 C 
ENDROOT
BRANCH   1  11
HETATM   11  C3  UNL     1      -2.758   2.741  11.786  1.00  0.00     0.001 C 
BRANCH  11  12
HETATM   12  C2  UNL     1      -4.020   2.804  11.013  1.00  0.00     0.150 C 
HETATM   13  C1  UNL     1      -5.398   2.785  11.583  1.00  0.00     0.096 C 
HETATM   14  O1  UNL     1      -4.092   2.889   9.770  1.00  0.00    -0.293 OA
ENDBRANCH  11  12
BRANCH  11  15
HETATM   15  C4  UNL     1      -2.892   1.873  12.928  1.00  0.00     0.045 C 
BRANCH  15  16
HETATM   16  C5  UNL     1      -2.547   0.419  12.849  1.00  0.00     0.032 C 
BRANCH  16  17
HETATM   17  C6  UNL     1      -1.196  -0.019  13.143  1.00  0.00    -0.024 C 
HETATM   18  C7  UNL     1      -0.925  -1.163  13.809  1.00  0.00    -0.091 C 
HETATM   19  C8  UNL     1       0.493  -1.507  14.052  1.00  0.00     0.042 C 
HETATM   20  C9  UNL     1      -1.983  -2.058  14.292  1.00  0.00     0.042 C 
ENDBRANCH  16  17
ENDBRANCH  15  16
ENDBRANCH  11  15
ENDBRANCH   1  11
BRANCH   1  21
HETATM   21  O2  UNL     1      -1.836   4.258  10.323  1.00  0.00    -0.384 OA
ATOM     22  H2  UNL     1      -0.921   4.118  10.111  1.00  0.00     0.211 HD
ENDBRANCH   1  21
BRANCH   7  23
HETATM   23  O4  UNL     1       1.715   4.446  12.120  1.00  0.00    -0.384 OA
ATOM     24  H4  UNL     1       1.405   4.148  12.967  1.00  0.00     0.210 HD
ENDBRANCH   7  23
BRANCH   7  25
HETATM   25  C17 UNL     1       0.873   4.706  10.035  1.00  0.00     0.205 C 
BRANCH  25  26
HETATM   26  O5  UNL     1       0.589   5.950   9.399  1.00  0.00    -0.398 OA
ATOM     27  H5  UNL     1       1.183   6.592   9.770  1.00  0.00     0.209 HD
ENDBRANCH  25  26
ENDBRANCH   7  25
BRANCH   6  28
HETATM   28  O3  UNL     1       1.589   6.806  12.451  1.00  0.00    -0.392 OA
ATOM     29  H3  UNL     1       2.359   6.702  11.903  1.00  0.00     0.210 HD
ENDBRANCH   6  28
TORSDOF 10
ENDMDL
MODEL 3
REMARK VINA RESULT: -6.455273266      7.484      9.862
REMARK  10 active torsions:
REMARK  status: ('A' for Active; 'I' for Inactive)
REMARK    1  A    between atoms: C2_2  and  C3_4 
REMARK    2  A    between atoms: C3_4  and  C4_5 
REMARK    3  A    between atoms: C3_4  and  C10_11 
REMARK    4  A    between atoms: C4_5  and  C5_6 
REMARK    5  A    between atoms: C5_6  and  C6_7 
REMARK    6  A    between atoms: C10_11  and  O2_12 
REMARK    7  A    between atoms: C15_18  and  O3_19 
REMARK    8  A    between atoms: C16_21  and  O4_22 
REMARK    9  A    between atoms: C16_21  and  C17_24 
REMARK   10  A    between atoms: C17_24  and  O5_25 
ROOT
HETATM    1  C10 UNL     1      -1.319   4.374  12.555  1.00  0.00     0.098 C 
HETATM    2  C11 UNL     1      -0.440   5.436  11.984  1.00  0.00     0.021 C 
HETATM    3  C12 UNL     1       0.160   5.313  10.667  1.00  0.00     0.013 C 
HETATM    4  C13 UNL     1      -1.047   6.832  12.130  1.00  0.00     0.010 C 
HETATM    5  C14 UNL     1      -2.222   7.059  11.267  1.00  0.00     0.035 C 
HETATM    6  C15 UNL     1      -3.549   6.716  11.882  1.00  0.00     0.155 C 
HETATM    7  C16 UNL     1      -3.680   5.377  12.443  1.00  0.00     0.115 C 
HETATM    8  C18 UNL     1      -2.725   4.301  12.143  1.00  0.00     0.024 C 
HETATM    9  C19 UNL     1      -3.423   3.176  12.947  1.00  0.00     0.022 C 
HETATM   10  C20 UNL     1      -2.933   3.937  10.665  1.00  0.00     0.022 C 
ENDROOT
BRANCH   1  11
HETATM   11  C3  UNL     1      -0.530   3.147  12.771  1.00  0.00     0.001 C 
BRANCH  11  12
HETATM   12  C2  UNL     1       0.588   3.265  13.736  1.00  0.00     0.150 C 
HETATM   13  C1  UNL     1       2.040   3.284  13.397  1.00  0.00     0.096 C 
HETATM   14  O1  UNL     1       0.455   3.372  14.972  1.00  0.00    -0.293 OA
ENDBRANCH  11  12
BRANCH  11  15
HETATM   15  C4  UNL     1      -0.243   2.157  11.764  1.00  0.00     0.045 C 
BRANCH  15  16
HETATM   16  C5  UNL     1       0.071   0.740  12.128  1.00  0.00     0.032 C 
BRANCH  16  17
HETATM   17  C6  UNL     1      -0.906  -0.052  12.851  1.00  0.00    -0.024 C 
HETATM   18  C7  UNL     1      -0.569  -1.123  13.602  1.00  0.00    -0.091 C 
HETATM   19  C8  UNL     1      -1.652  -1.855  14.294  1.00  0.00     0.042 C 
HETATM   20  C9  UNL     1       0.820  -1.573  13.747  1.00  0.00     0.042 C 
ENDBRANCH  16  17
ENDBRANCH  15  16
ENDBRANCH  11  15
ENDBRANCH   1  11
BRANCH   1  21
HETATM   21  O2  UNL     1      -1.497   4.912  13.885  1.00  0.00    -0.384 OA
ATOM     22  H2  UNL     1      -1.855   5.778  13.736  1.00  0.00     0.211 HD
ENDBRANCH   1  21
BRANCH   7  23
HETATM   23  O4  UNL     1      -4.882   4.908  11.785  1.00  0.00    -0.384 OA
ATOM     24  H4  UNL     1      -5.325   4.465  12.499  1.00  0.00     0.210 HD
ENDBRANCH   7  23
BRANCH   7  25
HETATM   25  C17 UNL     1      -4.198   5.483  13.865  1.00  0.00     0.205 C 
BRANCH  25  26
HETATM   26  O5  UNL     1      -5.230   6.467  13.858  1.00  0.00    -0.398 OA
ATOM     27  H5  UNL     1      -4.940   7.173  14.423  1.00  0.00     0.209 HD
ENDBRANCH  25  26
ENDBRANCH   7  25
BRANCH   6  28
HETATM   28  O3  UNL     1      -4.628   7.176  11.090  1.00  0.00    -0.392 OA
ATOM     29  H3  UNL     1      -5.405   6.644  11.212  1.00  0.00     0.210 HD
ENDBRANCH   6  28
TORSDOF 10
ENDMDL
MODEL 4
REMARK VINA RESULT: -6.393007469      7.943     11.492
REMARK  10 active torsions:
REMARK  status: ('A' for Active; 'I' for Inactive)
REMARK    1  A    between atoms: C2_2  and  C3_4 
REMARK    2  A    between atoms: C3_4  and  C4_5 
REMARK    3  A    between atoms: C3_4  and  C10_11 
REMARK    4  A    between atoms: C4_5  and  C5_6 
REMARK    5  A    between atoms: C5_6  and  C6_7 
REMARK    6  A    between atoms: C10_11  and  O2_12 
REMARK    7  A    between atoms: C15_18  and  O3_19 
REMARK    8  A    between atoms: C16_21  and  O4_22 
REMARK    9  A    between atoms: C16_21  and  C17_24 
REMARK   10  A    between atoms: C17_24  and  O5_25 
ROOT
HETATM    1  C10 UNL     1      -2.361   4.027  11.648  1.00  0.00     0.098 C 
HETATM    2  C11 UNL     1      -2.984   5.328  12.030  1.00  0.00     0.021 C 
HETATM    3  C12 UNL     1      -3.549   5.554  13.347  1.00  0.00     0.013 C 
HETATM    4  C13 UNL     1      -2.110   6.523  11.648  1.00  0.00     0.010 C 
HETATM    5  C14 UNL     1      -0.883   6.642  12.460  1.00  0.00     0.035 C 
HETATM    6  C15 UNL     1       0.323   5.933  11.913  1.00  0.00     0.155 C 
HETATM    7  C16 UNL     1       0.157   4.522  11.589  1.00  0.00     0.115 C 
HETATM    8  C18 UNL     1      -0.987   3.733  12.067  1.00  0.00     0.024 C 
HETATM    9  C19 UNL     1      -0.562   2.369  11.467  1.00  0.00     0.022 C 
HETATM   10  C20 UNL     1      -0.806   3.585  13.585  1.00  0.00     0.022 C 
ENDROOT
BRANCH   1  11
HETATM   11  C3  UNL     1      -3.392   2.972  11.644  1.00  0.00     0.001 C 
BRANCH  11  12
HETATM   12  C2  UNL     1      -4.411   3.076  10.574  1.00  0.00     0.150 C 
HETATM   13  C1  UNL     1      -5.813   3.556  10.742  1.00  0.00     0.096 C 
HETATM   14  O1  UNL     1      -4.222   2.776   9.377  1.00  0.00    -0.293 OA
ENDBRANCH  11  12
BRANCH  11  15
HETATM   15  C4  UNL     1      -3.937   2.339  12.818  1.00  0.00     0.045 C 
BRANCH  15  16
HETATM   16  C5  UNL     1      -4.336   0.897  12.815  1.00  0.00     0.032 C 
BRANCH  16  17
HETATM   17  C6  UNL     1      -5.721   0.532  13.041  1.00  0.00    -0.024 C 
HETATM   18  C7  UNL     1      -6.133  -0.130  14.146  1.00  0.00    -0.091 C 
HETATM   19  C8  UNL     1      -7.572  -0.449  14.268  1.00  0.00     0.042 C 
HETATM   20  C9  UNL     1      -5.205  -0.534  15.208  1.00  0.00     0.042 C 
ENDBRANCH  16  17
ENDBRANCH  15  16
ENDBRANCH  11  15
ENDBRANCH   1  11
BRANCH   1  21
HETATM   21  O2  UNL     1      -2.124   4.286  10.246  1.00  0.00    -0.384 OA
ATOM     22  H2  UNL     1      -2.630   5.070  10.069  1.00  0.00     0.211 HD
ENDBRANCH   1  21
BRANCH   7  23
HETATM   23  O4  UNL     1       1.261   3.930  12.317  1.00  0.00    -0.384 OA
ATOM     24  H4  UNL     1       1.358   3.100  11.866  1.00  0.00     0.210 HD
ENDBRANCH   7  23
BRANCH   7  25
HETATM   25  C17 UNL     1       0.636   4.279  10.170  1.00  0.00     0.205 C 
BRANCH  25  26
HETATM   26  O5  UNL     1       0.662   5.547   9.518  1.00  0.00    -0.398 OA
ATOM     27  H5  UNL     1       1.233   5.459   8.765  1.00  0.00     0.209 HD
ENDBRANCH  25  26
ENDBRANCH   7  25
BRANCH   6  28
HETATM   28  O3  UNL     1       1.500   6.285  12.616  1.00  0.00    -0.392 OA
ATOM     29  H3  UNL     1       1.414   7.129  13.044  1.00  0.00     0.210 HD
ENDBRANCH   6  28
TORSDOF 10
ENDMDL
MODEL 5
REMARK VINA RESULT: -6.258534506      7.409      9.491
REMARK  10 active torsions:
REMARK  status: ('A' for Active; 'I' for Inactive)
REMARK    1  A    between atoms: C2_2  and  C3_4 
REMARK    2  A    between atoms: C3_4  and  C4_5 
REMARK    3  A    between atoms: C3_4  and  C10_11 
REMARK    4  A    between atoms: C4_5  and  C5_6 
REMARK    5  A    between atoms: C5_6  and  C6_7 
REMARK    6  A    between atoms: C10_11  and  O2_12 
REMARK    7  A    between atoms: C15_18  and  O3_19 
REMARK    8  A    between atoms: C16_21  and  O4_22 
REMARK    9  A    between atoms: C16_21  and  C17_24 
REMARK   10  A    between atoms: C17_24  and  O5_25 
ROOT
HETATM    1  C10 UNL     1      -2.186   4.232  11.636  1.00  0.00     0.098 C 
HETATM    2  C11 UNL     1      -3.048   3.059  11.309  1.00  0.00     0.021 C 
HETATM    3  C12 UNL     1      -3.490   2.120  12.324  1.00  0.00     0.013 C 
HETATM    4  C13 UNL     1      -4.238   3.442  10.428  1.00  0.00     0.010 C 
HETATM    5  C14 UNL     1      -5.257   4.248  11.129  1.00  0.00     0.035 C 
HETATM    6  C15 UNL     1      -5.067   5.737  11.047  1.00  0.00     0.155 C 
HETATM    7  C16 UNL     1      -3.763   6.250  11.446  1.00  0.00     0.115 C 
HETATM    8  C18 UNL     1      -2.796   5.440  12.201  1.00  0.00     0.024 C 
HETATM    9  C19 UNL     1      -1.700   6.525  12.361  1.00  0.00     0.022 C 
HETATM   10  C20 UNL     1      -3.391   5.253  13.604  1.00  0.00     0.022 C 
ENDROOT
BRANCH   1  11
HETATM   11  C3  UNL     1      -0.870   3.758  12.105  1.00  0.00     0.001 C 
BRANCH  11  12
HETATM   12  C2  UNL     1       0.179   3.650  11.066  1.00  0.00     0.150 C 
HETATM   13  C1  UNL     1       1.450   4.430  11.019  1.00  0.00     0.096 C 
HETATM   14  O1  UNL     1       0.137   2.878  10.086  1.00  0.00    -0.293 OA
ENDBRANCH  11  12
BRANCH  11  15
HETATM   15  C4  UNL     1      -0.661   2.795  13.156  1.00  0.00     0.045 C 
BRANCH  15  16
HETATM   16  C5  UNL     1       0.613   2.757  13.939  1.00  0.00     0.032 C 
BRANCH  16  17
HETATM   17  C6  UNL     1       1.390   1.533  13.993  1.00  0.00    -0.024 C 
HETATM   18  C7  UNL     1       2.741   1.524  14.007  1.00  0.00    -0.091 C 
HETATM   19  C8  UNL     1       3.427   0.214  14.063  1.00  0.00     0.042 C 
HETATM   20  C9  UNL     1       3.534   2.758  13.968  1.00  0.00     0.042 C 
ENDBRANCH  16  17
ENDBRANCH  15  16
ENDBRANCH  11  15
ENDBRANCH   1  11
BRANCH   1  21
HETATM   21  O2  UNL     1      -1.927   4.710  10.297  1.00  0.00    -0.384 OA
ATOM     22  H2  UNL     1      -1.937   5.655  10.385  1.00  0.00     0.211 HD
ENDBRANCH   1  21
BRANCH   7  23
HETATM   23  O4  UNL     1      -4.137   7.259  12.415  1.00  0.00    -0.384 OA
ATOM     24  H4  UNL     1      -3.351   7.791  12.443  1.00  0.00     0.210 HD
ENDBRANCH   7  23
BRANCH   7  25
HETATM   25  C17 UNL     1      -3.224   7.146  10.347  1.00  0.00     0.205 C 
BRANCH  25  26
HETATM   26  O5  UNL     1      -3.696   6.615   9.110  1.00  0.00    -0.398 OA
ATOM     27  H5  UNL     1      -4.035   7.346   8.608  1.00  0.00     0.209 HD
ENDBRANCH  25  26
ENDBRANCH   7  25
BRANCH   6  28
HETATM   28  O3  UNL     1      -6.196   6.435  11.536  1.00  0.00    -0.392 OA
ATOM     29  H3  UNL     1      -6.677   6.860  10.835  1.00  0.00     0.210 HD
ENDBRANCH   6  28
TORSDOF 10
ENDMDL
