MODEL 1
REMARK VINA RESULT: -7.364407209      0.000      0.000
REMARK  9 active torsions:
REMARK  status: ('A' for Active; 'I' for Inactive)
REMARK    1  A    between atoms: C2_2  and  N1_4 
REMARK    2  A    between atoms: N1_4  and  C4_5 
REMARK    3  A    between atoms: C4_5  and  C5_6 
REMARK    4  A    between atoms: C8_11  and  C9_12 
REMARK    5  A    between atoms: C14_21  and  N5_22 
REMARK    6  A    between atoms: C15_24  and  C16_25 
REMARK    7  A    between atoms: C16_25  and  O1_26 
REMARK    8  A    between atoms: C16_25  and  C17_28 
REMARK    9  A    between atoms: C17_28  and  O2_29 
ROOT
HETATM    1  C5  UNL     1       1.738   0.446  13.805  1.00  0.00     0.038 A 
HETATM    2  C6  UNL     1       1.504  -0.758  14.453  1.00  0.00     0.051 A 
HETATM    3  C7  UNL     1       0.216  -1.286  14.387  1.00  0.00     0.079 A 
HETATM    4  N2  UNL     1      -0.310  -2.417  14.890  1.00  0.00    -0.342 N 
ATOM      5  H2  UNL     1       0.177  -3.118  15.449  1.00  0.00     0.167 HD
HETATM    6  C8  UNL     1      -1.623  -2.450  14.508  1.00  0.00     0.091 A 
HETATM    7  N3  UNL     1      -1.912  -1.379  13.793  1.00  0.00    -0.330 N 
ATOM      8  H3  UNL     1      -2.818  -1.152  13.382  1.00  0.00     0.168 HD
HETATM    9  C13 UNL     1      -0.774  -0.633  13.705  1.00  0.00     0.135 A 
HETATM   10  N4  UNL     1      -0.538   0.505  13.099  1.00  0.00    -0.326 N 
ATOM     11  H4  UNL     1      -1.295   0.972  12.599  1.00  0.00     0.169 HD
HETATM   12  C14 UNL     1       0.729   1.091  13.124  1.00  0.00     0.119 A 
ENDROOT
BRANCH  12  13
HETATM   13  N5  UNL     1       0.839   2.135  12.514  1.00  0.00    -0.353 N 
HETATM   14  C15 UNL     1       0.506   3.062  11.576  1.00  0.00     0.096 C 
ATOM     15  H5  UNL     1       1.647   2.564  12.963  1.00  0.00     0.166 HD
BRANCH  14  16
HETATM   16  C16 UNL     1       1.400   4.314  11.548  1.00  0.00     0.180 C 
BRANCH  16  17
HETATM   17  O1  UNL     1       2.666   3.837  11.967  1.00  0.00    -0.388 OA
ATOM     18  H1  UNL     1       3.105   4.612  12.296  1.00  0.00     0.210 HD
ENDBRANCH  16  17
BRANCH  16  19
HETATM   19  C17 UNL     1       0.943   5.350  12.557  1.00  0.00     0.201 C 
BRANCH  19  20
HETATM   20  O2  UNL     1       1.039   4.852  13.835  1.00  0.00    -0.398 OA
ATOM     21  H2  UNL     1       1.406   5.506  14.419  1.00  0.00     0.209 HD
ENDBRANCH  19  20
ENDBRANCH  16  19
ENDBRANCH  14  16
ENDBRANCH  12  13
BRANCH   1  22
HETATM   22  C4  UNL     1       3.110   1.018  13.824  1.00  0.00     0.190 C 
BRANCH  22  23
HETATM   23  N1  UNL     1       3.933   0.702  14.630  1.00  0.00    -0.455 NA
BRANCH  23  24
HETATM   24  C2  UNL     1       4.999   0.271  15.267  1.00  0.00     0.154 C 
HETATM   25  C1  UNL     1       4.766  -0.766  16.373  1.00  0.00     0.047 C 
HETATM   26  C3  UNL     1       5.792   1.455  15.875  1.00  0.00     0.047 C 
ENDBRANCH  23  24
ENDBRANCH  22  23
ENDBRANCH   1  22
BRANCH   6  27
HETATM   27  C9  UNL     1      -2.554  -3.571  14.875  1.00  0.00     0.007 C 
HETATM   28  C10 UNL     1      -3.284  -3.227  16.175  1.00  0.00     0.022 C 
HETATM   29  C11 UNL     1      -3.585  -3.850  13.837  1.00  0.00     0.022 C 
HETATM   30  C12 UNL     1      -1.701  -4.772  15.206  1.00  0.00     0.022 C 
ENDBRANCH   6  27
TORSDOF 9
ENDMDL
MODEL 2
REMARK VINA RESULT: -7.307925556      3.757      6.238
REMARK  9 active torsions:
REMARK  status: ('A' for Active; 'I' for Inactive)
REMARK    1  A    between atoms: C2_2  and  N1_4 
REMARK    2  A    between atoms: N1_4  and  C4_5 
REMARK    3  A    between atoms: C4_5  and  C5_6 
REMARK    4  A    between atoms: C8_11  and  C9_12 
REMARK    5  A    between atoms: C14_21  and  N5_22 
REMARK    6  A    between atoms: C15_24  and  C16_25 
REMARK    7  A    between atoms: C16_25  and  O1_26 
REMARK    8  A    between atoms: C16_25  and  C17_28 
REMARK    9  A    between atoms: C17_28  and  O2_29 
ROOT
HETATM    1  C5  UNL     1       0.939   2.641  12.125  1.00  0.00     0.038 A 
HETATM    2  C6  UNL     1       1.250   1.476  12.810  1.00  0.00     0.051 A 
HETATM    3  C7  UNL     1       2.410   1.472  13.581  1.00  0.00     0.079 A 
HETATM    4  N2  UNL     1       2.962   0.520  14.356  1.00  0.00    -0.342 N 
ATOM      5  H2  UNL     1       2.604  -0.423  14.508  1.00  0.00     0.167 HD
HETATM    6  C8  UNL     1       4.096   1.058  14.901  1.00  0.00     0.091 A 
HETATM    7  N3  UNL     1       4.252   2.300  14.484  1.00  0.00    -0.330 N 
ATOM      8  H3  UNL     1       5.012   2.932  14.736  1.00  0.00     0.168 HD
HETATM    9  C13 UNL     1       3.208   2.581  13.653  1.00  0.00     0.135 A 
HETATM   10  N4  UNL     1       2.901   3.675  12.998  1.00  0.00    -0.326 N 
ATOM     11  H4  UNL     1       3.514   4.488  13.068  1.00  0.00     0.169 HD
HETATM   12  C14 UNL     1       1.754   3.750  12.207  1.00  0.00     0.119 A 
ENDROOT
BRANCH  12  13
HETATM   13  N5  UNL     1       1.558   4.816  11.661  1.00  0.00    -0.353 N 
HETATM   14  C15 UNL     1       1.590   5.703  10.631  1.00  0.00     0.096 C 
ATOM     15  H5  UNL     1       1.115   5.360  12.400  1.00  0.00     0.166 HD
BRANCH  14  16
HETATM   16  C16 UNL     1       0.990   7.086  10.941  1.00  0.00     0.180 C 
BRANCH  16  17
HETATM   17  O1  UNL     1       1.988   7.724  11.717  1.00  0.00    -0.388 OA
ATOM     18  H1  UNL     1       2.449   8.270  11.091  1.00  0.00     0.210 HD
ENDBRANCH  16  17
BRANCH  16  19
HETATM   19  C17 UNL     1      -0.257   6.975  11.797  1.00  0.00     0.201 C 
BRANCH  19  20
HETATM   20  O2  UNL     1       0.081   6.779  13.115  1.00  0.00    -0.398 OA
ATOM     21  H2  UNL     1      -0.696   6.604  13.634  1.00  0.00     0.209 HD
ENDBRANCH  19  20
ENDBRANCH  16  19
ENDBRANCH  14  16
ENDBRANCH  12  13
BRANCH   1  22
HETATM   22  C4  UNL     1      -0.311   2.692  11.323  1.00  0.00     0.190 C 
BRANCH  22  23
HETATM   23  N1  UNL     1      -1.274   3.313  11.663  1.00  0.00    -0.455 NA
BRANCH  23  24
HETATM   24  C2  UNL     1      -2.485   3.747  11.937  1.00  0.00     0.154 C 
HETATM   25  C1  UNL     1      -2.629   4.644  13.173  1.00  0.00     0.047 C 
HETATM   26  C3  UNL     1      -3.473   2.563  12.082  1.00  0.00     0.047 C 
ENDBRANCH  23  24
ENDBRANCH  22  23
ENDBRANCH   1  22
BRANCH   6  27
HETATM   27  C9  UNL     1       4.994   0.298  15.836  1.00  0.00     0.007 C 
HETATM   28  C10 UNL     1       6.188  -0.262  15.059  1.00  0.00     0.022 C 
HETATM   29  C11 UNL     1       5.528   1.128  16.951  1.00  0.00     0.022 C 
HETATM   30  C12 UNL     1       4.227  -0.914  16.308  1.00  0.00     0.022 C 
ENDBRANCH   6  27
TORSDOF 9
ENDMDL
MODEL 3
REMARK VINA RESULT: -7.304203025      2.148      4.254
REMARK  9 active torsions:
REMARK  status: ('A' for Active; 'I' for Inactive)
REMARK    1  A    between atoms: C2_2  and  N1_4 
REMARK    2  A    between atoms: N1_4  and  C4_5 
REMARK    3  A    between atoms: C4_5  and  C5_6 
REMARK    4  A    between atoms: C8_11  and  C9_12 
REMARK    5  A    between atoms: C14_21  and  N5_22 
REMARK    6  A    between atoms: C15_24  and  C16_25 
REMARK    7  A    between atoms: C16_25  and  O1_26 
REMARK    8  A    between atoms: C16_25  and  C17_28 
REMARK    9  A    between atoms: C17_28  and  O2_29 
ROOT
HETATM    1  C5  UNL     1       1.687  -0.246  13.988  1.00  0.00     0.038 A 
HETATM    2  C6  UNL     1       0.392  -0.627  13.669  1.00  0.00     0.051 A 
HETATM    3  C7  UNL     1      -0.161  -1.689  14.382  1.00  0.00     0.079 A 
HETATM    4  N2  UNL     1      -1.372  -2.271  14.316  1.00  0.00    -0.342 N 
ATOM      5  H2  UNL     1      -2.133  -2.021  13.684  1.00  0.00     0.167 HD
HETATM    6  C8  UNL     1      -1.389  -3.262  15.259  1.00  0.00     0.091 A 
HETATM    7  N3  UNL     1      -0.233  -3.302  15.893  1.00  0.00    -0.330 N 
ATOM      8  H3  UNL     1       0.024  -3.944  16.643  1.00  0.00     0.168 HD
HETATM    9  C13 UNL     1       0.555  -2.326  15.358  1.00  0.00     0.135 A 
HETATM   10  N4  UNL     1       1.779  -1.955  15.647  1.00  0.00    -0.326 N 
ATOM     11  H4  UNL     1       2.291  -2.447  16.379  1.00  0.00     0.169 HD
HETATM   12  C14 UNL     1       2.395  -0.899  14.974  1.00  0.00     0.119 A 
ENDROOT
BRANCH  12  13
HETATM   13  N5  UNL     1       3.523  -0.629  15.335  1.00  0.00    -0.353 N 
HETATM   14  C15 UNL     1       4.590  -0.648  16.177  1.00  0.00     0.096 C 
ATOM     15  H5  UNL     1       3.867  -0.061  14.562  1.00  0.00     0.166 HD
BRANCH  14  16
HETATM   16  C16 UNL     1       5.823   0.131  15.686  1.00  0.00     0.180 C 
BRANCH  16  17
HETATM   17  O1  UNL     1       6.881  -0.369  16.483  1.00  0.00    -0.388 OA
ATOM     18  H1  UNL     1       7.553  -0.599  15.852  1.00  0.00     0.210 HD
ENDBRANCH  16  17
BRANCH  16  19
HETATM   19  C17 UNL     1       5.696   1.615  15.969  1.00  0.00     0.201 C 
BRANCH  19  20
HETATM   20  O2  UNL     1       4.860   2.210  15.053  1.00  0.00    -0.398 OA
ATOM     21  H2  UNL     1       5.365   2.626  14.364  1.00  0.00     0.209 HD
ENDBRANCH  19  20
ENDBRANCH  16  19
ENDBRANCH  14  16
ENDBRANCH  12  13
BRANCH   1  22
HETATM   22  C4  UNL     1       2.294   0.907  13.273  1.00  0.00     0.190 C 
BRANCH  22  23
HETATM   23  N1  UNL     1       2.100   2.042  13.592  1.00  0.00    -0.455 NA
BRANCH  23  24
HETATM   24  C2  UNL     1       1.688   3.286  13.705  1.00  0.00     0.154 C 
HETATM   25  C1  UNL     1       0.346   3.504  14.415  1.00  0.00     0.047 C 
HETATM   26  C3  UNL     1       1.616   3.970  12.317  1.00  0.00     0.047 C 
ENDBRANCH  23  24
ENDBRANCH  22  23
ENDBRANCH   1  22
BRANCH   6  27
HETATM   27  C9  UNL     1      -2.583  -4.143  15.498  1.00  0.00     0.007 C 
HETATM   28  C10 UNL     1      -3.570  -3.997  14.338  1.00  0.00     0.022 C 
HETATM   29  C11 UNL     1      -2.239  -5.587  15.620  1.00  0.00     0.022 C 
HETATM   30  C12 UNL     1      -3.308  -3.599  16.705  1.00  0.00     0.022 C 
ENDBRANCH   6  27
TORSDOF 9
ENDMDL
MODEL 4
REMARK VINA RESULT: -7.255907451      2.799      6.829
REMARK  9 active torsions:
REMARK  status: ('A' for Active; 'I' for Inactive)
REMARK    1  A    between atoms: C2_2  and  N1_4 
REMARK    2  A    between atoms: N1_4  and  C4_5 
REMARK    3  A    between atoms: C4_5  and  C5_6 
REMARK    4  A    between atoms: C8_11  and  C9_12 
REMARK    5  A    between atoms: C14_21  and  N5_22 
REMARK    6  A    between atoms: C15_24  and  C16_25 
REMARK    7  A    between atoms: C16_25  and  O1_26 
REMARK    8  A    between atoms: C16_25  and  C17_28 
REMARK    9  A    between atoms: C17_28  and  O2_29 
ROOT
HETATM    1  C5  UNL     1       2.192   0.842  13.877  1.00  0.00     0.038 A 
HETATM    2  C6  UNL     1       1.083   1.266  13.160  1.00  0.00     0.051 A 
HETATM    3  C7  UNL     1       1.023   2.611  12.802  1.00  0.00     0.079 A 
HETATM    4  N2  UNL     1       0.104   3.309  12.109  1.00  0.00    -0.342 N 
ATOM      5  H2  UNL     1      -0.764   2.945  11.714  1.00  0.00     0.167 HD
HETATM    6  C8  UNL     1       0.555   4.598  12.035  1.00  0.00     0.091 A 
HETATM    7  N3  UNL     1       1.713   4.708  12.658  1.00  0.00    -0.330 N 
ATOM      8  H3  UNL     1       2.270   5.557  12.755  1.00  0.00     0.168 HD
HETATM    9  C13 UNL     1       2.026   3.475  13.149  1.00  0.00     0.135 A 
HETATM   10  N4  UNL     1       3.067   3.059  13.828  1.00  0.00    -0.326 N 
ATOM     11  H4  UNL     1       3.800   3.724  14.076  1.00  0.00     0.169 HD
HETATM   12  C14 UNL     1       3.194   1.725  14.220  1.00  0.00     0.119 A 
ENDROOT
BRANCH  12  13
HETATM   13  N5  UNL     1       4.207   1.448  14.828  1.00  0.00    -0.353 N 
HETATM   14  C15 UNL     1       5.537   1.501  15.108  1.00  0.00     0.096 C 
ATOM     15  H5  UNL     1       3.863   0.803  15.539  1.00  0.00     0.166 HD
BRANCH  14  16
HETATM   16  C16 UNL     1       5.988   0.639  16.300  1.00  0.00     0.180 C 
BRANCH  16  17
HETATM   17  O1  UNL     1       6.858  -0.316  15.719  1.00  0.00    -0.388 OA
ATOM     18  H1  UNL     1       7.600  -0.338  16.310  1.00  0.00     0.210 HD
ENDBRANCH  16  17
BRANCH  16  19
HETATM   19  C17 UNL     1       4.826  -0.113  16.918  1.00  0.00     0.201 C 
BRANCH  19  20
HETATM   20  O2  UNL     1       4.780  -1.403  16.444  1.00  0.00    -0.398 OA
ATOM     21  H2  UNL     1       4.953  -1.419  15.510  1.00  0.00     0.209 HD
ENDBRANCH  19  20
ENDBRANCH  16  19
ENDBRANCH  14  16
ENDBRANCH  12  13
BRANCH   1  22
HETATM   22  C4  UNL     1       2.307  -0.593  14.242  1.00  0.00     0.190 C 
BRANCH  22  23
HETATM   23  N1  UNL     1       1.370  -1.254  14.577  1.00  0.00    -0.455 NA
BRANCH  23  24
HETATM   24  C2  UNL     1       0.233  -1.713  15.053  1.00  0.00     0.154 C 
HETATM   25  C1  UNL     1       0.197  -3.198  15.435  1.00  0.00     0.047 C 
HETATM   26  C3  UNL     1      -0.927  -1.440  14.064  1.00  0.00     0.047 C 
ENDBRANCH  23  24
ENDBRANCH  22  23
ENDBRANCH   1  22
BRANCH   6  27
HETATM   27  C9  UNL     1      -0.199   5.689  11.329  1.00  0.00     0.007 C 
HETATM   28  C10 UNL     1      -0.396   6.875  12.277  1.00  0.00     0.022 C 
HETATM   29  C11 UNL     1       0.491   6.194  10.110  1.00  0.00     0.022 C 
HETATM   30  C12 UNL     1      -1.590   5.168  11.055  1.00  0.00     0.022 C 
ENDBRANCH   6  27
TORSDOF 9
ENDMDL
MODEL 5
REMARK VINA RESULT: -7.247650253      2.800      6.851
REMARK  9 active torsions:
REMARK  status: ('A' for Active; 'I' for Inactive)
REMARK    1  A    between atoms: C2_2  and  N1_4 
REMARK    2  A    between atoms: N1_4  and  C4_5 
REMARK    3  A    between atoms: C4_5  and  C5_6 
REMARK    4  A    between atoms: C8_11  and  C9_12 
REMARK    5  A    between atoms: C14_21  and  N5_22 
REMARK    6  A    between atoms: C15_24  and  C16_25 
REMARK    7  A    between atoms: C16_25  and  O1_26 
REMARK    8  A    between atoms: C16_25  and  C17_28 
REMARK    9  A    between atoms: C17_28  and  O2_29 
ROOT
HETATM    1  C5  UNL     1       2.207   0.839  13.893  1.00  0.00     0.038 A 
HETATM    2  C6  UNL     1       1.089   1.264  13.192  1.00  0.00     0.051 A 
HETATM    3  C7  UNL     1       1.011   2.614  12.859  1.00  0.00     0.079 A 
HETATM    4  N2  UNL     1       0.080   3.314  12.185  1.00  0.00    -0.342 N 
ATOM      5  H2  UNL     1      -0.786   2.948  11.789  1.00  0.00     0.167 HD
HETATM    6  C8  UNL     1       0.517   4.609  12.132  1.00  0.00     0.091 A 
HETATM    7  N3  UNL     1       1.677   4.720  12.749  1.00  0.00    -0.330 N 
ATOM      8  H3  UNL     1       2.226   5.574  12.858  1.00  0.00     0.168 HD
HETATM    9  C13 UNL     1       2.007   3.482  13.215  1.00  0.00     0.135 A 
HETATM   10  N4  UNL     1       3.058   3.065  13.880  1.00  0.00    -0.326 N 
ATOM     11  H4  UNL     1       3.785   3.734  14.135  1.00  0.00     0.169 HD
HETATM   12  C14 UNL     1       3.201   1.726  14.246  1.00  0.00     0.119 A 
ENDROOT
BRANCH  12  13
HETATM   13  N5  UNL     1       4.221   1.448  14.842  1.00  0.00    -0.353 N 
HETATM   14  C15 UNL     1       5.553   1.506  15.110  1.00  0.00     0.096 C 
ATOM     15  H5  UNL     1       3.887   0.796  15.551  1.00  0.00     0.166 HD
BRANCH  14  16
HETATM   16  C16 UNL     1       6.020   0.636  16.290  1.00  0.00     0.180 C 
BRANCH  16  17
HETATM   17  O1  UNL     1       6.843  -0.345  15.685  1.00  0.00    -0.388 OA
ATOM     18  H1  UNL     1       7.632   0.131  15.452  1.00  0.00     0.210 HD
ENDBRANCH  16  17
BRANCH  16  19
HETATM   19  C17 UNL     1       4.859  -0.081  16.950  1.00  0.00     0.201 C 
BRANCH  19  20
HETATM   20  O2  UNL     1       4.769  -1.374  16.491  1.00  0.00    -0.398 OA
ATOM     21  H2  UNL     1       3.869  -1.677  16.525  1.00  0.00     0.209 HD
ENDBRANCH  19  20
ENDBRANCH  16  19
ENDBRANCH  14  16
ENDBRANCH  12  13
BRANCH   1  22
HETATM   22  C4  UNL     1       2.340  -0.602  14.231  1.00  0.00     0.190 C 
BRANCH  22  23
HETATM   23  N1  UNL     1       1.398  -1.321  14.389  1.00  0.00    -0.455 NA
BRANCH  23  24
HETATM   24  C2  UNL     1       0.365  -2.123  14.256  1.00  0.00     0.154 C 
HETATM   25  C1  UNL     1      -0.996  -1.457  14.016  1.00  0.00     0.047 C 
HETATM   26  C3  UNL     1       0.234  -3.060  15.483  1.00  0.00     0.047 C 
ENDBRANCH  23  24
ENDBRANCH  22  23
ENDBRANCH   1  22
BRANCH   6  27
HETATM   27  C9  UNL     1      -0.254   5.705  11.451  1.00  0.00     0.007 C 
HETATM   28  C10 UNL     1      -1.624   5.178  11.019  1.00  0.00     0.022 C 
HETATM   29  C11 UNL     1      -0.479   6.897  12.314  1.00  0.00     0.022 C 
HETATM   30  C12 UNL     1       0.468   6.028  10.164  1.00  0.00     0.022 C 
ENDBRANCH   6  27
TORSDOF 9
ENDMDL
