MODEL 1
REMARK VINA RESULT: -8.678418420      0.000      0.000
REMARK  8 active torsions:
REMARK  status: ('A' for Active; 'I' for Inactive)
REMARK    1  A    between atoms: C2_2  and  C3_3 
REMARK    2  A    between atoms: C3_3  and  C4_4 
REMARK    3  A    between atoms: C4_4  and  C5_5 
REMARK       I    between atoms: C5_5  and  N1_7 
REMARK    4  A    between atoms: C8_10  and  C9_11 
REMARK    5  A    between atoms: C9_11  and  C10_12 
REMARK    6  A    between atoms: C10_12  and  N2_13 
REMARK    7  A    between atoms: C12_18  and  N4_19 
REMARK    8  A    between atoms: N4_19  and  C13_20 
ROOT
HETATM    1  N2  UNL     1     -18.244  -7.588  10.260  1.00  0.00    -0.354 N 
ATOM      2  H2  UNL     1     -18.926  -6.988   9.796  1.00  0.00     0.166 HD
HETATM    3  C11 UNL     1     -18.445  -7.513  11.470  1.00  0.00     0.131 A 
HETATM    4  N3  UNL     1     -17.767  -8.139  12.405  1.00  0.00    -0.301 N 
ATOM      5  H3  UNL     1     -16.990  -8.732  12.114  1.00  0.00     0.171 HD
HETATM    6  C12 UNL     1     -18.034  -8.045  13.738  1.00  0.00     0.261 A 
HETATM    7  N7  UNL     1     -19.086  -7.241  14.147  1.00  0.00    -0.325 N 
ATOM      8  H7  UNL     1     -19.315  -7.148  15.137  1.00  0.00     0.169 HD
HETATM    9  C19 UNL     1     -19.793  -6.591  13.223  1.00  0.00     0.119 A 
HETATM   10  C20 UNL     1     -19.508  -6.698  11.892  1.00  0.00     0.093 A 
HETATM   11 CL1  UNL     1     -20.432  -5.848  10.705  1.00  0.00    -0.079 Cl
ENDROOT
BRANCH   1  12
HETATM   12  C10 UNL     1     -17.465  -8.160   9.288  1.00  0.00     0.063 C 
BRANCH  12  13
HETATM   13  C9  UNL     1     -16.125  -8.750   9.697  1.00  0.00     0.049 C 
BRANCH  13  14
HETATM   14  C8  UNL     1     -16.060 -10.219   9.358  1.00  0.00    -0.007 C 
HETATM   15  C7  UNL     1     -17.441 -10.789   9.271  1.00  0.00     0.025 C 
HETATM   16  C6  UNL     1     -17.382 -12.233   8.827  1.00  0.00     0.126 C 
HETATM   17  N1  UNL     1     -16.610 -12.973   9.807  1.00  0.00    -0.352 N 
HETATM   18  C5  UNL     1     -16.875 -14.355  10.023  1.00  0.00     0.219 C 
HETATM   19  C22 UNL     1     -15.585 -12.379  10.590  1.00  0.00     0.126 C 
HETATM   20  O1  UNL     1     -17.785 -14.901   9.368  1.00  0.00    -0.273 OA
HETATM   21  C21 UNL     1     -15.190 -10.990  10.321  1.00  0.00     0.025 C 
BRANCH  18  22
HETATM   22  C4  UNL     1     -16.085 -15.116  10.993  1.00  0.00     0.103 C 
BRANCH  22  23
HETATM   23  C3  UNL     1     -16.232 -16.592  10.754  1.00  0.00     0.009 C 
BRANCH  23  24
HETATM   24  C2  UNL     1     -15.866 -17.294  12.061  1.00  0.00    -0.004 C 
HETATM   25  C1  UNL     1     -15.176 -16.344  12.995  1.00  0.00     0.005 C 
ENDBRANCH  23  24
ENDBRANCH  22  23
ENDBRANCH  18  22
ENDBRANCH  13  14
ENDBRANCH  12  13
ENDBRANCH   1  12
BRANCH   6  26
HETATM   26  N4  UNL     1     -17.405  -8.602  14.596  1.00  0.00    -0.367 NA
BRANCH  26  27
HETATM   27  C13 UNL     1     -16.664  -9.147  15.529  1.00  0.00     0.158 A 
HETATM   28  C14 UNL     1     -15.527  -9.980  15.344  1.00  0.00     0.065 A 
HETATM   29  C15 UNL     1     -15.016 -10.339  13.995  1.00  0.00     0.073 C 
HETATM   30  N5  UNL     1     -15.089 -10.311  16.557  1.00  0.00    -0.300 N 
HETATM   31  N6  UNL     1     -15.816  -9.783  17.500  1.00  0.00    -0.298 N 
ATOM     32  H5  UNL     1     -14.279 -10.907  16.729  1.00  0.00     0.187 HD
HETATM   33  C16 UNL     1     -15.610  -9.946  18.949  1.00  0.00     0.177 C 
HETATM   34  C17 UNL     1     -16.789  -9.064  16.931  1.00  0.00     0.067 A 
HETATM   35  C18 UNL     1     -17.844  -8.289  17.619  1.00  0.00     0.074 C 
ENDBRANCH  26  27
ENDBRANCH   6  26
TORSDOF 8
ENDMDL
MODEL 2
REMARK VINA RESULT: -8.623209725      2.190      3.126
REMARK  8 active torsions:
REMARK  status: ('A' for Active; 'I' for Inactive)
REMARK    1  A    between atoms: C2_2  and  C3_3 
REMARK    2  A    between atoms: C3_3  and  C4_4 
REMARK    3  A    between atoms: C4_4  and  C5_5 
REMARK       I    between atoms: C5_5  and  N1_7 
REMARK    4  A    between atoms: C8_10  and  C9_11 
REMARK    5  A    between atoms: C9_11  and  C10_12 
REMARK    6  A    between atoms: C10_12  and  N2_13 
REMARK    7  A    between atoms: C12_18  and  N4_19 
REMARK    8  A    between atoms: N4_19  and  C13_20 
ROOT
HETATM    1  N2  UNL     1     -16.699  -9.485   9.735  1.00  0.00    -0.354 N 
ATOM      2  H2  UNL     1     -16.806  -8.962   8.866  1.00  0.00     0.166 HD
HETATM    3  C11 UNL     1     -17.042  -8.747  10.657  1.00  0.00     0.131 A 
HETATM    4  N3  UNL     1     -17.042  -9.057  11.933  1.00  0.00    -0.301 N 
ATOM      5  H3  UNL     1     -16.715  -9.986  12.198  1.00  0.00     0.171 HD
HETATM    6  C12 UNL     1     -17.449  -8.217  12.926  1.00  0.00     0.261 A 
HETATM    7  N7  UNL     1     -17.894  -6.951  12.580  1.00  0.00    -0.325 N 
ATOM      8  H7  UNL     1     -18.208  -6.296  13.296  1.00  0.00     0.169 HD
HETATM    9  C19 UNL     1     -17.906  -6.605  11.293  1.00  0.00     0.119 A 
HETATM   10  C20 UNL     1     -17.493  -7.462  10.314  1.00  0.00     0.093 A 
HETATM   11 CL1  UNL     1     -17.510  -7.000   8.649  1.00  0.00    -0.079 Cl
ENDROOT
BRANCH   1  12
HETATM   12  C10 UNL     1     -16.231 -10.732   9.415  1.00  0.00     0.063 C 
BRANCH  12  13
HETATM   13  C9  UNL     1     -17.056 -11.588   8.468  1.00  0.00     0.049 C 
BRANCH  13  14
HETATM   14  C8  UNL     1     -17.494 -12.865   9.144  1.00  0.00    -0.007 C 
HETATM   15  C7  UNL     1     -16.393 -13.393  10.009  1.00  0.00     0.025 C 
HETATM   16  C6  UNL     1     -16.867 -14.612  10.768  1.00  0.00     0.126 C 
HETATM   17  N1  UNL     1     -17.253 -15.621   9.800  1.00  0.00    -0.352 N 
HETATM   18  C5  UNL     1     -17.147 -17.001  10.133  1.00  0.00     0.219 C 
HETATM   19  C22 UNL     1     -17.736 -15.302   8.504  1.00  0.00     0.126 C 
HETATM   20  O1  UNL     1     -16.704 -17.316  11.256  1.00  0.00    -0.273 OA
HETATM   21  C21 UNL     1     -17.980 -13.896   8.154  1.00  0.00     0.025 C 
BRANCH  18  22
HETATM   22  C4  UNL     1     -17.556 -18.027   9.172  1.00  0.00     0.103 C 
BRANCH  22  23
HETATM   23  C3  UNL     1     -19.051 -18.178   9.163  1.00  0.00     0.009 C 
BRANCH  23  24
HETATM   24  C2  UNL     1     -19.416 -18.929   7.884  1.00  0.00    -0.004 C 
HETATM   25  C1  UNL     1     -19.073 -20.383   8.010  1.00  0.00     0.005 C 
ENDBRANCH  23  24
ENDBRANCH  22  23
ENDBRANCH  18  22
ENDBRANCH  13  14
ENDBRANCH  12  13
ENDBRANCH   1  12
BRANCH   6  26
HETATM   26  N4  UNL     1     -17.435  -8.491  14.095  1.00  0.00    -0.367 NA
BRANCH  26  27
HETATM   27  C13 UNL     1     -17.377  -8.717  15.384  1.00  0.00     0.158 A 
HETATM   28  C14 UNL     1     -16.408  -9.491  16.078  1.00  0.00     0.065 A 
HETATM   29  C15 UNL     1     -15.280 -10.162  15.380  1.00  0.00     0.073 C 
HETATM   30  N5  UNL     1     -16.737  -9.457  17.368  1.00  0.00    -0.300 N 
HETATM   31  N6  UNL     1     -17.808  -8.747  17.580  1.00  0.00    -0.298 N 
ATOM     32  H5  UNL     1     -16.212  -9.931  18.103  1.00  0.00     0.187 HD
HETATM   33  C16 UNL     1     -18.443  -8.504  18.887  1.00  0.00     0.177 C 
HETATM   34  C17 UNL     1     -18.240  -8.272  16.407  1.00  0.00     0.067 A 
HETATM   35  C18 UNL     1     -19.421  -7.413  16.174  1.00  0.00     0.074 C 
ENDBRANCH  26  27
ENDBRANCH   6  26
TORSDOF 8
ENDMDL
MODEL 3
REMARK VINA RESULT: -8.418184820      3.077      5.121
REMARK  8 active torsions:
REMARK  status: ('A' for Active; 'I' for Inactive)
REMARK    1  A    between atoms: C2_2  and  C3_3 
REMARK    2  A    between atoms: C3_3  and  C4_4 
REMARK    3  A    between atoms: C4_4  and  C5_5 
REMARK       I    between atoms: C5_5  and  N1_7 
REMARK    4  A    between atoms: C8_10  and  C9_11 
REMARK    5  A    between atoms: C9_11  and  C10_12 
REMARK    6  A    between atoms: C10_12  and  N2_13 
REMARK    7  A    between atoms: C12_18  and  N4_19 
REMARK    8  A    between atoms: N4_19  and  C13_20 
ROOT
HETATM    1  N2  UNL     1     -15.207 -10.242   9.543  1.00  0.00    -0.354 N 
ATOM      2  H2  UNL     1     -14.793 -10.434   8.631  1.00  0.00     0.166 HD
HETATM    3  C11 UNL     1     -16.025  -9.336   9.397  1.00  0.00     0.131 A 
HETATM    4  N3  UNL     1     -16.763  -8.803  10.344  1.00  0.00    -0.301 N 
ATOM      5  H3  UNL     1     -16.645  -9.153  11.294  1.00  0.00     0.171 HD
HETATM    6  C12 UNL     1     -17.676  -7.812  10.138  1.00  0.00     0.261 A 
HETATM    7  N7  UNL     1     -17.845  -7.326   8.851  1.00  0.00    -0.325 N 
ATOM      8  H7  UNL     1     -18.519  -6.585   8.659  1.00  0.00     0.169 HD
HETATM    9  C19 UNL     1     -17.110  -7.845   7.868  1.00  0.00     0.119 A 
HETATM   10  C20 UNL     1     -16.201  -8.837   8.096  1.00  0.00     0.093 A 
HETATM   11 CL1  UNL     1     -15.253  -9.500   6.812  1.00  0.00    -0.079 Cl
ENDROOT
BRANCH   1  12
HETATM   12  C10 UNL     1     -14.632 -11.095  10.448  1.00  0.00     0.063 C 
BRANCH  12  13
HETATM   13  C9  UNL     1     -15.507 -12.162  11.085  1.00  0.00     0.049 C 
BRANCH  13  14
HETATM   14  C8  UNL     1     -16.051 -13.104  10.038  1.00  0.00    -0.007 C 
HETATM   15  C7  UNL     1     -17.453 -12.723   9.681  1.00  0.00     0.025 C 
HETATM   16  C6  UNL     1     -17.961 -13.598   8.559  1.00  0.00     0.126 C 
HETATM   17  N1  UNL     1     -17.932 -14.975   9.013  1.00  0.00    -0.352 N 
HETATM   18  C5  UNL     1     -18.863 -15.916   8.491  1.00  0.00     0.219 C 
HETATM   19  C22 UNL     1     -17.007 -15.448   9.982  1.00  0.00     0.126 C 
HETATM   20  O1  UNL     1     -19.704 -15.528   7.655  1.00  0.00    -0.273 OA
HETATM   21  C21 UNL     1     -15.948 -14.550  10.462  1.00  0.00     0.025 C 
BRANCH  18  22
HETATM   22  C4  UNL     1     -18.825 -17.313   8.925  1.00  0.00     0.103 C 
BRANCH  22  23
HETATM   23  C3  UNL     1     -20.132 -17.995   8.633  1.00  0.00     0.009 C 
BRANCH  23  24
HETATM   24  C2  UNL     1     -19.877 -18.978   7.492  1.00  0.00    -0.004 C 
HETATM   25  C1  UNL     1     -19.132 -20.181   7.987  1.00  0.00     0.005 C 
ENDBRANCH  23  24
ENDBRANCH  22  23
ENDBRANCH  18  22
ENDBRANCH  13  14
ENDBRANCH  12  13
ENDBRANCH   1  12
BRANCH   6  26
HETATM   26  N4  UNL     1     -18.339  -7.310  11.003  1.00  0.00    -0.367 NA
BRANCH  26  27
HETATM   27  C13 UNL     1     -18.992  -6.739  11.985  1.00  0.00     0.158 A 
HETATM   28  C14 UNL     1     -18.952  -7.091  13.362  1.00  0.00     0.065 A 
HETATM   29  C15 UNL     1     -18.110  -8.204  13.873  1.00  0.00     0.073 C 
HETATM   30  N5  UNL     1     -19.770  -6.255  13.999  1.00  0.00    -0.300 N 
HETATM   31  N6  UNL     1     -20.329  -5.405  13.185  1.00  0.00    -0.298 N 
ATOM     32  H5  UNL     1     -19.939  -6.277  15.005  1.00  0.00     0.187 HD
HETATM   33  C16 UNL     1     -21.284  -4.347  13.558  1.00  0.00     0.177 C 
HETATM   34  C17 UNL     1     -19.891  -5.654  11.947  1.00  0.00     0.067 A 
HETATM   35  C18 UNL     1     -20.259  -4.932  10.710  1.00  0.00     0.074 C 
ENDBRANCH  26  27
ENDBRANCH   6  26
TORSDOF 8
ENDMDL
MODEL 4
REMARK VINA RESULT: -8.384313965      2.389      3.213
REMARK  8 active torsions:
REMARK  status: ('A' for Active; 'I' for Inactive)
REMARK    1  A    between atoms: C2_2  and  C3_3 
REMARK    2  A    between atoms: C3_3  and  C4_4 
REMARK    3  A    between atoms: C4_4  and  C5_5 
REMARK       I    between atoms: C5_5  and  N1_7 
REMARK    4  A    between atoms: C8_10  and  C9_11 
REMARK    5  A    between atoms: C9_11  and  C10_12 
REMARK    6  A    between atoms: C10_12  and  N2_13 
REMARK    7  A    between atoms: C12_18  and  N4_19 
REMARK    8  A    between atoms: N4_19  and  C13_20 
ROOT
HETATM    1  N2  UNL     1     -16.075  -9.623  10.017  1.00  0.00    -0.354 N 
ATOM      2  H2  UNL     1     -16.210  -9.293   9.061  1.00  0.00     0.166 HD
HETATM    3  C11 UNL     1     -16.745  -8.905  10.755  1.00  0.00     0.131 A 
HETATM    4  N3  UNL     1     -16.829  -9.008  12.062  1.00  0.00    -0.301 N 
ATOM      5  H3  UNL     1     -16.282  -9.738  12.519  1.00  0.00     0.171 HD
HETATM    6  C12 UNL     1     -17.601  -8.204  12.847  1.00  0.00     0.261 A 
HETATM    7  N7  UNL     1     -18.349  -7.208  12.238  1.00  0.00    -0.325 N 
ATOM      8  H7  UNL     1     -18.938  -6.588  12.794  1.00  0.00     0.169 HD
HETATM    9  C19 UNL     1     -18.284  -7.075  10.914  1.00  0.00     0.119 A 
HETATM   10  C20 UNL     1     -17.504  -7.892  10.147  1.00  0.00     0.093 A 
HETATM   11 CL1  UNL     1     -17.427  -7.708   8.430  1.00  0.00    -0.079 Cl
ENDROOT
BRANCH   1  12
HETATM   12  C10 UNL     1     -15.218 -10.691   9.970  1.00  0.00     0.063 C 
BRANCH  12  13
HETATM   13  C9  UNL     1     -15.596 -11.948  10.737  1.00  0.00     0.049 C 
BRANCH  13  14
HETATM   14  C8  UNL     1     -16.119 -13.010   9.801  1.00  0.00    -0.007 C 
HETATM   15  C7  UNL     1     -17.538 -12.714   9.427  1.00  0.00     0.025 C 
HETATM   16  C6  UNL     1     -18.028 -13.716   8.408  1.00  0.00     0.126 C 
HETATM   17  N1  UNL     1     -17.946 -15.038   9.001  1.00  0.00    -0.352 N 
HETATM   18  C5  UNL     1     -18.850 -16.058   8.591  1.00  0.00     0.219 C 
HETATM   19  C22 UNL     1     -16.995 -15.377   9.999  1.00  0.00     0.126 C 
HETATM   20  O1  UNL     1     -19.713 -15.786   7.733  1.00  0.00    -0.273 OA
HETATM   21  C21 UNL     1     -15.962 -14.400  10.369  1.00  0.00     0.025 C 
BRANCH  18  22
HETATM   22  C4  UNL     1     -18.760 -17.400   9.166  1.00  0.00     0.103 C 
BRANCH  22  23
HETATM   23  C3  UNL     1     -19.947 -18.230   8.766  1.00  0.00     0.009 C 
BRANCH  23  24
HETATM   24  C2  UNL     1     -19.513 -19.084   7.576  1.00  0.00    -0.004 C 
HETATM   25  C1  UNL     1     -19.153 -20.469   8.024  1.00  0.00     0.005 C 
ENDBRANCH  23  24
ENDBRANCH  22  23
ENDBRANCH  18  22
ENDBRANCH  13  14
ENDBRANCH  12  13
ENDBRANCH   1  12
BRANCH   6  26
HETATM   26  N4  UNL     1     -17.668  -8.285  14.043  1.00  0.00    -0.367 NA
BRANCH  26  27
HETATM   27  C13 UNL     1     -17.693  -8.443  15.343  1.00  0.00     0.158 A 
HETATM   28  C14 UNL     1     -16.805  -9.225  16.130  1.00  0.00     0.065 A 
HETATM   29  C15 UNL     1     -15.677  -9.988  15.534  1.00  0.00     0.073 C 
HETATM   30  N5  UNL     1     -17.202  -9.105  17.396  1.00  0.00    -0.300 N 
HETATM   31  N6  UNL     1     -18.244  -8.332  17.509  1.00  0.00    -0.298 N 
ATOM     32  H5  UNL     1     -16.744  -9.563  18.184  1.00  0.00     0.187 HD
HETATM   33  C16 UNL     1     -18.936  -7.986  18.763  1.00  0.00     0.177 C 
HETATM   34  C17 UNL     1     -18.586  -7.901  16.290  1.00  0.00     0.067 A 
HETATM   35  C18 UNL     1     -19.706  -6.999  15.945  1.00  0.00     0.074 C 
ENDBRANCH  26  27
ENDBRANCH   6  26
TORSDOF 8
ENDMDL
MODEL 5
REMARK VINA RESULT: -8.347699518      3.061      4.982
REMARK  8 active torsions:
REMARK  status: ('A' for Active; 'I' for Inactive)
REMARK    1  A    between atoms: C2_2  and  C3_3 
REMARK    2  A    between atoms: C3_3  and  C4_4 
REMARK    3  A    between atoms: C4_4  and  C5_5 
REMARK       I    between atoms: C5_5  and  N1_7 
REMARK    4  A    between atoms: C8_10  and  C9_11 
REMARK    5  A    between atoms: C9_11  and  C10_12 
REMARK    6  A    between atoms: C10_12  and  N2_13 
REMARK    7  A    between atoms: C12_18  and  N4_19 
REMARK    8  A    between atoms: N4_19  and  C13_20 
ROOT
HETATM    1  N2  UNL     1     -15.239 -10.300   9.557  1.00  0.00    -0.354 N 
ATOM      2  H2  UNL     1     -14.835 -10.510   8.644  1.00  0.00     0.166 HD
HETATM    3  C11 UNL     1     -16.044  -9.385   9.406  1.00  0.00     0.131 A 
HETATM    4  N3  UNL     1     -16.766  -8.829  10.351  1.00  0.00    -0.301 N 
ATOM      5  H3  UNL     1     -16.646  -9.168  11.305  1.00  0.00     0.171 HD
HETATM    6  C12 UNL     1     -17.666  -7.827  10.140  1.00  0.00     0.261 A 
HETATM    7  N7  UNL     1     -17.839  -7.355   8.848  1.00  0.00    -0.325 N 
ATOM      8  H7  UNL     1     -18.504  -6.607   8.653  1.00  0.00     0.169 HD
HETATM    9  C19 UNL     1     -17.120  -7.898   7.866  1.00  0.00     0.119 A 
HETATM   10  C20 UNL     1     -16.224  -8.900   8.099  1.00  0.00     0.093 A 
HETATM   11 CL1  UNL     1     -15.296  -9.593   6.817  1.00  0.00    -0.079 Cl
ENDROOT
BRANCH   1  12
HETATM   12  C10 UNL     1     -14.669 -11.150  10.469  1.00  0.00     0.063 C 
BRANCH  12  13
HETATM   13  C9  UNL     1     -15.546 -12.218  11.100  1.00  0.00     0.049 C 
BRANCH  13  14
HETATM   14  C8  UNL     1     -16.072 -13.169  10.052  1.00  0.00    -0.007 C 
HETATM   15  C7  UNL     1     -17.472 -12.797   9.677  1.00  0.00     0.025 C 
HETATM   16  C6  UNL     1     -17.963 -13.680   8.553  1.00  0.00     0.126 C 
HETATM   17  N1  UNL     1     -17.931 -15.055   9.015  1.00  0.00    -0.352 N 
HETATM   18  C5  UNL     1     -18.850 -16.004   8.486  1.00  0.00     0.219 C 
HETATM   19  C22 UNL     1     -17.015 -15.518   9.996  1.00  0.00     0.126 C 
HETATM   20  O1  UNL     1     -19.684 -15.624   7.638  1.00  0.00    -0.273 OA
HETATM   21  C21 UNL     1     -15.966 -14.611  10.484  1.00  0.00     0.025 C 
BRANCH  18  22
HETATM   22  C4  UNL     1     -18.811 -17.398   8.928  1.00  0.00     0.103 C 
BRANCH  22  23
HETATM   23  C3  UNL     1     -20.097 -18.098   8.593  1.00  0.00     0.009 C 
BRANCH  23  24
HETATM   24  C2  UNL     1     -19.789 -19.083   7.466  1.00  0.00    -0.004 C 
HETATM   25  C1  UNL     1     -19.109 -20.305   8.005  1.00  0.00     0.005 C 
ENDBRANCH  23  24
ENDBRANCH  22  23
ENDBRANCH  18  22
ENDBRANCH  13  14
ENDBRANCH  12  13
ENDBRANCH   1  12
BRANCH   6  26
HETATM   26  N4  UNL     1     -18.316  -7.304  11.004  1.00  0.00    -0.367 NA
BRANCH  26  27
HETATM   27  C13 UNL     1     -18.983  -6.783  12.003  1.00  0.00     0.158 A 
HETATM   28  C14 UNL     1     -19.904  -5.701  11.950  1.00  0.00     0.065 A 
HETATM   29  C15 UNL     1     -20.240  -5.007  10.679  1.00  0.00     0.073 C 
HETATM   30  N5  UNL     1     -20.338  -5.501  13.193  1.00  0.00    -0.300 N 
HETATM   31  N6  UNL     1     -19.801  -6.333  14.037  1.00  0.00    -0.298 N 
ATOM     32  H5  UNL     1     -21.013  -4.781  13.452  1.00  0.00     0.187 HD
HETATM   33  C16 UNL     1     -20.060  -6.387  15.487  1.00  0.00     0.177 C 
HETATM   34  C17 UNL     1     -18.968  -7.137  13.368  1.00  0.00     0.067 A 
HETATM   35  C18 UNL     1     -18.147  -8.234  13.926  1.00  0.00     0.074 C 
ENDBRANCH  26  27
ENDBRANCH   6  26
TORSDOF 8
ENDMDL
