MODEL 1
REMARK VINA RESULT: -7.321126910      0.000      0.000
REMARK  8 active torsions:
REMARK  status: ('A' for Active; 'I' for Inactive)
REMARK    1  A    between atoms: O1_2  and  C2_3 
REMARK    2  A    between atoms: N1_8  and  C6_9 
REMARK    3  A    between atoms: C6_9  and  C7_10 
REMARK       I    between atoms: C7_10  and  N2_12 
REMARK    4  A    between atoms: N2_12  and  C8_14 
REMARK    5  A    between atoms: C8_14  and  C9_15 
REMARK    6  A    between atoms: C8_14  and  C13_19 
REMARK    7  A    between atoms: C9_15  and  C10_16 
REMARK       I    between atoms: C13_19  and  N3_21 
REMARK    8  A    between atoms: N3_21  and  C14_23 
ROOT
HETATM    1  C2  UNL     1     -20.386  -3.110  13.479  1.00  0.00     0.125 A 
HETATM    2  C3  UNL     1     -19.900  -3.312  14.753  1.00  0.00     0.069 A 
HETATM    3 BR1  UNL     1     -19.673  -2.028  16.154  1.00  0.00    -0.046 Br
HETATM    4  C4  UNL     1     -19.603  -4.659  14.823  1.00  0.00     0.029 A 
HETATM    5  C5  UNL     1     -19.050  -5.318  16.024  1.00  0.00     0.070 C 
HETATM    6  N1  UNL     1     -19.891  -5.255  13.647  1.00  0.00    -0.330 N 
HETATM    7  C18 UNL     1     -20.373  -4.317  12.812  1.00  0.00     0.152 A 
HETATM    8  C19 UNL     1     -20.821  -4.447  11.453  1.00  0.00     0.121 C 
HETATM    9  N4  UNL     1     -21.184  -4.569  10.367  1.00  0.00    -0.190 NA
ENDROOT
BRANCH   1  10
HETATM   10  O1  UNL     1     -20.795  -1.856  13.035  1.00  0.00    -0.352 OA
HETATM   11  C1  UNL     1     -19.889  -0.970  12.412  1.00  0.00     0.210 C 
ENDBRANCH   1  10
BRANCH   6  12
HETATM   12  C6  UNL     1     -19.720  -6.654  13.324  1.00  0.00     0.232 C 
BRANCH  12  13
HETATM   13  C7  UNL     1     -18.452  -6.943  12.658  1.00  0.00     0.236 C 
HETATM   14  O2  UNL     1     -17.496  -6.145  12.774  1.00  0.00    -0.272 OA
HETATM   15  N2  UNL     1     -18.229  -8.090  11.874  1.00  0.00    -0.346 N 
ATOM     16  H2  UNL     1     -18.992  -8.759  11.761  1.00  0.00     0.163 HD
BRANCH  15  17
HETATM   17  C8  UNL     1     -16.936  -8.370  11.205  1.00  0.00     0.177 C 
BRANCH  17  18
HETATM   18  C9  UNL     1     -16.240  -9.414  11.983  1.00  0.00     0.038 C 
BRANCH  18  19
HETATM   19  C10 UNL     1     -14.791  -9.279  12.258  1.00  0.00    -0.020 C 
HETATM   20  C11 UNL     1     -14.489  -9.899  13.654  1.00  0.00     0.009 C 
HETATM   21  C12 UNL     1     -13.874 -10.044  11.333  1.00  0.00     0.009 C 
ENDBRANCH  18  19
ENDBRANCH  17  18
BRANCH  17  22
HETATM   22  C13 UNL     1     -17.284  -8.643   9.814  1.00  0.00     0.241 C 
HETATM   23  O3  UNL     1     -18.482  -8.688   9.472  1.00  0.00    -0.271 OA
HETATM   24  N3  UNL     1     -16.289  -8.853   8.840  1.00  0.00    -0.351 N 
ATOM     25  H3  UNL     1     -15.312  -8.818   9.133  1.00  0.00     0.163 HD
BRANCH  24  26
HETATM   26  C14 UNL     1     -16.577  -9.114   7.445  1.00  0.00     0.022 C 
HETATM   27  C15 UNL     1     -17.553 -10.262   7.331  1.00  0.00     0.037 C 
HETATM   28  C16 UNL     1     -17.105  -7.898   6.710  1.00  0.00     0.037 C 
HETATM   29  C17 UNL     1     -15.295  -9.556   6.727  1.00  0.00     0.037 C 
ENDBRANCH  24  26
ENDBRANCH  17  22
ENDBRANCH  15  17
ENDBRANCH  12  13
ENDBRANCH   6  12
TORSDOF 8
ENDMDL
MODEL 2
REMARK VINA RESULT: -7.288476772      1.823      2.736
REMARK  8 active torsions:
REMARK  status: ('A' for Active; 'I' for Inactive)
REMARK    1  A    between atoms: O1_2  and  C2_3 
REMARK    2  A    between atoms: N1_8  and  C6_9 
REMARK    3  A    between atoms: C6_9  and  C7_10 
REMARK       I    between atoms: C7_10  and  N2_12 
REMARK    4  A    between atoms: N2_12  and  C8_14 
REMARK    5  A    between atoms: C8_14  and  C9_15 
REMARK    6  A    between atoms: C8_14  and  C13_19 
REMARK    7  A    between atoms: C9_15  and  C10_16 
REMARK       I    between atoms: C13_19  and  N3_21 
REMARK    8  A    between atoms: N3_21  and  C14_23 
ROOT
HETATM    1  C2  UNL     1     -19.299  -5.304  16.134  1.00  0.00     0.125 A 
HETATM    2  C3  UNL     1     -18.671  -4.081  16.029  1.00  0.00     0.069 A 
HETATM    3 BR1  UNL     1     -18.161  -2.884  17.433  1.00  0.00    -0.046 Br
HETATM    4  C4  UNL     1     -18.477  -3.884  14.677  1.00  0.00     0.029 A 
HETATM    5  C5  UNL     1     -17.828  -2.686  14.105  1.00  0.00     0.070 C 
HETATM    6  N1  UNL     1     -18.963  -4.935  13.984  1.00  0.00    -0.330 N 
HETATM    7  C18 UNL     1     -19.470  -5.815  14.865  1.00  0.00     0.152 A 
HETATM    8  C19 UNL     1     -20.098  -7.085  14.628  1.00  0.00     0.121 C 
HETATM    9  N4  UNL     1     -20.592  -8.105  14.424  1.00  0.00    -0.190 NA
ENDROOT
BRANCH   1  10
HETATM   10  O1  UNL     1     -19.660  -5.845  17.365  1.00  0.00    -0.352 OA
HETATM   11  C1  UNL     1     -18.771  -6.668  18.090  1.00  0.00     0.210 C 
ENDBRANCH   1  10
BRANCH   6  12
HETATM   12  C6  UNL     1     -18.948  -5.104  12.548  1.00  0.00     0.232 C 
BRANCH  12  13
HETATM   13  C7  UNL     1     -17.800  -5.872  12.068  1.00  0.00     0.236 C 
HETATM   14  O2  UNL     1     -16.652  -5.383  12.145  1.00  0.00    -0.272 OA
HETATM   15  N2  UNL     1     -17.906  -7.159  11.510  1.00  0.00    -0.346 N 
ATOM     16  H2  UNL     1     -18.830  -7.583  11.433  1.00  0.00     0.163 HD
BRANCH  15  17
HETATM   17  C8  UNL     1     -16.732  -7.926  11.027  1.00  0.00     0.177 C 
BRANCH  17  18
HETATM   18  C9  UNL     1     -16.372  -8.907  12.070  1.00  0.00     0.038 C 
BRANCH  18  19
HETATM   19  C10 UNL     1     -14.947  -9.238  12.303  1.00  0.00    -0.020 C 
HETATM   20  C11 UNL     1     -14.819  -9.947  13.684  1.00  0.00     0.009 C 
HETATM   21  C12 UNL     1     -14.341 -10.236  11.344  1.00  0.00     0.009 C 
ENDBRANCH  18  19
ENDBRANCH  17  18
BRANCH  17  22
HETATM   22  C13 UNL     1     -17.119  -8.414   9.707  1.00  0.00     0.241 C 
HETATM   23  O3  UNL     1     -18.324  -8.575   9.434  1.00  0.00    -0.271 OA
HETATM   24  N3  UNL     1     -16.153  -8.703   8.724  1.00  0.00    -0.351 N 
ATOM     25  H3  UNL     1     -15.170  -8.572   8.960  1.00  0.00     0.163 HD
BRANCH  24  26
HETATM   26  C14 UNL     1     -16.481  -9.176   7.395  1.00  0.00     0.022 C 
HETATM   27  C15 UNL     1     -17.372 -10.392   7.490  1.00  0.00     0.037 C 
HETATM   28  C16 UNL     1     -17.129  -8.113   6.529  1.00  0.00     0.037 C 
HETATM   29  C17 UNL     1     -15.202  -9.626   6.677  1.00  0.00     0.037 C 
ENDBRANCH  24  26
ENDBRANCH  17  22
ENDBRANCH  15  17
ENDBRANCH  12  13
ENDBRANCH   6  12
TORSDOF 8
ENDMDL
MODEL 3
REMARK VINA RESULT: -7.258158313      1.675      2.079
REMARK  8 active torsions:
REMARK  status: ('A' for Active; 'I' for Inactive)
REMARK    1  A    between atoms: O1_2  and  C2_3 
REMARK    2  A    between atoms: N1_8  and  C6_9 
REMARK    3  A    between atoms: C6_9  and  C7_10 
REMARK       I    between atoms: C7_10  and  N2_12 
REMARK    4  A    between atoms: N2_12  and  C8_14 
REMARK    5  A    between atoms: C8_14  and  C9_15 
REMARK    6  A    between atoms: C8_14  and  C13_19 
REMARK    7  A    between atoms: C9_15  and  C10_16 
REMARK       I    between atoms: C13_19  and  N3_21 
REMARK    8  A    between atoms: N3_21  and  C14_23 
ROOT
HETATM    1  C2  UNL     1     -18.440  -2.708  15.071  1.00  0.00     0.125 A 
HETATM    2  C3  UNL     1     -18.646  -3.840  15.830  1.00  0.00     0.069 A 
HETATM    3 BR1  UNL     1     -18.592  -4.018  17.735  1.00  0.00    -0.046 Br
HETATM    4  C4  UNL     1     -18.907  -4.848  14.923  1.00  0.00     0.029 A 
HETATM    5  C5  UNL     1     -19.189  -6.246  15.306  1.00  0.00     0.070 C 
HETATM    6  N1  UNL     1     -18.862  -4.358  13.666  1.00  0.00    -0.330 N 
HETATM    7  C18 UNL     1     -18.577  -3.045  13.741  1.00  0.00     0.152 A 
HETATM    8  C19 UNL     1     -18.422  -2.084  12.686  1.00  0.00     0.121 C 
HETATM    9  N4  UNL     1     -18.309  -1.322  11.829  1.00  0.00    -0.190 NA
ENDROOT
BRANCH   1  10
HETATM   10  O1  UNL     1     -18.147  -1.475  15.648  1.00  0.00    -0.352 OA
HETATM   11  C1  UNL     1     -19.174  -0.604  16.070  1.00  0.00     0.210 C 
ENDBRANCH   1  10
BRANCH   6  12
HETATM   12  C6  UNL     1     -19.081  -5.098  12.443  1.00  0.00     0.232 C 
BRANCH  12  13
HETATM   13  C7  UNL     1     -17.915  -5.867  12.016  1.00  0.00     0.236 C 
HETATM   14  O2  UNL     1     -16.770  -5.381  12.145  1.00  0.00    -0.272 OA
HETATM   15  N2  UNL     1     -17.997  -7.155  11.455  1.00  0.00    -0.346 N 
ATOM     16  H2  UNL     1     -18.918  -7.578  11.338  1.00  0.00     0.163 HD
BRANCH  15  17
HETATM   17  C8  UNL     1     -16.804  -7.925  11.027  1.00  0.00     0.177 C 
BRANCH  17  18
HETATM   18  C9  UNL     1     -16.462  -8.869  12.109  1.00  0.00     0.038 C 
BRANCH  18  19
HETATM   19  C10 UNL     1     -15.049  -9.260  12.321  1.00  0.00    -0.020 C 
HETATM   20  C11 UNL     1     -14.916  -9.909  13.730  1.00  0.00     0.009 C 
HETATM   21  C12 UNL     1     -14.519 -10.330  11.395  1.00  0.00     0.009 C 
ENDBRANCH  18  19
ENDBRANCH  17  18
BRANCH  17  22
HETATM   22  C13 UNL     1     -17.152  -8.457   9.713  1.00  0.00     0.241 C 
HETATM   23  O3  UNL     1     -18.340  -8.718   9.444  1.00  0.00    -0.271 OA
HETATM   24  N3  UNL     1     -16.167  -8.677   8.731  1.00  0.00    -0.351 N 
ATOM     25  H3  UNL     1     -15.197  -8.464   8.964  1.00  0.00     0.163 HD
BRANCH  24  26
HETATM   26  C14 UNL     1     -16.456  -9.189   7.408  1.00  0.00     0.022 C 
HETATM   27  C15 UNL     1     -15.170  -9.579   6.717  1.00  0.00     0.037 C 
HETATM   28  C16 UNL     1     -17.422 -10.358   7.422  1.00  0.00     0.037 C 
HETATM   29  C17 UNL     1     -17.094  -8.085   6.555  1.00  0.00     0.037 C 
ENDBRANCH  24  26
ENDBRANCH  17  22
ENDBRANCH  15  17
ENDBRANCH  12  13
ENDBRANCH   6  12
TORSDOF 8
ENDMDL
MODEL 4
REMARK VINA RESULT: -7.239443911      1.370      2.442
REMARK  8 active torsions:
REMARK  status: ('A' for Active; 'I' for Inactive)
REMARK    1  A    between atoms: O1_2  and  C2_3 
REMARK    2  A    between atoms: N1_8  and  C6_9 
REMARK    3  A    between atoms: C6_9  and  C7_10 
REMARK       I    between atoms: C7_10  and  N2_12 
REMARK    4  A    between atoms: N2_12  and  C8_14 
REMARK    5  A    between atoms: C8_14  and  C9_15 
REMARK    6  A    between atoms: C8_14  and  C13_19 
REMARK    7  A    between atoms: C9_15  and  C10_16 
REMARK       I    between atoms: C13_19  and  N3_21 
REMARK    8  A    between atoms: N3_21  and  C14_23 
ROOT
HETATM    1  C2  UNL     1     -20.335  -3.517  14.184  1.00  0.00     0.125 A 
HETATM    2  C3  UNL     1     -20.546  -3.309  12.837  1.00  0.00     0.069 A 
HETATM    3 BR1  UNL     1     -21.033  -1.685  11.949  1.00  0.00    -0.046 Br
HETATM    4  C4  UNL     1     -20.329  -4.534  12.239  1.00  0.00     0.029 A 
HETATM    5  C5  UNL     1     -20.447  -4.772  10.786  1.00  0.00     0.070 C 
HETATM    6  N1  UNL     1     -20.002  -5.451  13.174  1.00  0.00    -0.330 N 
HETATM    7  C18 UNL     1     -20.001  -4.841  14.373  1.00  0.00     0.152 A 
HETATM    8  C19 UNL     1     -19.718  -5.383  15.672  1.00  0.00     0.121 C 
HETATM    9  N4  UNL     1     -19.481  -5.830  16.707  1.00  0.00    -0.190 NA
ENDROOT
BRANCH   1  10
HETATM   10  O1  UNL     1     -20.465  -2.493  15.118  1.00  0.00    -0.352 OA
HETATM   11  C1  UNL     1     -19.371  -1.664  15.449  1.00  0.00     0.210 C 
ENDBRANCH   1  10
BRANCH   6  12
HETATM   12  C6  UNL     1     -19.701  -6.847  12.945  1.00  0.00     0.232 C 
BRANCH  12  13
HETATM   13  C7  UNL     1     -18.354  -7.069  12.424  1.00  0.00     0.236 C 
HETATM   14  O2  UNL     1     -17.405  -6.367  12.838  1.00  0.00    -0.272 OA
HETATM   15  N2  UNL     1     -18.045  -8.048  11.462  1.00  0.00    -0.346 N 
ATOM     16  H2  UNL     1     -18.799  -8.636  11.105  1.00  0.00     0.163 HD
BRANCH  15  17
HETATM   17  C8  UNL     1     -16.673  -8.263  10.942  1.00  0.00     0.177 C 
BRANCH  17  18
HETATM   18  C9  UNL     1     -16.094  -9.419  11.654  1.00  0.00     0.038 C 
BRANCH  18  19
HETATM   19  C10 UNL     1     -14.714  -9.337  12.184  1.00  0.00    -0.020 C 
HETATM   20  C11 UNL     1     -14.687  -9.969  13.607  1.00  0.00     0.009 C 
HETATM   21  C12 UNL     1     -13.674 -10.134  11.431  1.00  0.00     0.009 C 
ENDBRANCH  18  19
ENDBRANCH  17  18
BRANCH  17  22
HETATM   22  C13 UNL     1     -16.827  -8.335   9.492  1.00  0.00     0.241 C 
HETATM   23  O3  UNL     1     -17.800  -7.782   8.943  1.00  0.00    -0.271 OA
HETATM   24  N3  UNL     1     -15.890  -9.015   8.691  1.00  0.00    -0.351 N 
ATOM     25  H3  UNL     1     -15.100  -9.467   9.152  1.00  0.00     0.163 HD
BRANCH  24  26
HETATM   26  C14 UNL     1     -15.986  -9.107   7.250  1.00  0.00     0.022 C 
HETATM   27  C15 UNL     1     -14.913 -10.032   6.724  1.00  0.00     0.037 C 
HETATM   28  C16 UNL     1     -17.352  -9.560   6.773  1.00  0.00     0.037 C 
HETATM   29  C17 UNL     1     -15.722  -7.731   6.625  1.00  0.00     0.037 C 
ENDBRANCH  24  26
ENDBRANCH  17  22
ENDBRANCH  15  17
ENDBRANCH  12  13
ENDBRANCH   6  12
TORSDOF 8
ENDMDL
MODEL 5
REMARK VINA RESULT: -7.196332135      1.223      1.495
REMARK  8 active torsions:
REMARK  status: ('A' for Active; 'I' for Inactive)
REMARK    1  A    between atoms: O1_2  and  C2_3 
REMARK    2  A    between atoms: N1_8  and  C6_9 
REMARK    3  A    between atoms: C6_9  and  C7_10 
REMARK       I    between atoms: C7_10  and  N2_12 
REMARK    4  A    between atoms: N2_12  and  C8_14 
REMARK    5  A    between atoms: C8_14  and  C9_15 
REMARK    6  A    between atoms: C8_14  and  C13_19 
REMARK    7  A    between atoms: C9_15  and  C10_16 
REMARK       I    between atoms: C13_19  and  N3_21 
REMARK    8  A    between atoms: N3_21  and  C14_23 
ROOT
HETATM    1  C2  UNL     1     -20.167  -3.885  14.713  1.00  0.00     0.125 A 
HETATM    2  C3  UNL     1     -19.521  -4.760  15.560  1.00  0.00     0.069 A 
HETATM    3 BR1  UNL     1     -18.948  -4.462  17.362  1.00  0.00    -0.046 Br
HETATM    4  C4  UNL     1     -19.365  -5.924  14.835  1.00  0.00     0.029 A 
HETATM    5  C5  UNL     1     -18.714  -7.141  15.363  1.00  0.00     0.070 C 
HETATM    6  N1  UNL     1     -19.890  -5.771  13.601  1.00  0.00    -0.330 N 
HETATM    7  C18 UNL     1     -20.386  -4.524  13.512  1.00  0.00     0.152 A 
HETATM    8  C19 UNL     1     -21.043  -3.881  12.408  1.00  0.00     0.121 C 
HETATM    9  N4  UNL     1     -21.576  -3.380  11.518  1.00  0.00    -0.190 NA
ENDROOT
BRANCH   1  10
HETATM   10  O1  UNL     1     -20.499  -2.590  15.102  1.00  0.00    -0.352 OA
HETATM   11  C1  UNL     1     -19.568  -1.533  14.994  1.00  0.00     0.210 C 
ENDBRANCH   1  10
BRANCH   6  12
HETATM   12  C6  UNL     1     -19.922  -6.762  12.548  1.00  0.00     0.232 C 
BRANCH  12  13
HETATM   13  C7  UNL     1     -18.749  -6.720  11.678  1.00  0.00     0.236 C 
HETATM   14  O2  UNL     1     -18.556  -5.726  10.944  1.00  0.00    -0.272 OA
HETATM   15  N2  UNL     1     -17.795  -7.753  11.611  1.00  0.00    -0.346 N 
ATOM     16  H2  UNL     1     -17.926  -8.577  12.198  1.00  0.00     0.163 HD
BRANCH  15  17
HETATM   17  C8  UNL     1     -16.608  -7.697  10.723  1.00  0.00     0.177 C 
BRANCH  17  18
HETATM   18  C9  UNL     1     -15.433  -8.116  11.512  1.00  0.00     0.038 C 
BRANCH  18  19
HETATM   19  C10 UNL     1     -15.282  -9.537  11.901  1.00  0.00    -0.020 C 
HETATM   20  C11 UNL     1     -14.050 -10.130  11.156  1.00  0.00     0.009 C 
HETATM   21  C12 UNL     1     -14.960  -9.787  13.356  1.00  0.00     0.009 C 
ENDBRANCH  18  19
ENDBRANCH  17  18
BRANCH  17  22
HETATM   22  C13 UNL     1     -16.981  -8.477   9.547  1.00  0.00     0.241 C 
HETATM   23  O3  UNL     1     -18.146  -8.906   9.431  1.00  0.00    -0.271 OA
HETATM   24  N3  UNL     1     -16.049  -8.751   8.528  1.00  0.00    -0.351 N 
ATOM     25  H3  UNL     1     -15.098  -8.398   8.636  1.00  0.00     0.163 HD
BRANCH  24  26
HETATM   26  C14 UNL     1     -16.368  -9.507   7.335  1.00  0.00     0.022 C 
HETATM   27  C15 UNL     1     -17.025 -10.812   7.717  1.00  0.00     0.037 C 
HETATM   28  C16 UNL     1     -17.243  -8.741   6.362  1.00  0.00     0.037 C 
HETATM   29  C17 UNL     1     -15.075  -9.869   6.592  1.00  0.00     0.037 C 
ENDBRANCH  24  26
ENDBRANCH  17  22
ENDBRANCH  15  17
ENDBRANCH  12  13
ENDBRANCH   6  12
TORSDOF 8
ENDMDL
