MODEL 1
REMARK VINA RESULT: -7.933283433      0.000      0.000
REMARK  10 active torsions:
REMARK  status: ('A' for Active; 'I' for Inactive)
REMARK    1  A    between atoms: C2_2  and  C3_3 
REMARK    2  A    between atoms: C3_3  and  N1_4 
REMARK       I    between atoms: C4_6  and  N3_8 
REMARK    3  A    between atoms: C5_10  and  O1_11 
REMARK    4  A    between atoms: C5_10  and  C19_30 
REMARK    5  A    between atoms: O1_11  and  C6_12 
REMARK    6  A    between atoms: C6_12  and  C7_13 
REMARK    7  A    between atoms: C7_13  and  O2_14 
REMARK    8  A    between atoms: C7_13  and  C8_16 
REMARK    9  A    between atoms: C8_16  and  N4_17 
REMARK   10  A    between atoms: N5_20  and  C11_21 
ROOT
HETATM    1  C7  UNL     1     -16.603  -8.158  11.002  1.00  0.00     0.160 C 
ENDROOT
BRANCH   1   2
HETATM    2  C6  UNL     1     -17.948  -7.493  11.200  1.00  0.00     0.210 C 
BRANCH   2   3
HETATM    3  O1  UNL     1     -18.143  -7.387  12.599  1.00  0.00    -0.336 OA
BRANCH   3   4
HETATM    4  C5  UNL     1     -18.288  -6.094  13.197  1.00  0.00     0.127 C 
HETATM    5  N3  UNL     1     -17.505  -5.240  12.755  1.00  0.00    -0.314 N 
HETATM    6  C4  UNL     1     -17.222  -3.907  12.959  1.00  0.00     0.189 C 
ATOM      7  H3  UNL     1     -16.899  -5.638  12.037  1.00  0.00     0.170 HD
HETATM    8  N1  UNL     1     -17.931  -2.919  12.529  1.00  0.00    -0.364 N 
HETATM    9  N2  UNL     1     -16.048  -3.580  13.690  1.00  0.00    -0.063 NA
ATOM     10  H1  UNL     1     -18.784  -3.089  11.997  1.00  0.00     0.162 HD
BRANCH   8  11
HETATM   11  C3  UNL     1     -17.502  -1.573  12.808  1.00  0.00     0.122 C 
BRANCH  11  12
HETATM   12  C2  UNL     1     -17.944  -0.604  11.729  1.00  0.00     0.015 C 
HETATM   13  C1  UNL     1     -19.396  -0.886  11.342  1.00  0.00     0.006 C 
ENDBRANCH  11  12
ENDBRANCH   8  11
BRANCH   4  14
HETATM   14  C19 UNL     1     -19.339  -6.025  14.222  1.00  0.00     0.014 C 
HETATM   15  C20 UNL     1     -19.852  -7.435  14.580  1.00  0.00     0.023 C 
HETATM   16  C21 UNL     1     -20.590  -5.317  13.688  1.00  0.00     0.023 C 
HETATM   17  C22 UNL     1     -18.918  -5.407  15.526  1.00  0.00     0.023 C 
ENDBRANCH   4  14
ENDBRANCH   3   4
ENDBRANCH   2   3
ENDBRANCH   1   2
BRANCH   1  18
HETATM   18  O2  UNL     1     -15.636  -7.267  11.459  1.00  0.00    -0.392 OA
ATOM     19  H2  UNL     1     -15.099  -7.736  12.088  1.00  0.00     0.210 HD
ENDBRANCH   1  18
BRANCH   1  20
HETATM   20  C8  UNL     1     -16.418  -8.501   9.558  1.00  0.00     0.150 C 
BRANCH  20  21
HETATM   21  N4  UNL     1     -16.287  -9.878   9.249  1.00  0.00    -0.407 N 
HETATM   22  C9  UNL     1     -15.163 -10.567   9.775  1.00  0.00     0.136 C 
HETATM   23  C10 UNL     1     -15.552 -11.791  10.593  1.00  0.00     0.142 C 
HETATM   24  N5  UNL     1     -16.410 -12.649   9.779  1.00  0.00    -0.378 N 
HETATM   25  C17 UNL     1     -17.172 -12.031   8.722  1.00  0.00     0.142 C 
HETATM   26  C18 UNL     1     -17.504 -10.619   9.239  1.00  0.00     0.136 C 
BRANCH  24  27
HETATM   27  C11 UNL     1     -16.504 -14.021  10.013  1.00  0.00     0.031 A 
HETATM   28  C12 UNL     1     -15.600 -14.611  10.878  1.00  0.00     0.029 A 
HETATM   29  C13 UNL     1     -15.687 -15.964  11.101  1.00  0.00     0.004 A 
HETATM   30  C14 UNL     1     -16.634 -16.752  10.502  1.00  0.00     0.024 A 
HETATM   31  C15 UNL     1     -17.527 -16.154   9.645  1.00  0.00     0.036 A 
HETATM   32 CL1  UNL     1     -18.767 -17.080   8.837  1.00  0.00    -0.084 Cl
HETATM   33  C16 UNL     1     -17.467 -14.792   9.397  1.00  0.00     0.053 A 
ENDBRANCH  24  27
ENDBRANCH  20  21
ENDBRANCH   1  20
TORSDOF 10
ENDMDL
MODEL 2
REMARK VINA RESULT: -7.898716678      1.073      1.394
REMARK  10 active torsions:
REMARK  status: ('A' for Active; 'I' for Inactive)
REMARK    1  A    between atoms: C2_2  and  C3_3 
REMARK    2  A    between atoms: C3_3  and  N1_4 
REMARK       I    between atoms: C4_6  and  N3_8 
REMARK    3  A    between atoms: C5_10  and  O1_11 
REMARK    4  A    between atoms: C5_10  and  C19_30 
REMARK    5  A    between atoms: O1_11  and  C6_12 
REMARK    6  A    between atoms: C6_12  and  C7_13 
REMARK    7  A    between atoms: C7_13  and  O2_14 
REMARK    8  A    between atoms: C7_13  and  C8_16 
REMARK    9  A    between atoms: C8_16  and  N4_17 
REMARK   10  A    between atoms: N5_20  and  C11_21 
ROOT
HETATM    1  C7  UNL     1     -16.608  -8.000  10.855  1.00  0.00     0.160 C 
ENDROOT
BRANCH   1   2
HETATM    2  C6  UNL     1     -17.874  -7.174  10.911  1.00  0.00     0.210 C 
BRANCH   2   3
HETATM    3  O1  UNL     1     -18.280  -7.151  12.268  1.00  0.00    -0.336 OA
BRANCH   3   4
HETATM    4  C5  UNL     1     -18.363  -5.901  12.962  1.00  0.00     0.127 C 
HETATM    5  N3  UNL     1     -17.530  -5.061  12.592  1.00  0.00    -0.314 N 
HETATM    6  C4  UNL     1     -17.178  -3.764  12.899  1.00  0.00     0.189 C 
ATOM      7  H3  UNL     1     -16.937  -5.435  11.851  1.00  0.00     0.170 HD
HETATM    8  N1  UNL     1     -17.827  -2.709  12.540  1.00  0.00    -0.364 N 
HETATM    9  N2  UNL     1     -15.997  -3.557  13.662  1.00  0.00    -0.063 NA
ATOM     10  H1  UNL     1     -18.682  -2.791  11.990  1.00  0.00     0.162 HD
BRANCH   8  11
HETATM   11  C3  UNL     1     -17.331  -1.413  12.923  1.00  0.00     0.122 C 
BRANCH  11  12
HETATM   12  C2  UNL     1     -18.374  -0.605  13.669  1.00  0.00     0.015 C 
HETATM   13  C1  UNL     1     -19.774  -1.056  13.250  1.00  0.00     0.006 C 
ENDBRANCH  11  12
ENDBRANCH   8  11
BRANCH   4  14
HETATM   14  C19 UNL     1     -19.421  -5.852  13.981  1.00  0.00     0.014 C 
HETATM   15  C20 UNL     1     -20.127  -7.218  14.107  1.00  0.00     0.023 C 
HETATM   16  C21 UNL     1     -20.552  -4.905  13.562  1.00  0.00     0.023 C 
HETATM   17  C22 UNL     1     -18.955  -5.511  15.368  1.00  0.00     0.023 C 
ENDBRANCH   4  14
ENDBRANCH   3   4
ENDBRANCH   2   3
ENDBRANCH   1   2
BRANCH   1  18
HETATM   18  O2  UNL     1     -15.599  -7.243  11.443  1.00  0.00    -0.392 OA
ATOM     19  H2  UNL     1     -15.029  -7.847  11.906  1.00  0.00     0.210 HD
ENDBRANCH   1  18
BRANCH   1  20
HETATM   20  C8  UNL     1     -16.297  -8.350   9.434  1.00  0.00     0.150 C 
BRANCH  20  21
HETATM   21  N4  UNL     1     -16.229  -9.732   9.125  1.00  0.00    -0.407 N 
HETATM   22  C9  UNL     1     -15.127 -10.468   9.634  1.00  0.00     0.136 C 
HETATM   23  C10 UNL     1     -15.555 -11.673  10.460  1.00  0.00     0.142 C 
HETATM   24  N5  UNL     1     -16.461 -12.495   9.662  1.00  0.00    -0.378 N 
HETATM   25  C17 UNL     1     -17.214 -11.846   8.617  1.00  0.00     0.142 C 
HETATM   26  C18 UNL     1     -17.477 -10.421   9.137  1.00  0.00     0.136 C 
BRANCH  24  27
HETATM   27  C11 UNL     1     -16.609 -13.862   9.900  1.00  0.00     0.031 A 
HETATM   28  C12 UNL     1     -17.519 -14.574   9.138  1.00  0.00     0.029 A 
HETATM   29  C13 UNL     1     -17.671 -15.918   9.379  1.00  0.00     0.004 A 
HETATM   30  C14 UNL     1     -16.958 -16.581  10.342  1.00  0.00     0.024 A 
HETATM   31  C15 UNL     1     -16.058 -15.862  11.093  1.00  0.00     0.036 A 
HETATM   32 CL1  UNL     1     -15.106 -16.624  12.342  1.00  0.00    -0.084 Cl
HETATM   33  C16 UNL     1     -15.880 -14.505  10.876  1.00  0.00     0.053 A 
ENDBRANCH  24  27
ENDBRANCH  20  21
ENDBRANCH   1  20
TORSDOF 10
ENDMDL
MODEL 3
REMARK VINA RESULT: -7.761814699      2.283      3.963
REMARK  10 active torsions:
REMARK  status: ('A' for Active; 'I' for Inactive)
REMARK    1  A    between atoms: C2_2  and  C3_3 
REMARK    2  A    between atoms: C3_3  and  N1_4 
REMARK       I    between atoms: C4_6  and  N3_8 
REMARK    3  A    between atoms: C5_10  and  O1_11 
REMARK    4  A    between atoms: C5_10  and  C19_30 
REMARK    5  A    between atoms: O1_11  and  C6_12 
REMARK    6  A    between atoms: C6_12  and  C7_13 
REMARK    7  A    between atoms: C7_13  and  O2_14 
REMARK    8  A    between atoms: C7_13  and  C8_16 
REMARK    9  A    between atoms: C8_16  and  N4_17 
REMARK   10  A    between atoms: N5_20  and  C11_21 
ROOT
HETATM    1  C7  UNL     1     -17.310  -8.020  10.619  1.00  0.00     0.160 C 
ENDROOT
BRANCH   1   2
HETATM    2  C6  UNL     1     -18.235  -6.902  10.188  1.00  0.00     0.210 C 
BRANCH   2   3
HETATM    3  O1  UNL     1     -19.450  -7.092  10.892  1.00  0.00    -0.336 OA
BRANCH   3   4
HETATM    4  C5  UNL     1     -19.504  -6.820  12.297  1.00  0.00     0.127 C 
HETATM    5  N3  UNL     1     -19.365  -7.822  13.013  1.00  0.00    -0.314 N 
HETATM    6  C4  UNL     1     -19.334  -8.124  14.357  1.00  0.00     0.189 C 
ATOM      7  H3  UNL     1     -19.238  -8.661  12.446  1.00  0.00     0.170 HD
HETATM    8  N1  UNL     1     -18.344  -7.898  15.151  1.00  0.00    -0.364 N 
HETATM    9  N2  UNL     1     -20.477  -8.750  14.925  1.00  0.00    -0.063 NA
ATOM     10  H1  UNL     1     -17.495  -7.453  14.803  1.00  0.00     0.162 HD
BRANCH   8  11
HETATM   11  C3  UNL     1     -18.449  -8.282  16.534  1.00  0.00     0.122 C 
BRANCH  11  12
HETATM   12  C2  UNL     1     -17.134  -8.802  17.079  1.00  0.00     0.015 C 
HETATM   13  C1  UNL     1     -17.086  -8.600  18.595  1.00  0.00     0.006 C 
ENDBRANCH  11  12
ENDBRANCH   8  11
BRANCH   4  14
HETATM   14  C19 UNL     1     -19.713  -5.402  12.623  1.00  0.00     0.014 C 
HETATM   15  C20 UNL     1     -20.798  -5.241  13.708  1.00  0.00     0.023 C 
HETATM   16  C21 UNL     1     -20.291  -4.637  11.427  1.00  0.00     0.023 C 
HETATM   17  C22 UNL     1     -18.504  -4.685  13.155  1.00  0.00     0.023 C 
ENDBRANCH   4  14
ENDBRANCH   3   4
ENDBRANCH   2   3
ENDBRANCH   1   2
BRANCH   1  18
HETATM   18  O2  UNL     1     -16.602  -7.561  11.726  1.00  0.00    -0.392 OA
ATOM     19  H2  UNL     1     -15.875  -8.158  11.860  1.00  0.00     0.210 HD
ENDBRANCH   1  18
BRANCH   1  20
HETATM   20  C8  UNL     1     -16.407  -8.391   9.486  1.00  0.00     0.150 C 
BRANCH  20  21
HETATM   21  N4  UNL     1     -16.318  -9.772   9.177  1.00  0.00    -0.407 N 
HETATM   22  C9  UNL     1     -15.163 -10.472   9.613  1.00  0.00     0.136 C 
HETATM   23  C10 UNL     1     -15.498 -11.685  10.469  1.00  0.00     0.142 C 
HETATM   24  N5  UNL     1     -16.429 -12.538   9.736  1.00  0.00    -0.378 N 
HETATM   25  C17 UNL     1     -17.269 -11.917   8.741  1.00  0.00     0.142 C 
HETATM   26  C18 UNL     1     -17.540 -10.498   9.274  1.00  0.00     0.136 C 
BRANCH  24  27
HETATM   27  C11 UNL     1     -16.520 -13.907   9.987  1.00  0.00     0.031 A 
HETATM   28  C12 UNL     1     -17.402 -14.664   9.236  1.00  0.00     0.029 A 
HETATM   29  C13 UNL     1     -17.497 -16.010   9.490  1.00  0.00     0.004 A 
HETATM   30  C14 UNL     1     -16.754 -16.635  10.457  1.00  0.00     0.024 A 
HETATM   31  C15 UNL     1     -15.881 -15.872  11.197  1.00  0.00     0.036 A 
HETATM   32 CL1  UNL     1     -14.894 -16.582  12.449  1.00  0.00    -0.084 Cl
HETATM   33  C16 UNL     1     -15.760 -14.511  10.967  1.00  0.00     0.053 A 
ENDBRANCH  24  27
ENDBRANCH  20  21
ENDBRANCH   1  20
TORSDOF 10
ENDMDL
MODEL 4
REMARK VINA RESULT: -7.726896637      1.884      3.371
REMARK  10 active torsions:
REMARK  status: ('A' for Active; 'I' for Inactive)
REMARK    1  A    between atoms: C2_2  and  C3_3 
REMARK    2  A    between atoms: C3_3  and  N1_4 
REMARK       I    between atoms: C4_6  and  N3_8 
REMARK    3  A    between atoms: C5_10  and  O1_11 
REMARK    4  A    between atoms: C5_10  and  C19_30 
REMARK    5  A    between atoms: O1_11  and  C6_12 
REMARK    6  A    between atoms: C6_12  and  C7_13 
REMARK    7  A    between atoms: C7_13  and  O2_14 
REMARK    8  A    between atoms: C7_13  and  C8_16 
REMARK    9  A    between atoms: C8_16  and  N4_17 
REMARK   10  A    between atoms: N5_20  and  C11_21 
ROOT
HETATM    1  C7  UNL     1     -16.356  -7.783  11.058  1.00  0.00     0.160 C 
ENDROOT
BRANCH   1   2
HETATM    2  C6  UNL     1     -17.592  -6.967  11.368  1.00  0.00     0.210 C 
BRANCH   2   3
HETATM    3  O1  UNL     1     -17.140  -5.765  11.965  1.00  0.00    -0.336 OA
BRANCH   3   4
HETATM    4  C5  UNL     1     -18.092  -4.843  12.509  1.00  0.00     0.127 C 
HETATM    5  N3  UNL     1     -19.271  -5.203  12.388  1.00  0.00    -0.314 N 
HETATM    6  C4  UNL     1     -20.524  -4.731  12.713  1.00  0.00     0.189 C 
ATOM      7  H3  UNL     1     -19.332  -6.105  11.915  1.00  0.00     0.170 HD
HETATM    8  N1  UNL     1     -21.046  -4.746  13.893  1.00  0.00    -0.364 N 
HETATM    9  N2  UNL     1     -21.324  -4.192  11.669  1.00  0.00    -0.063 NA
ATOM     10  H1  UNL     1     -20.523  -5.121  14.683  1.00  0.00     0.162 HD
BRANCH   8  11
HETATM   11  C3  UNL     1     -22.376  -4.229  14.080  1.00  0.00     0.122 C 
BRANCH  11  12
HETATM   12  C2  UNL     1     -23.205  -5.114  14.990  1.00  0.00     0.015 C 
HETATM   13  C1  UNL     1     -24.425  -4.341  15.492  1.00  0.00     0.006 C 
ENDBRANCH  11  12
ENDBRANCH   8  11
BRANCH   4  14
HETATM   14  C19 UNL     1     -17.487  -3.644  13.107  1.00  0.00     0.014 C 
HETATM   15  C20 UNL     1     -18.103  -2.361  12.511  1.00  0.00     0.023 C 
HETATM   16  C21 UNL     1     -16.003  -3.529  12.742  1.00  0.00     0.023 C 
HETATM   17  C22 UNL     1     -17.660  -3.518  14.595  1.00  0.00     0.023 C 
ENDBRANCH   4  14
ENDBRANCH   3   4
ENDBRANCH   2   3
ENDBRANCH   1   2
BRANCH   1  18
HETATM   18  O2  UNL     1     -15.257  -7.035  11.470  1.00  0.00    -0.392 OA
ATOM     19  H2  UNL     1     -14.787  -7.557  12.111  1.00  0.00     0.210 HD
ENDBRANCH   1  18
BRANCH   1  20
HETATM   20  C8  UNL     1     -16.310  -8.094   9.595  1.00  0.00     0.150 C 
BRANCH  20  21
HETATM   21  N4  UNL     1     -16.265  -9.466   9.243  1.00  0.00    -0.407 N 
HETATM   22  C9  UNL     1     -15.121 -10.209   9.635  1.00  0.00     0.136 C 
HETATM   23  C10 UNL     1     -15.473 -11.439  10.460  1.00  0.00     0.142 C 
HETATM   24  N5  UNL     1     -16.441 -12.244   9.720  1.00  0.00    -0.378 N 
HETATM   25  C17 UNL     1     -17.282 -11.570   8.761  1.00  0.00     0.142 C 
HETATM   26  C18 UNL     1     -17.505 -10.162   9.341  1.00  0.00     0.136 C 
BRANCH  24  27
HETATM   27  C11 UNL     1     -16.564 -13.618   9.931  1.00  0.00     0.031 A 
HETATM   28  C12 UNL     1     -17.503 -14.321   9.197  1.00  0.00     0.029 A 
HETATM   29  C13 UNL     1     -17.630 -15.672   9.412  1.00  0.00     0.004 A 
HETATM   30  C14 UNL     1     -16.864 -16.351  10.323  1.00  0.00     0.024 A 
HETATM   31  C15 UNL     1     -15.936 -15.640  11.046  1.00  0.00     0.036 A 
HETATM   32 CL1  UNL     1     -14.917 -16.422  12.229  1.00  0.00    -0.084 Cl
HETATM   33  C16 UNL     1     -15.782 -14.277  10.855  1.00  0.00     0.053 A 
ENDBRANCH  24  27
ENDBRANCH  20  21
ENDBRANCH   1  20
TORSDOF 10
ENDMDL
MODEL 5
REMARK VINA RESULT: -7.699660637      1.474      1.928
REMARK  10 active torsions:
REMARK  status: ('A' for Active; 'I' for Inactive)
REMARK    1  A    between atoms: C2_2  and  C3_3 
REMARK    2  A    between atoms: C3_3  and  N1_4 
REMARK       I    between atoms: C4_6  and  N3_8 
REMARK    3  A    between atoms: C5_10  and  O1_11 
REMARK    4  A    between atoms: C5_10  and  C19_30 
REMARK    5  A    between atoms: O1_11  and  C6_12 
REMARK    6  A    between atoms: C6_12  and  C7_13 
REMARK    7  A    between atoms: C7_13  and  O2_14 
REMARK    8  A    between atoms: C7_13  and  C8_16 
REMARK    9  A    between atoms: C8_16  and  N4_17 
REMARK   10  A    between atoms: N5_20  and  C11_21 
ROOT
HETATM    1  C7  UNL     1     -17.108  -8.235  11.261  1.00  0.00     0.160 C 
ENDROOT
BRANCH   1   2
HETATM    2  C6  UNL     1     -17.525  -6.780  11.258  1.00  0.00     0.210 C 
BRANCH   2   3
HETATM    3  O1  UNL     1     -17.480  -6.347  12.606  1.00  0.00    -0.336 OA
BRANCH   3   4
HETATM    4  C5  UNL     1     -18.322  -5.269  13.031  1.00  0.00     0.127 C 
HETATM    5  N3  UNL     1     -18.247  -4.256  12.320  1.00  0.00    -0.314 N 
HETATM    6  C4  UNL     1     -18.804  -2.997  12.270  1.00  0.00     0.189 C 
ATOM      7  H3  UNL     1     -17.584  -4.394  11.556  1.00  0.00     0.170 HD
HETATM    8  N1  UNL     1     -19.995  -2.723  11.859  1.00  0.00    -0.364 N 
HETATM    9  N2  UNL     1     -18.005  -1.898  12.688  1.00  0.00    -0.063 NA
ATOM     10  H1  UNL     1     -20.617  -3.468  11.545  1.00  0.00     0.162 HD
BRANCH   8  11
HETATM   11  C3  UNL     1     -20.438  -1.353  11.849  1.00  0.00     0.122 C 
BRANCH  11  12
HETATM   12  C2  UNL     1     -21.951  -1.247  11.849  1.00  0.00     0.015 C 
HETATM   13  C1  UNL     1     -22.564  -2.597  11.474  1.00  0.00     0.006 C 
ENDBRANCH  11  12
ENDBRANCH   8  11
BRANCH   4  14
HETATM   14  C19 UNL     1     -19.117  -5.569  14.231  1.00  0.00     0.014 C 
HETATM   15  C20 UNL     1     -18.709  -6.929  14.834  1.00  0.00     0.023 C 
HETATM   16  C21 UNL     1     -20.596  -5.764  13.882  1.00  0.00     0.023 C 
HETATM   17  C22 UNL     1     -18.980  -4.576  15.351  1.00  0.00     0.023 C 
ENDBRANCH   4  14
ENDBRANCH   3   4
ENDBRANCH   2   3
ENDBRANCH   1   2
BRANCH   1  18
HETATM   18  O2  UNL     1     -16.482  -8.478  12.481  1.00  0.00    -0.392 OA
ATOM     19  H2  UNL     1     -15.996  -7.694  12.707  1.00  0.00     0.210 HD
ENDBRANCH   1  18
BRANCH   1  20
HETATM   20  C8  UNL     1     -16.204  -8.502  10.100  1.00  0.00     0.150 C 
BRANCH  20  21
HETATM   21  N4  UNL     1     -16.202  -9.826   9.593  1.00  0.00    -0.407 N 
HETATM   22  C9  UNL     1     -15.130 -10.675   9.974  1.00  0.00     0.136 C 
HETATM   23  C10 UNL     1     -15.605 -11.968  10.624  1.00  0.00     0.142 C 
HETATM   24  N5  UNL     1     -16.555 -12.625   9.729  1.00  0.00    -0.378 N 
HETATM   25  C17 UNL     1     -17.286 -11.799   8.800  1.00  0.00     0.142 C 
HETATM   26  C18 UNL     1     -17.479 -10.454   9.524  1.00  0.00     0.136 C 
BRANCH  24  27
HETATM   27  C11 UNL     1     -16.763 -14.004   9.770  1.00  0.00     0.031 A 
HETATM   28  C12 UNL     1     -17.603 -14.577   8.831  1.00  0.00     0.029 A 
HETATM   29  C13 UNL     1     -17.815 -15.933   8.877  1.00  0.00     0.004 A 
HETATM   30  C14 UNL     1     -17.228 -16.742   9.814  1.00  0.00     0.024 A 
HETATM   31  C15 UNL     1     -16.396 -16.160  10.742  1.00  0.00     0.036 A 
HETATM   32 CL1  UNL     1     -15.605 -17.112  11.972  1.00  0.00    -0.084 Cl
HETATM   33  C16 UNL     1     -16.160 -14.795  10.724  1.00  0.00     0.053 A 
ENDBRANCH  24  27
ENDBRANCH  20  21
ENDBRANCH   1  20
TORSDOF 10
ENDMDL
