MODEL 1
REMARK VINA RESULT: -7.658987873      0.000      0.000
REMARK  8 active torsions:
REMARK  status: ('A' for Active; 'I' for Inactive)
REMARK    1  A    between atoms: C1_2  and  C2_4 
REMARK    2  A    between atoms: C2_4  and  C3_5 
REMARK    3  A    between atoms: C6_8  and  N1_9 
REMARK    4  A    between atoms: N1_9  and  C7_10 
REMARK    5  A    between atoms: N1_9  and  C14_21 
REMARK    6  A    between atoms: C7_10  and  C8_11 
REMARK       I    between atoms: N2_14  and  C11_15 
REMARK    7  A    between atoms: C11_15  and  O4_17 
REMARK    8  A    between atoms: C19_26  and  C20_27 
ROOT
HETATM    1  N1  UNL     1     -17.102 -10.011   9.221  1.00  0.00    -0.383 N 
ENDROOT
BRANCH   1   2
HETATM    2  C6  UNL     1     -17.163  -8.898  10.036  1.00  0.00     0.098 C 
HETATM    3  C5  UNL     1     -18.547  -8.289  10.042  1.00  0.00     0.026 C 
HETATM    4  C4  UNL     1     -18.480  -6.900  10.720  1.00  0.00     0.007 C 
HETATM    5  C3  UNL     1     -18.366  -7.238  12.202  1.00  0.00    -0.004 C 
HETATM    6  C21 UNL     1     -17.594  -8.454  12.502  1.00  0.00     0.022 C 
HETATM    7  C19 UNL     1     -16.685  -8.993  11.457  1.00  0.00     0.110 C 
BRANCH   5   8
HETATM    8  C2  UNL     1     -18.075  -6.013  13.016  1.00  0.00     0.117 C 
BRANCH   8   9
HETATM    9  C1  UNL     1     -19.106  -4.967  12.830  1.00  0.00     0.172 C 
HETATM   10  O1  UNL     1     -18.745  -3.819  12.460  1.00  0.00    -0.648 OA
HETATM   11  O2  UNL     1     -20.456  -5.197  13.047  1.00  0.00    -0.648 OA
ENDBRANCH   8   9
ENDBRANCH   5   8
BRANCH   7  12
HETATM   12  C20 UNL     1     -15.353  -8.358  11.657  1.00  0.00     0.179 C 
HETATM   13  O5  UNL     1     -15.106  -7.233  11.142  1.00  0.00    -0.648 OA
HETATM   14  O6  UNL     1     -14.331  -8.922  12.385  1.00  0.00    -0.648 OA
ENDBRANCH   7  12
ENDBRANCH   1   2
BRANCH   1  15
HETATM   15  C7  UNL     1     -17.427 -11.305   9.612  1.00  0.00     0.064 C 
BRANCH  15  16
HETATM   16  C8  UNL     1     -16.776 -12.500   9.059  1.00  0.00     0.027 C 
HETATM   17  C9  UNL     1     -15.895 -13.249  10.019  1.00  0.00     0.030 C 
HETATM   18  C10 UNL     1     -16.630 -14.270  10.858  1.00  0.00     0.129 C 
HETATM   19  N2  UNL     1     -17.002 -15.334   9.922  1.00  0.00    -0.327 N 
HETATM   20  C11 UNL     1     -17.069 -16.691  10.263  1.00  0.00     0.379 C 
HETATM   21  C12 UNL     1     -17.304 -14.868   8.578  1.00  0.00     0.129 C 
HETATM   22  O3  UNL     1     -16.818 -17.140  11.406  1.00  0.00    -0.237 OA
HETATM   23  C13 UNL     1     -17.930 -13.503   8.742  1.00  0.00     0.030 C 
BRANCH  20  24
HETATM   24  O4  UNL     1     -17.437 -17.607   9.280  1.00  0.00    -0.186 OA
HETATM   25 CL1  UNL     1     -19.109 -17.974   9.059  1.00  0.00     0.072 Cl
ENDBRANCH  20  24
ENDBRANCH  15  16
ENDBRANCH   1  15
BRANCH   1  26
HETATM   26  C14 UNL     1     -16.554  -9.912   7.896  1.00  0.00     0.084 C 
HETATM   27  C15 UNL     1     -15.339  -9.082   7.712  1.00  0.00     0.025 C 
HETATM   28  C16 UNL     1     -15.727  -7.882   6.874  1.00  0.00     0.002 C 
HETATM   29  C17 UNL     1     -17.120  -8.128   6.370  1.00  0.00     0.002 C 
HETATM   30  C18 UNL     1     -17.549  -9.490   6.839  1.00  0.00     0.025 C 
ENDBRANCH   1  26
TORSDOF 8
ENDMDL
MODEL 2
REMARK VINA RESULT: -7.527567268      5.000      9.042
REMARK  8 active torsions:
REMARK  status: ('A' for Active; 'I' for Inactive)
REMARK    1  A    between atoms: C1_2  and  C2_4 
REMARK    2  A    between atoms: C2_4  and  C3_5 
REMARK    3  A    between atoms: C6_8  and  N1_9 
REMARK    4  A    between atoms: N1_9  and  C7_10 
REMARK    5  A    between atoms: N1_9  and  C14_21 
REMARK    6  A    between atoms: C7_10  and  C8_11 
REMARK       I    between atoms: N2_14  and  C11_15 
REMARK    7  A    between atoms: C11_15  and  O4_17 
REMARK    8  A    between atoms: C19_26  and  C20_27 
ROOT
HETATM    1  N1  UNL     1     -17.903  -7.551  12.750  1.00  0.00    -0.383 N 
ENDROOT
BRANCH   1   2
HETATM    2  C6  UNL     1     -17.341  -8.386  11.804  1.00  0.00     0.098 C 
HETATM    3  C5  UNL     1     -18.212  -8.496  10.573  1.00  0.00     0.026 C 
HETATM    4  C4  UNL     1     -17.690  -9.655   9.692  1.00  0.00     0.007 C 
HETATM    5  C3  UNL     1     -16.441  -9.068   9.045  1.00  0.00    -0.004 C 
HETATM    6  C21 UNL     1     -15.684  -8.136   9.893  1.00  0.00     0.022 C 
HETATM    7  C19 UNL     1     -15.925  -8.154  11.360  1.00  0.00     0.110 C 
BRANCH   5   8
HETATM    8  C2  UNL     1     -15.667 -10.121   8.309  1.00  0.00     0.117 C 
BRANCH   8   9
HETATM    9  C1  UNL     1     -15.002  -9.577   7.103  1.00  0.00     0.172 C 
HETATM   10  O1  UNL     1     -13.809  -9.906   6.868  1.00  0.00    -0.648 OA
HETATM   11  O2  UNL     1     -15.637  -8.718   6.219  1.00  0.00    -0.648 OA
ENDBRANCH   8   9
ENDBRANCH   5   8
BRANCH   7  12
HETATM   12  C20 UNL     1     -14.972  -9.130  11.954  1.00  0.00     0.179 C 
HETATM   13  O5  UNL     1     -15.016  -9.385  13.190  1.00  0.00    -0.648 OA
HETATM   14  O6  UNL     1     -14.009  -9.801  11.237  1.00  0.00    -0.648 OA
ENDBRANCH   7  12
ENDBRANCH   1   2
BRANCH   1  15
HETATM   15  C7  UNL     1     -17.582  -6.209  12.922  1.00  0.00     0.064 C 
BRANCH  15  16
HETATM   16  C8  UNL     1     -17.946  -5.166  11.955  1.00  0.00     0.027 C 
HETATM   17  C9  UNL     1     -19.117  -5.496  11.070  1.00  0.00     0.030 C 
HETATM   18  C10 UNL     1     -20.458  -5.143  11.670  1.00  0.00     0.129 C 
HETATM   19  N2  UNL     1     -20.502  -3.679  11.668  1.00  0.00    -0.327 N 
HETATM   20  C11 UNL     1     -21.671  -2.930  11.480  1.00  0.00     0.379 C 
HETATM   21  C12 UNL     1     -19.213  -3.042  11.877  1.00  0.00     0.129 C 
HETATM   22  O3  UNL     1     -22.804  -3.433  11.295  1.00  0.00    -0.237 OA
HETATM   23  C13 UNL     1     -18.444  -3.955  12.805  1.00  0.00     0.030 C 
BRANCH  20  24
HETATM   24  O4  UNL     1     -21.581  -1.540  11.499  1.00  0.00    -0.186 OA
HETATM   25 CL1  UNL     1     -23.032  -0.606  11.554  1.00  0.00     0.072 Cl
ENDBRANCH  20  24
ENDBRANCH  15  16
ENDBRANCH   1  15
BRANCH   1  26
HETATM   26  C14 UNL     1     -18.803  -8.076  13.740  1.00  0.00     0.084 C 
HETATM   27  C15 UNL     1     -19.773  -7.139  14.357  1.00  0.00     0.025 C 
HETATM   28  C16 UNL     1     -19.393  -6.980  15.814  1.00  0.00     0.002 C 
HETATM   29  C17 UNL     1     -18.336  -8.005  16.108  1.00  0.00     0.002 C 
HETATM   30  C18 UNL     1     -18.125  -8.824  14.866  1.00  0.00     0.025 C 
ENDBRANCH   1  26
TORSDOF 8
ENDMDL
MODEL 3
REMARK VINA RESULT: -7.526035435      0.967      1.560
REMARK  8 active torsions:
REMARK  status: ('A' for Active; 'I' for Inactive)
REMARK    1  A    between atoms: C1_2  and  C2_4 
REMARK    2  A    between atoms: C2_4  and  C3_5 
REMARK    3  A    between atoms: C6_8  and  N1_9 
REMARK    4  A    between atoms: N1_9  and  C7_10 
REMARK    5  A    between atoms: N1_9  and  C14_21 
REMARK    6  A    between atoms: C7_10  and  C8_11 
REMARK       I    between atoms: N2_14  and  C11_15 
REMARK    7  A    between atoms: C11_15  and  O4_17 
REMARK    8  A    between atoms: C19_26  and  C20_27 
ROOT
HETATM    1  N1  UNL     1     -16.099 -10.194   9.190  1.00  0.00    -0.383 N 
ENDROOT
BRANCH   1   2
HETATM    2  C6  UNL     1     -16.472  -9.107   9.955  1.00  0.00     0.098 C 
HETATM    3  C5  UNL     1     -17.941  -8.791   9.791  1.00  0.00     0.026 C 
HETATM    4  C4  UNL     1     -18.230  -7.409  10.423  1.00  0.00     0.007 C 
HETATM    5  C3  UNL     1     -18.217  -7.698  11.920  1.00  0.00    -0.004 C 
HETATM    6  C21 UNL     1     -17.257  -8.728  12.343  1.00  0.00     0.022 C 
HETATM    7  C19 UNL     1     -16.146  -9.085  11.420  1.00  0.00     0.110 C 
BRANCH   5   8
HETATM    8  C2  UNL     1     -18.270  -6.429  12.717  1.00  0.00     0.117 C 
BRANCH   8   9
HETATM    9  C1  UNL     1     -19.453  -5.609  12.373  1.00  0.00     0.172 C 
HETATM   10  O1  UNL     1     -19.279  -4.420  11.996  1.00  0.00    -0.648 OA
HETATM   11  O2  UNL     1     -20.750  -6.093  12.450  1.00  0.00    -0.648 OA
ENDBRANCH   8   9
ENDBRANCH   5   8
BRANCH   7  12
HETATM   12  C20 UNL     1     -14.999  -8.191  11.740  1.00  0.00     0.179 C 
HETATM   13  O5  UNL     1     -14.001  -8.643  12.367  1.00  0.00    -0.648 OA
HETATM   14  O6  UNL     1     -14.939  -6.861  11.394  1.00  0.00    -0.648 OA
ENDBRANCH   7  12
ENDBRANCH   1   2
BRANCH   1  15
HETATM   15  C7  UNL     1     -15.759 -11.445   9.694  1.00  0.00     0.064 C 
BRANCH  15  16
HETATM   16  C8  UNL     1     -16.743 -12.377  10.260  1.00  0.00     0.027 C 
HETATM   17  C9  UNL     1     -17.986 -12.572   9.435  1.00  0.00     0.030 C 
HETATM   18  C10 UNL     1     -17.859 -13.644   8.378  1.00  0.00     0.129 C 
HETATM   19  N2  UNL     1     -17.808 -14.906   9.121  1.00  0.00    -0.327 N 
HETATM   20  C11 UNL     1     -18.345 -16.113   8.654  1.00  0.00     0.379 C 
HETATM   21  C12 UNL     1     -17.146 -14.813  10.411  1.00  0.00     0.129 C 
HETATM   22  O3  UNL     1     -18.926 -16.242   7.551  1.00  0.00    -0.237 OA
HETATM   23  C13 UNL     1     -16.056 -13.779  10.246  1.00  0.00     0.030 C 
BRANCH  20  24
HETATM   24  O4  UNL     1     -18.232 -17.246   9.457  1.00  0.00    -0.186 OA
HETATM   25 CL1  UNL     1     -18.630 -18.788   8.791  1.00  0.00     0.072 Cl
ENDBRANCH  20  24
ENDBRANCH  15  16
ENDBRANCH   1  15
BRANCH   1  26
HETATM   26  C14 UNL     1     -15.909 -10.056   7.772  1.00  0.00     0.084 C 
HETATM   27  C15 UNL     1     -14.944  -9.032   7.302  1.00  0.00     0.025 C 
HETATM   28  C16 UNL     1     -15.732  -7.955   6.585  1.00  0.00     0.002 C 
HETATM   29  C17 UNL     1     -17.136  -8.464   6.433  1.00  0.00     0.002 C 
HETATM   30  C18 UNL     1     -17.187  -9.860   6.987  1.00  0.00     0.025 C 
ENDBRANCH   1  26
TORSDOF 8
ENDMDL
MODEL 4
REMARK VINA RESULT: -7.366261981      3.919      6.499
REMARK  8 active torsions:
REMARK  status: ('A' for Active; 'I' for Inactive)
REMARK    1  A    between atoms: C1_2  and  C2_4 
REMARK    2  A    between atoms: C2_4  and  C3_5 
REMARK    3  A    between atoms: C6_8  and  N1_9 
REMARK    4  A    between atoms: N1_9  and  C7_10 
REMARK    5  A    between atoms: N1_9  and  C14_21 
REMARK    6  A    between atoms: C7_10  and  C8_11 
REMARK       I    between atoms: N2_14  and  C11_15 
REMARK    7  A    between atoms: C11_15  and  O4_17 
REMARK    8  A    between atoms: C19_26  and  C20_27 
ROOT
HETATM    1  N1  UNL     1     -18.294  -6.378  13.488  1.00  0.00    -0.383 N 
ENDROOT
BRANCH   1   2
HETATM    2  C6  UNL     1     -18.461  -5.041  13.187  1.00  0.00     0.098 C 
HETATM    3  C5  UNL     1     -19.921  -4.650  13.186  1.00  0.00     0.026 C 
HETATM    4  C4  UNL     1     -20.063  -3.243  12.560  1.00  0.00     0.007 C 
HETATM    5  C3  UNL     1     -19.572  -2.316  13.666  1.00  0.00    -0.004 C 
HETATM    6  C21 UNL     1     -18.481  -2.858  14.490  1.00  0.00     0.022 C 
HETATM    7  C19 UNL     1     -17.697  -4.006  13.963  1.00  0.00     0.110 C 
BRANCH   5   8
HETATM    8  C2  UNL     1     -19.433  -0.907  13.170  1.00  0.00     0.117 C 
BRANCH   8   9
HETATM    9  C1  UNL     1     -19.872  -0.770  11.763  1.00  0.00     0.172 C 
HETATM   10  O1  UNL     1     -21.103  -0.671  11.519  1.00  0.00    -0.648 OA
HETATM   11  O2  UNL     1     -18.984  -0.747  10.699  1.00  0.00    -0.648 OA
ENDBRANCH   8   9
ENDBRANCH   5   8
BRANCH   7  12
HETATM   12  C20 UNL     1     -16.550  -3.446  13.197  1.00  0.00     0.179 C 
HETATM   13  O5  UNL     1     -15.619  -4.204  12.807  1.00  0.00    -0.648 OA
HETATM   14  O6  UNL     1     -16.418  -2.117  12.868  1.00  0.00    -0.648 OA
ENDBRANCH   7  12
ENDBRANCH   1   2
BRANCH   1  15
HETATM   15  C7  UNL     1     -17.449  -7.249  12.808  1.00  0.00     0.064 C 
BRANCH  15  16
HETATM   16  C8  UNL     1     -17.111  -7.095  11.387  1.00  0.00     0.027 C 
HETATM   17  C9  UNL     1     -15.875  -7.826  10.942  1.00  0.00     0.030 C 
HETATM   18  C10 UNL     1     -16.123  -9.260  10.533  1.00  0.00     0.129 C 
HETATM   19  N2  UNL     1     -16.871  -9.173   9.277  1.00  0.00    -0.327 N 
HETATM   20  C11 UNL     1     -16.753 -10.094   8.228  1.00  0.00     0.379 C 
HETATM   21  C12 UNL     1     -17.767  -8.032   9.193  1.00  0.00     0.129 C 
HETATM   22  O3  UNL     1     -15.994 -11.092   8.253  1.00  0.00    -0.237 OA
HETATM   23  C13 UNL     1     -18.266  -7.791  10.599  1.00  0.00     0.030 C 
BRANCH  20  24
HETATM   24  O4  UNL     1     -17.521  -9.901   7.082  1.00  0.00    -0.186 OA
HETATM   25 CL1  UNL     1     -16.861  -8.985   5.775  1.00  0.00     0.072 Cl
ENDBRANCH  20  24
ENDBRANCH  15  16
ENDBRANCH   1  15
BRANCH   1  26
HETATM   26  C14 UNL     1     -19.114  -7.007  14.486  1.00  0.00     0.084 C 
HETATM   27  C15 UNL     1     -18.811  -6.719  15.909  1.00  0.00     0.025 C 
HETATM   28  C16 UNL     1     -18.303  -7.999  16.538  1.00  0.00     0.002 C 
HETATM   29  C17 UNL     1     -18.527  -9.099  15.540  1.00  0.00     0.002 C 
HETATM   30  C18 UNL     1     -19.225  -8.509  14.347  1.00  0.00     0.025 C 
ENDBRANCH   1  26
TORSDOF 8
ENDMDL
MODEL 5
REMARK VINA RESULT: -7.356529044      4.265      6.847
REMARK  8 active torsions:
REMARK  status: ('A' for Active; 'I' for Inactive)
REMARK    1  A    between atoms: C1_2  and  C2_4 
REMARK    2  A    between atoms: C2_4  and  C3_5 
REMARK    3  A    between atoms: C6_8  and  N1_9 
REMARK    4  A    between atoms: N1_9  and  C7_10 
REMARK    5  A    between atoms: N1_9  and  C14_21 
REMARK    6  A    between atoms: C7_10  and  C8_11 
REMARK       I    between atoms: N2_14  and  C11_15 
REMARK    7  A    between atoms: C11_15  and  O4_17 
REMARK    8  A    between atoms: C19_26  and  C20_27 
ROOT
HETATM    1  N1  UNL     1     -18.674  -7.533  13.729  1.00  0.00    -0.383 N 
ENDROOT
BRANCH   1   2
HETATM    2  C6  UNL     1     -19.083  -6.215  13.789  1.00  0.00     0.098 C 
HETATM    3  C5  UNL     1     -17.910  -5.266  13.706  1.00  0.00     0.026 C 
HETATM    4  C4  UNL     1     -18.391  -3.842  14.074  1.00  0.00     0.007 C 
HETATM    5  C3  UNL     1     -19.146  -3.394  12.828  1.00  0.00    -0.004 C 
HETATM    6  C21 UNL     1     -19.870  -4.463  12.125  1.00  0.00     0.022 C 
HETATM    7  C19 UNL     1     -20.151  -5.728  12.853  1.00  0.00     0.110 C 
BRANCH   5   8
HETATM    8  C2  UNL     1     -19.875  -2.106  13.072  1.00  0.00     0.117 C 
BRANCH   8   9
HETATM    9  C1  UNL     1     -20.376  -1.507  11.813  1.00  0.00     0.172 C 
HETATM   10  O1  UNL     1     -19.553  -0.960  11.033  1.00  0.00    -0.648 OA
HETATM   11  O2  UNL     1     -21.715  -1.523  11.456  1.00  0.00    -0.648 OA
ENDBRANCH   8   9
ENDBRANCH   5   8
BRANCH   7  12
HETATM   12  C20 UNL     1     -21.472  -5.571  13.522  1.00  0.00     0.179 C 
HETATM   13  O5  UNL     1     -21.986  -6.542  14.143  1.00  0.00    -0.648 OA
HETATM   14  O6  UNL     1     -22.205  -4.407  13.517  1.00  0.00    -0.648 OA
ENDBRANCH   7  12
ENDBRANCH   1   2
BRANCH   1  15
HETATM   15  C7  UNL     1     -18.197  -8.169  12.588  1.00  0.00     0.064 C 
BRANCH  15  16
HETATM   16  C8  UNL     1     -17.393  -7.488  11.565  1.00  0.00     0.027 C 
HETATM   17  C9  UNL     1     -15.996  -8.018  11.394  1.00  0.00     0.030 C 
HETATM   18  C10 UNL     1     -15.895  -9.179  10.431  1.00  0.00     0.129 C 
HETATM   19  N2  UNL     1     -16.144  -8.599   9.109  1.00  0.00    -0.327 N 
HETATM   20  C11 UNL     1     -15.538  -9.048   7.928  1.00  0.00     0.379 C 
HETATM   21  C12 UNL     1     -17.088  -7.494   9.110  1.00  0.00     0.129 C 
HETATM   22  O3  UNL     1     -14.718  -9.995   7.877  1.00  0.00    -0.237 OA
HETATM   23  C13 UNL     1     -18.087  -7.802  10.202  1.00  0.00     0.030 C 
BRANCH  20  24
HETATM   24  O4  UNL     1     -15.859  -8.412   6.732  1.00  0.00    -0.186 OA
HETATM   25 CL1  UNL     1     -17.247  -8.937   5.849  1.00  0.00     0.072 Cl
ENDBRANCH  20  24
ENDBRANCH  15  16
ENDBRANCH   1  15
BRANCH   1  26
HETATM   26  C14 UNL     1     -18.842  -8.399  14.864  1.00  0.00     0.084 C 
HETATM   27  C15 UNL     1     -19.346  -7.798  16.122  1.00  0.00     0.025 C 
HETATM   28  C16 UNL     1     -18.226  -7.856  17.139  1.00  0.00     0.002 C 
HETATM   29  C17 UNL     1     -17.136  -8.703  16.547  1.00  0.00     0.002 C 
HETATM   30  C18 UNL     1     -17.615  -9.211  15.216  1.00  0.00     0.025 C 
ENDBRANCH   1  26
TORSDOF 8
ENDMDL
