MODEL 1
REMARK VINA RESULT: -7.248666841      0.000      0.000
REMARK  9 active torsions:
REMARK  status: ('A' for Active; 'I' for Inactive)
REMARK       I    between atoms: C1_2  and  N1_3 
REMARK    1  A    between atoms: C1_2  and  O4_27 
REMARK    2  A    between atoms: N1_3  and  C2_5 
REMARK    3  A    between atoms: C10_13  and  C11_14 
REMARK    4  A    between atoms: C11_14  and  O2_15 
REMARK    5  A    between atoms: C11_14  and  C12_17 
REMARK    6  A    between atoms: O4_27  and  C17_28 
REMARK    7  A    between atoms: C17_28  and  C18_29 
REMARK    8  A    between atoms: C18_29  and  C19_30 
REMARK    9  A    between atoms: C19_30  and  C20_31 
ROOT
HETATM    1  C2  UNL     1     -18.250  -6.723  10.645  1.00  0.00     0.091 C 
HETATM    2  C3  UNL     1     -19.486  -5.913  10.981  1.00  0.00     0.031 C 
HETATM    3  C4  UNL     1     -19.838  -5.977  12.427  1.00  0.00     0.003 C 
HETATM    4  C5  UNL     1     -20.168  -7.343  12.901  1.00  0.00     0.010 C 
HETATM    5  C6  UNL     1     -18.954  -7.761  13.637  1.00  0.00    -0.013 C 
HETATM    6  C7  UNL     1     -17.746  -7.989  12.781  1.00  0.00     0.011 C 
HETATM    7  C8  UNL     1     -17.408  -6.881  11.858  1.00  0.00     0.010 C 
HETATM    8  C9  UNL     1     -17.413  -5.548  12.588  1.00  0.00     0.023 C 
HETATM    9  C10 UNL     1     -18.709  -5.453  13.347  1.00  0.00     0.015 C 
HETATM   10  C16 UNL     1     -18.686  -6.472  14.447  1.00  0.00     0.021 C 
ENDROOT
BRANCH   9  11
HETATM   11  C11 UNL     1     -19.069  -4.120  13.819  1.00  0.00     0.080 C 
BRANCH  11  12
HETATM   12  O2  UNL     1     -19.270  -3.939  15.096  1.00  0.00    -0.362 OA
ATOM     13  H2  UNL     1     -18.688  -3.358  15.572  1.00  0.00     0.217 HD
ENDBRANCH  11  12
BRANCH  11  14
HETATM   14  C12 UNL     1     -19.240  -2.929  13.023  1.00  0.00     0.080 A 
HETATM   15  C13 UNL     1     -18.123  -2.196  12.592  1.00  0.00     0.119 A 
HETATM   16  N2  UNL     1     -18.275  -1.090  11.864  1.00  0.00    -0.368 N 
HETATM   17  C14 UNL     1     -19.472  -0.604  11.498  1.00  0.00     0.162 A 
ATOM     18  H2  UNL     1     -17.438  -0.587  11.571  1.00  0.00     0.164 HD
HETATM   19  C15 UNL     1     -20.580  -1.303  11.908  1.00  0.00     0.261 A 
HETATM   20  O3  UNL     1     -21.725  -0.875  11.583  1.00  0.00    -0.267 OA
HETATM   21  N3  UNL     1     -20.428  -2.436  12.653  1.00  0.00    -0.319 N 
ATOM     22  H3  UNL     1     -21.267  -2.935  12.946  1.00  0.00     0.169 HD
ENDBRANCH  11  14
ENDBRANCH   9  11
BRANCH   1  23
HETATM   23  N1  UNL     1     -18.545  -7.954   9.950  1.00  0.00    -0.332 N 
HETATM   24  C1  UNL     1     -17.743  -8.404   8.863  1.00  0.00     0.360 C 
HETATM   25  O1  UNL     1     -16.742  -7.756   8.454  1.00  0.00    -0.239 OA
ATOM     26  H1  UNL     1     -19.346  -8.513  10.245  1.00  0.00     0.165 HD
BRANCH  24  27
HETATM   27  O4  UNL     1     -18.029  -9.586   8.198  1.00  0.00    -0.304 OA
BRANCH  27  28
HETATM   28  C17 UNL     1     -17.001 -10.566   8.024  1.00  0.00     0.180 C 
BRANCH  28  29
HETATM   29  C18 UNL     1     -16.988 -11.561   9.127  1.00  0.00     0.028 C 
BRANCH  29  30
HETATM   30  C19 UNL     1     -15.888 -11.527  10.096  1.00  0.00     0.013 C 
BRANCH  30  31
HETATM   31  C20 UNL     1     -14.925 -10.401   9.997  1.00  0.00     0.085 C 
HETATM   32 BR1  UNL     1     -13.940 -10.006  11.588  1.00  0.00    -0.097 Br
ENDBRANCH  30  31
ENDBRANCH  29  30
ENDBRANCH  28  29
ENDBRANCH  27  28
ENDBRANCH  24  27
ENDBRANCH   1  23
TORSDOF 9
ENDMDL
MODEL 2
REMARK VINA RESULT: -7.228578059      4.053      6.192
REMARK  9 active torsions:
REMARK  status: ('A' for Active; 'I' for Inactive)
REMARK       I    between atoms: C1_2  and  N1_3 
REMARK    1  A    between atoms: C1_2  and  O4_27 
REMARK    2  A    between atoms: N1_3  and  C2_5 
REMARK    3  A    between atoms: C10_13  and  C11_14 
REMARK    4  A    between atoms: C11_14  and  O2_15 
REMARK    5  A    between atoms: C11_14  and  C12_17 
REMARK    6  A    between atoms: O4_27  and  C17_28 
REMARK    7  A    between atoms: C17_28  and  C18_29 
REMARK    8  A    between atoms: C18_29  and  C19_30 
REMARK    9  A    between atoms: C19_30  and  C20_31 
ROOT
HETATM    1  C2  UNL     1     -16.798 -11.747  10.156  1.00  0.00     0.091 C 
HETATM    2  C3  UNL     1     -15.726 -10.893  10.803  1.00  0.00     0.031 C 
HETATM    3  C4  UNL     1     -15.385  -9.690   9.995  1.00  0.00     0.003 C 
HETATM    4  C5  UNL     1     -14.827 -10.008   8.658  1.00  0.00     0.010 C 
HETATM    5  C6  UNL     1     -15.957  -9.755   7.737  1.00  0.00    -0.013 C 
HETATM    6  C7  UNL     1     -17.096 -10.719   7.859  1.00  0.00     0.011 C 
HETATM    7  C8  UNL     1     -17.613 -10.916   9.234  1.00  0.00     0.010 C 
HETATM    8  C9  UNL     1     -17.850  -9.580   9.919  1.00  0.00     0.023 C 
HETATM    9  C10 UNL     1     -16.599  -8.760   9.754  1.00  0.00     0.015 C 
HETATM   10  C16 UNL     1     -16.455  -8.407   8.303  1.00  0.00     0.021 C 
ENDROOT
BRANCH   9  11
HETATM   11  C11 UNL     1     -16.483  -7.600  10.632  1.00  0.00     0.080 C 
BRANCH  11  12
HETATM   12  O2  UNL     1     -15.315  -7.309  11.136  1.00  0.00    -0.362 OA
ATOM     13  H2  UNL     1     -14.603  -7.094  10.544  1.00  0.00     0.217 HD
ENDBRANCH  11  12
BRANCH  11  14
HETATM   14  C12 UNL     1     -17.537  -6.700  11.032  1.00  0.00     0.080 A 
HETATM   15  C13 UNL     1     -17.294  -5.702  11.990  1.00  0.00     0.119 A 
HETATM   16  N2  UNL     1     -18.266  -4.875  12.370  1.00  0.00    -0.368 N 
HETATM   17  C14 UNL     1     -19.517  -4.928  11.884  1.00  0.00     0.162 A 
ATOM     18  H2  UNL     1     -18.049  -4.163  13.068  1.00  0.00     0.164 HD
HETATM   19  C15 UNL     1     -19.779  -5.895  10.946  1.00  0.00     0.261 A 
HETATM   20  O3  UNL     1     -20.946  -5.976  10.465  1.00  0.00    -0.267 OA
HETATM   21  N3  UNL     1     -18.786  -6.745  10.554  1.00  0.00    -0.319 N 
ATOM     22  H3  UNL     1     -19.008  -7.455   9.857  1.00  0.00     0.169 HD
ENDBRANCH  11  14
ENDBRANCH   9  11
BRANCH   1  23
HETATM   23  N1  UNL     1     -16.284 -12.966   9.576  1.00  0.00    -0.332 N 
HETATM   24  C1  UNL     1     -16.662 -14.244  10.079  1.00  0.00     0.360 C 
HETATM   25  O1  UNL     1     -17.458 -14.376  11.047  1.00  0.00    -0.239 OA
ATOM     26  H1  UNL     1     -15.636 -12.910   8.790  1.00  0.00     0.165 HD
BRANCH  24  27
HETATM   27  O4  UNL     1     -16.166 -15.412   9.521  1.00  0.00    -0.304 OA
BRANCH  27  28
HETATM   28  C17 UNL     1     -16.361 -16.657  10.199  1.00  0.00     0.180 C 
BRANCH  28  29
HETATM   29  C18 UNL     1     -17.188 -17.601   9.404  1.00  0.00     0.028 C 
BRANCH  29  30
HETATM   30  C19 UNL     1     -18.517 -17.173   8.957  1.00  0.00     0.013 C 
BRANCH  30  31
HETATM   31  C20 UNL     1     -19.594 -18.195   8.944  1.00  0.00     0.085 C 
HETATM   32 BR1  UNL     1     -19.235 -19.769   7.917  1.00  0.00    -0.097 Br
ENDBRANCH  30  31
ENDBRANCH  29  30
ENDBRANCH  28  29
ENDBRANCH  27  28
ENDBRANCH  24  27
ENDBRANCH   1  23
TORSDOF 9
ENDMDL
MODEL 3
REMARK VINA RESULT: -7.082503703      3.938      6.290
REMARK  9 active torsions:
REMARK  status: ('A' for Active; 'I' for Inactive)
REMARK       I    between atoms: C1_2  and  N1_3 
REMARK    1  A    between atoms: C1_2  and  O4_27 
REMARK    2  A    between atoms: N1_3  and  C2_5 
REMARK    3  A    between atoms: C10_13  and  C11_14 
REMARK    4  A    between atoms: C11_14  and  O2_15 
REMARK    5  A    between atoms: C11_14  and  C12_17 
REMARK    6  A    between atoms: O4_27  and  C17_28 
REMARK    7  A    between atoms: C17_28  and  C18_29 
REMARK    8  A    between atoms: C18_29  and  C19_30 
REMARK    9  A    between atoms: C19_30  and  C20_31 
ROOT
HETATM    1  C2  UNL     1     -17.452 -11.483   9.026  1.00  0.00     0.091 C 
HETATM    2  C3  UNL     1     -16.916 -11.036  10.371  1.00  0.00     0.031 C 
HETATM    3  C4  UNL     1     -15.915  -9.940  10.255  1.00  0.00     0.003 C 
HETATM    4  C5  UNL     1     -14.700 -10.319   9.495  1.00  0.00     0.010 C 
HETATM    5  C6  UNL     1     -14.895  -9.676   8.176  1.00  0.00    -0.013 C 
HETATM    6  C7  UNL     1     -15.999 -10.259   7.349  1.00  0.00     0.011 C 
HETATM    7  C8  UNL     1     -17.305 -10.385   8.037  1.00  0.00     0.010 C 
HETATM    8  C9  UNL     1     -17.672  -9.089   8.742  1.00  0.00     0.023 C 
HETATM    9  C10 UNL     1     -16.485  -8.674   9.569  1.00  0.00     0.015 C 
HETATM   10  C16 UNL     1     -15.376  -8.282   8.637  1.00  0.00     0.021 C 
ENDROOT
BRANCH   9  11
HETATM   11  C11 UNL     1     -16.747  -7.664  10.590  1.00  0.00     0.080 C 
BRANCH  11  12
HETATM   12  O2  UNL     1     -15.748  -6.963  11.051  1.00  0.00    -0.362 OA
ATOM     13  H2  UNL     1     -15.756  -6.702  11.964  1.00  0.00     0.217 HD
ENDBRANCH  11  12
BRANCH  11  14
HETATM   14  C12 UNL     1     -18.021  -7.332  11.180  1.00  0.00     0.080 A 
HETATM   15  C13 UNL     1     -18.423  -7.929  12.385  1.00  0.00     0.119 A 
HETATM   16  N2  UNL     1     -19.603  -7.634  12.930  1.00  0.00    -0.368 N 
HETATM   17  C14 UNL     1     -20.474  -6.768  12.386  1.00  0.00     0.162 A 
ATOM     18  H2  UNL     1     -19.858  -8.090  13.806  1.00  0.00     0.164 HD
HETATM   19  C15 UNL     1     -20.103  -6.171  11.207  1.00  0.00     0.261 A 
HETATM   20  O3  UNL     1     -20.898  -5.350  10.664  1.00  0.00    -0.267 OA
HETATM   21  N3  UNL     1     -18.896  -6.472  10.646  1.00  0.00    -0.319 N 
ATOM     22  H3  UNL     1     -18.646  -6.015   9.769  1.00  0.00     0.169 HD
ENDBRANCH  11  14
ENDBRANCH   9  11
BRANCH   1  23
HETATM   23  N1  UNL     1     -16.926 -12.757   8.596  1.00  0.00    -0.332 N 
HETATM   24  C1  UNL     1     -17.736 -13.929   8.587  1.00  0.00     0.360 C 
HETATM   25  O1  UNL     1     -18.943 -13.915   8.950  1.00  0.00    -0.239 OA
ATOM     26  H1  UNL     1     -15.954 -12.819   8.293  1.00  0.00     0.165 HD
BRANCH  24  27
HETATM   27  O4  UNL     1     -17.228 -15.151   8.175  1.00  0.00    -0.304 OA
BRANCH  27  28
HETATM   28  C17 UNL     1     -16.469 -15.946   9.090  1.00  0.00     0.180 C 
BRANCH  28  29
HETATM   29  C18 UNL     1     -17.228 -17.132   9.563  1.00  0.00     0.028 C 
BRANCH  29  30
HETATM   30  C19 UNL     1     -18.536 -17.417   8.966  1.00  0.00     0.013 C 
BRANCH  30  31
HETATM   31  C20 UNL     1     -18.833 -18.829   8.614  1.00  0.00     0.085 C 
HETATM   32 BR1  UNL     1     -20.077 -19.087   7.185  1.00  0.00    -0.097 Br
ENDBRANCH  30  31
ENDBRANCH  29  30
ENDBRANCH  28  29
ENDBRANCH  27  28
ENDBRANCH  24  27
ENDBRANCH   1  23
TORSDOF 9
ENDMDL
MODEL 4
REMARK VINA RESULT: -7.045897156      3.988      6.308
REMARK  9 active torsions:
REMARK  status: ('A' for Active; 'I' for Inactive)
REMARK       I    between atoms: C1_2  and  N1_3 
REMARK    1  A    between atoms: C1_2  and  O4_27 
REMARK    2  A    between atoms: N1_3  and  C2_5 
REMARK    3  A    between atoms: C10_13  and  C11_14 
REMARK    4  A    between atoms: C11_14  and  O2_15 
REMARK    5  A    between atoms: C11_14  and  C12_17 
REMARK    6  A    between atoms: O4_27  and  C17_28 
REMARK    7  A    between atoms: C17_28  and  C18_29 
REMARK    8  A    between atoms: C18_29  and  C19_30 
REMARK    9  A    between atoms: C19_30  and  C20_31 
ROOT
HETATM    1  C2  UNL     1     -16.793 -11.774  10.133  1.00  0.00     0.091 C 
HETATM    2  C3  UNL     1     -15.701 -10.967  10.806  1.00  0.00     0.031 C 
HETATM    3  C4  UNL     1     -15.326  -9.752  10.031  1.00  0.00     0.003 C 
HETATM    4  C5  UNL     1     -14.774 -10.047   8.687  1.00  0.00     0.010 C 
HETATM    5  C6  UNL     1     -15.895  -9.740   7.771  1.00  0.00    -0.013 C 
HETATM    6  C7  UNL     1     -17.060 -10.676   7.866  1.00  0.00     0.011 C 
HETATM    7  C8  UNL     1     -17.584 -10.897   9.234  1.00  0.00     0.010 C 
HETATM    8  C9  UNL     1     -17.787  -9.574   9.955  1.00  0.00     0.023 C 
HETATM    9  C10 UNL     1     -16.515  -8.783   9.814  1.00  0.00     0.015 C 
HETATM   10  C16 UNL     1     -16.359  -8.394   8.374  1.00  0.00     0.021 C 
ENDROOT
BRANCH   9  11
HETATM   11  C11 UNL     1     -16.370  -7.651  10.724  1.00  0.00     0.080 C 
BRANCH  11  12
HETATM   12  O2  UNL     1     -15.170  -7.285  11.084  1.00  0.00    -0.362 OA
ATOM     13  H2  UNL     1     -14.855  -7.537  11.945  1.00  0.00     0.217 HD
ENDBRANCH  11  12
BRANCH  11  14
HETATM   14  C12 UNL     1     -17.426  -6.855  11.300  1.00  0.00     0.080 A 
HETATM   15  C13 UNL     1     -18.431  -6.311  10.484  1.00  0.00     0.119 A 
HETATM   16  N2  UNL     1     -19.403  -5.566  11.009  1.00  0.00    -0.368 N 
HETATM   17  C14 UNL     1     -19.495  -5.285  12.319  1.00  0.00     0.162 A 
ATOM     18  H2  UNL     1     -20.115  -5.190  10.383  1.00  0.00     0.164 HD
HETATM   19  C15 UNL     1     -18.524  -5.805  13.137  1.00  0.00     0.261 A 
HETATM   20  O3  UNL     1     -18.576  -5.561  14.377  1.00  0.00    -0.267 OA
HETATM   21  N3  UNL     1     -17.526  -6.568  12.603  1.00  0.00    -0.319 N 
ATOM     22  H3  UNL     1     -16.816  -6.941  13.233  1.00  0.00     0.169 HD
ENDBRANCH  11  14
ENDBRANCH   9  11
BRANCH   1  23
HETATM   23  N1  UNL     1     -16.310 -12.989   9.522  1.00  0.00    -0.332 N 
HETATM   24  C1  UNL     1     -16.684 -14.270  10.020  1.00  0.00     0.360 C 
HETATM   25  O1  UNL     1     -17.448 -14.408  11.012  1.00  0.00    -0.239 OA
ATOM     26  H1  UNL     1     -15.688 -12.929   8.715  1.00  0.00     0.165 HD
BRANCH  24  27
HETATM   27  O4  UNL     1     -16.218 -15.435   9.431  1.00  0.00    -0.304 OA
BRANCH  27  28
HETATM   28  C17 UNL     1     -16.362 -16.682  10.119  1.00  0.00     0.180 C 
BRANCH  28  29
HETATM   29  C18 UNL     1     -17.229 -17.632   9.375  1.00  0.00     0.028 C 
BRANCH  29  30
HETATM   30  C19 UNL     1     -18.561 -17.190   8.951  1.00  0.00     0.013 C 
BRANCH  30  31
HETATM   31  C20 UNL     1     -19.638 -18.212   8.907  1.00  0.00     0.085 C 
HETATM   32 BR1  UNL     1     -19.227 -19.812   7.942  1.00  0.00    -0.097 Br
ENDBRANCH  30  31
ENDBRANCH  29  30
ENDBRANCH  28  29
ENDBRANCH  27  28
ENDBRANCH  24  27
ENDBRANCH   1  23
TORSDOF 9
ENDMDL
MODEL 5
REMARK VINA RESULT: -7.026423273      3.324      8.866
REMARK  9 active torsions:
REMARK  status: ('A' for Active; 'I' for Inactive)
REMARK       I    between atoms: C1_2  and  N1_3 
REMARK    1  A    between atoms: C1_2  and  O4_27 
REMARK    2  A    between atoms: N1_3  and  C2_5 
REMARK    3  A    between atoms: C10_13  and  C11_14 
REMARK    4  A    between atoms: C11_14  and  O2_15 
REMARK    5  A    between atoms: C11_14  and  C12_17 
REMARK    6  A    between atoms: O4_27  and  C17_28 
REMARK    7  A    between atoms: C17_28  and  C18_29 
REMARK    8  A    between atoms: C18_29  and  C19_30 
REMARK    9  A    between atoms: C19_30  and  C20_31 
ROOT
HETATM    1  C2  UNL     1     -17.238  -7.840  10.356  1.00  0.00     0.091 C 
HETATM    2  C3  UNL     1     -17.898  -9.201  10.449  1.00  0.00     0.031 C 
HETATM    3  C4  UNL     1     -17.468 -10.123   9.361  1.00  0.00     0.003 C 
HETATM    4  C5  UNL     1     -17.821  -9.648   8.002  1.00  0.00     0.010 C 
HETATM    5  C6  UNL     1     -16.540  -9.136   7.465  1.00  0.00    -0.013 C 
HETATM    6  C7  UNL     1     -16.031  -7.895   8.129  1.00  0.00     0.011 C 
HETATM    7  C8  UNL     1     -15.960  -7.952   9.607  1.00  0.00     0.010 C 
HETATM    8  C9  UNL     1     -15.277  -9.230  10.067  1.00  0.00     0.023 C 
HETATM    9  C10 UNL     1     -15.940 -10.377   9.355  1.00  0.00     0.015 C 
HETATM   10  C16 UNL     1     -15.602 -10.286   7.896  1.00  0.00     0.021 C 
ENDROOT
BRANCH   9  11
HETATM   11  C11 UNL     1     -15.683 -11.702   9.912  1.00  0.00     0.080 C 
BRANCH  11  12
HETATM   12  O2  UNL     1     -14.614 -11.880  10.639  1.00  0.00    -0.362 OA
ATOM     13  H2  UNL     1     -14.054 -11.133  10.818  1.00  0.00     0.217 HD
ENDBRANCH  11  12
BRANCH  11  14
HETATM   14  C12 UNL     1     -16.491 -12.886   9.754  1.00  0.00     0.080 A 
HETATM   15  C13 UNL     1     -17.561 -12.900   8.846  1.00  0.00     0.119 A 
HETATM   16  N2  UNL     1     -18.317 -13.988   8.703  1.00  0.00    -0.368 N 
HETATM   17  C14 UNL     1     -18.122 -15.122   9.395  1.00  0.00     0.162 A 
ATOM     18  H2  UNL     1     -19.085 -13.958   8.032  1.00  0.00     0.164 HD
HETATM   19  C15 UNL     1     -17.081 -15.133  10.290  1.00  0.00     0.261 A 
HETATM   20  O3  UNL     1     -16.866 -16.184  10.961  1.00  0.00    -0.267 OA
HETATM   21  N3  UNL     1     -16.305 -14.021  10.439  1.00  0.00    -0.319 N 
ATOM     22  H3  UNL     1     -15.539 -14.055  11.112  1.00  0.00     0.169 HD
ENDBRANCH  11  14
ENDBRANCH   9  11
BRANCH   1  23
HETATM   23  N1  UNL     1     -18.127  -6.806   9.883  1.00  0.00    -0.332 N 
HETATM   24  C1  UNL     1     -18.793  -5.929  10.786  1.00  0.00     0.360 C 
HETATM   25  O1  UNL     1     -18.642  -6.010  12.035  1.00  0.00    -0.239 OA
ATOM     26  H1  UNL     1     -18.281  -6.701   8.880  1.00  0.00     0.165 HD
BRANCH  24  27
HETATM   27  O4  UNL     1     -19.646  -4.937  10.329  1.00  0.00    -0.304 OA
BRANCH  27  28
HETATM   28  C17 UNL     1     -20.412  -4.176  11.268  1.00  0.00     0.180 C 
BRANCH  28  29
HETATM   29  C18 UNL     1     -19.828  -2.830  11.503  1.00  0.00     0.028 C 
BRANCH  29  30
HETATM   30  C19 UNL     1     -19.125  -2.576  12.764  1.00  0.00     0.013 C 
BRANCH  30  31
HETATM   31  C20 UNL     1     -17.757  -2.003  12.679  1.00  0.00     0.085 C 
HETATM   32 BR1  UNL     1     -16.322  -3.228  12.993  1.00  0.00    -0.097 Br
ENDBRANCH  30  31
ENDBRANCH  29  30
ENDBRANCH  28  29
ENDBRANCH  27  28
ENDBRANCH  24  27
ENDBRANCH   1  23
TORSDOF 9
ENDMDL
