MODEL 1
REMARK VINA RESULT: -8.118884980      0.000      0.000
REMARK  8 active torsions:
REMARK  status: ('A' for Active; 'I' for Inactive)
REMARK    1  A    between atoms: N1_2  and  C2_4 
REMARK    2  A    between atoms: C4_10  and  N4_11 
REMARK    3  A    between atoms: N5_14  and  C7_15 
REMARK    4  A    between atoms: C7_15  and  C8_16 
REMARK    5  A    between atoms: C7_15  and  C16_24 
REMARK    6  A    between atoms: C8_16  and  C9_17 
REMARK    7  A    between atoms: C9_17  and  C10_18 
REMARK    8  A    between atoms: C10_18  and  C11_19 
ROOT
HETATM    1  N4  UNL     1     -17.259  -6.670  11.851  1.00  0.00    -0.362 N 
HETATM    2  C5  UNL     1     -16.053  -6.972  11.130  1.00  0.00     0.154 C 
HETATM    3  C6  UNL     1     -15.588  -8.362  11.614  1.00  0.00     0.292 C 
HETATM    4  N5  UNL     1     -16.435  -9.384  11.076  1.00  0.00     0.096 N 
HETATM    5  C21 UNL     1     -17.756  -8.833  11.009  1.00  0.00     0.292 C 
HETATM    6  C22 UNL     1     -18.012  -7.878  12.203  1.00  0.00     0.154 C 
ENDROOT
BRANCH   4   7
HETATM    7  C7  UNL     1     -15.949 -10.034   9.929  1.00  0.00     0.228 C 
BRANCH   7   8
HETATM    8  C8  UNL     1     -15.559 -11.461   9.928  1.00  0.00     0.036 C 
BRANCH   8   9
HETATM    9  C9  UNL     1     -16.688 -12.451   9.958  1.00  0.00     0.002 C 
BRANCH   9  10
HETATM   10  C10 UNL     1     -16.194 -13.831  10.357  1.00  0.00     0.005 C 
BRANCH  10  11
HETATM   11  C11 UNL     1     -17.223 -14.837   9.985  1.00  0.00    -0.014 C 
HETATM   12  C12 UNL     1     -16.613 -16.205   9.653  1.00  0.00     0.004 C 
HETATM   13  C13 UNL     1     -17.893 -16.959   9.265  1.00  0.00     0.000 C 
HETATM   14  C14 UNL     1     -18.629 -15.950   8.427  1.00  0.00     0.000 C 
HETATM   15  C15 UNL     1     -17.972 -14.581   8.717  1.00  0.00     0.004 C 
ENDBRANCH  10  11
ENDBRANCH   9  10
ENDBRANCH   8   9
ENDBRANCH   7   8
BRANCH   7  16
HETATM   16  C16 UNL     1     -16.348  -9.456   8.594  1.00  0.00     0.037 C 
HETATM   17  C17 UNL     1     -17.458 -10.269   7.927  1.00  0.00     0.017 C 
HETATM   18  C18 UNL     1     -17.784  -9.682   6.578  1.00  0.00     0.103 C 
HETATM   19  C19 UNL     1     -16.673  -9.142   5.814  1.00  0.00     0.217 C 
HETATM   20  O1  UNL     1     -16.826  -8.928   4.579  1.00  0.00    -0.274 OA
HETATM   21  N6  UNL     1     -15.426  -8.855   6.434  1.00  0.00    -0.361 N 
HETATM   22  C20 UNL     1     -15.146  -9.595   7.631  1.00  0.00     0.129 C 
ATOM     23  H6  UNL     1     -14.774  -8.168   6.052  1.00  0.00     0.162 HD
ENDBRANCH   7  16
ENDBRANCH   4   7
BRANCH   1  24
HETATM   24  C4  UNL     1     -17.770  -5.417  12.225  1.00  0.00     0.130 A 
HETATM   25  N3  UNL     1     -17.203  -4.700  13.245  1.00  0.00    -0.337 N 
HETATM   26  C3  UNL     1     -17.661  -3.490  13.622  1.00  0.00     0.183 A 
ATOM     27  H3  UNL     1     -16.404  -5.097  13.737  1.00  0.00     0.168 HD
HETATM   28  N2  UNL     1     -18.703  -2.890  13.033  1.00  0.00    -0.337 N 
HETATM   29  C2  UNL     1     -19.314  -3.547  12.014  1.00  0.00     0.127 A 
ATOM     30  H2  UNL     1     -19.026  -1.973  13.339  1.00  0.00     0.168 HD
HETATM   31  C23 UNL     1     -18.852  -4.788  11.623  1.00  0.00     0.121 A 
HETATM   32 CL1  UNL     1     -19.680  -5.579  10.307  1.00  0.00    -0.076 Cl
BRANCH  29  33
HETATM   33  N1  UNL     1     -20.315  -2.994  11.439  1.00  0.00    -0.379 N 
HETATM   34  C1  UNL     1     -20.762  -1.670  11.824  1.00  0.00     0.147 C 
ATOM     35  H1  UNL     1     -20.806  -3.494  10.697  1.00  0.00     0.160 HD
ENDBRANCH  29  33
ENDBRANCH   1  24
TORSDOF 8
ENDMDL
MODEL 2
REMARK VINA RESULT: -8.066959398      1.712      2.569
REMARK  8 active torsions:
REMARK  status: ('A' for Active; 'I' for Inactive)
REMARK    1  A    between atoms: N1_2  and  C2_4 
REMARK    2  A    between atoms: C4_10  and  N4_11 
REMARK    3  A    between atoms: N5_14  and  C7_15 
REMARK    4  A    between atoms: C7_15  and  C8_16 
REMARK    5  A    between atoms: C7_15  and  C16_24 
REMARK    6  A    between atoms: C8_16  and  C9_17 
REMARK    7  A    between atoms: C9_17  and  C10_18 
REMARK    8  A    between atoms: C10_18  and  C11_19 
ROOT
HETATM    1  N4  UNL     1     -18.609  -4.934  11.815  1.00  0.00    -0.362 N 
HETATM    2  C5  UNL     1     -17.261  -5.428  11.876  1.00  0.00     0.154 C 
HETATM    3  C6  UNL     1     -17.358  -6.968  11.916  1.00  0.00     0.292 C 
HETATM    4  N5  UNL     1     -17.726  -7.475  10.628  1.00  0.00     0.096 N 
HETATM    5  C21 UNL     1     -18.617  -6.517  10.046  1.00  0.00     0.292 C 
HETATM    6  C22 UNL     1     -19.511  -5.868  11.134  1.00  0.00     0.154 C 
ENDROOT
BRANCH   4   7
HETATM    7  C7  UNL     1     -16.664  -7.936   9.831  1.00  0.00     0.228 C 
BRANCH   7   8
HETATM    8  C8  UNL     1     -15.581  -8.789  10.364  1.00  0.00     0.036 C 
BRANCH   8   9
HETATM    9  C9  UNL     1     -16.003 -10.120  10.917  1.00  0.00     0.002 C 
BRANCH   9  10
HETATM   10  C10 UNL     1     -15.508 -11.259  10.042  1.00  0.00     0.005 C 
BRANCH  10  11
HETATM   11  C11 UNL     1     -16.533 -12.335  10.027  1.00  0.00    -0.014 C 
HETATM   12  C12 UNL     1     -15.951 -13.704  10.401  1.00  0.00     0.004 C 
HETATM   13  C13 UNL     1     -17.211 -14.563  10.233  1.00  0.00     0.000 C 
HETATM   14  C14 UNL     1     -17.806 -14.032   8.958  1.00  0.00     0.000 C 
HETATM   15  C15 UNL     1     -17.126 -12.668   8.696  1.00  0.00     0.004 C 
ENDBRANCH  10  11
ENDBRANCH   9  10
ENDBRANCH   8   9
ENDBRANCH   7   8
BRANCH   7  16
HETATM   16  C16 UNL     1     -16.917  -8.037   8.347  1.00  0.00     0.037 C 
HETATM   17  C17 UNL     1     -17.612  -9.346   7.974  1.00  0.00     0.017 C 
HETATM   18  C18 UNL     1     -17.796  -9.422   6.480  1.00  0.00     0.103 C 
HETATM   19  C19 UNL     1     -16.733  -8.865   5.662  1.00  0.00     0.217 C 
HETATM   20  O1  UNL     1     -16.679  -9.170   4.438  1.00  0.00    -0.274 OA
HETATM   21  N6  UNL     1     -15.760  -7.989   6.217  1.00  0.00    -0.361 N 
HETATM   22  C20 UNL     1     -15.548  -8.117   7.631  1.00  0.00     0.129 C 
ATOM     23  H6  UNL     1     -15.247  -7.314   5.648  1.00  0.00     0.162 HD
ENDBRANCH   7  16
ENDBRANCH   4   7
BRANCH   1  24
HETATM   24  C4  UNL     1     -19.125  -3.722  12.299  1.00  0.00     0.130 A 
HETATM   25  N3  UNL     1     -19.642  -2.784  11.447  1.00  0.00    -0.337 N 
HETATM   26  C3  UNL     1     -20.155  -1.615  11.878  1.00  0.00     0.183 A 
ATOM     27  H3  UNL     1     -19.638  -2.978  10.445  1.00  0.00     0.168 HD
HETATM   28  N2  UNL     1     -20.202  -1.276  13.173  1.00  0.00    -0.337 N 
HETATM   29  C2  UNL     1     -19.705  -2.160  14.074  1.00  0.00     0.127 A 
ATOM     30  H2  UNL     1     -20.598  -0.385  13.471  1.00  0.00     0.168 HD
HETATM   31  C23 UNL     1     -19.176  -3.359  13.639  1.00  0.00     0.121 A 
HETATM   32 CL1  UNL     1     -18.553  -4.453  14.848  1.00  0.00    -0.076 Cl
BRANCH  29  33
HETATM   33  N1  UNL     1     -19.737  -1.855  15.317  1.00  0.00    -0.379 N 
HETATM   34  C1  UNL     1     -19.183  -0.604  15.795  1.00  0.00     0.147 C 
ATOM     35  H1  UNL     1     -20.159  -2.503  15.982  1.00  0.00     0.160 HD
ENDBRANCH  29  33
ENDBRANCH   1  24
TORSDOF 8
ENDMDL
MODEL 3
REMARK VINA RESULT: -7.798334176      3.930      9.252
REMARK  8 active torsions:
REMARK  status: ('A' for Active; 'I' for Inactive)
REMARK    1  A    between atoms: N1_2  and  C2_4 
REMARK    2  A    between atoms: C4_10  and  N4_11 
REMARK    3  A    between atoms: N5_14  and  C7_15 
REMARK    4  A    between atoms: C7_15  and  C8_16 
REMARK    5  A    between atoms: C7_15  and  C16_24 
REMARK    6  A    between atoms: C8_16  and  C9_17 
REMARK    7  A    between atoms: C9_17  and  C10_18 
REMARK    8  A    between atoms: C10_18  and  C11_19 
ROOT
HETATM    1  N4  UNL     1     -17.548  -7.956  12.153  1.00  0.00    -0.362 N 
HETATM    2  C5  UNL     1     -18.192  -6.763  11.678  1.00  0.00     0.154 C 
HETATM    3  C6  UNL     1     -19.657  -6.831  12.162  1.00  0.00     0.292 C 
HETATM    4  N5  UNL     1     -19.725  -6.580  13.571  1.00  0.00     0.096 N 
HETATM    5  C21 UNL     1     -18.542  -7.144  14.149  1.00  0.00     0.292 C 
HETATM    6  C22 UNL     1     -18.134  -8.442  13.405  1.00  0.00     0.154 C 
ENDROOT
BRANCH   4   7
HETATM    7  C7  UNL     1     -20.058  -5.264  13.937  1.00  0.00     0.228 C 
BRANCH   7   8
HETATM    8  C8  UNL     1     -20.177  -4.837  15.348  1.00  0.00     0.036 C 
BRANCH   8   9
HETATM    9  C9  UNL     1     -21.434  -5.253  16.058  1.00  0.00     0.002 C 
BRANCH   9  10
HETATM   10  C10 UNL     1     -22.229  -4.044  16.519  1.00  0.00     0.005 C 
BRANCH  10  11
HETATM   11  C11 UNL     1     -23.673  -4.296  16.276  1.00  0.00    -0.014 C 
HETATM   12  C12 UNL     1     -24.146  -5.623  16.882  1.00  0.00     0.004 C 
HETATM   13  C13 UNL     1     -25.607  -5.603  16.412  1.00  0.00     0.000 C 
HETATM   14  C14 UNL     1     -25.490  -5.126  14.990  1.00  0.00     0.000 C 
HETATM   15  C15 UNL     1     -24.078  -4.510  14.853  1.00  0.00     0.004 C 
ENDBRANCH  10  11
ENDBRANCH   9  10
ENDBRANCH   8   9
ENDBRANCH   7   8
BRANCH   7  16
HETATM   16  C16 UNL     1     -19.744  -4.177  12.940  1.00  0.00     0.037 C 
HETATM   17  C17 UNL     1     -18.883  -3.072  13.551  1.00  0.00     0.017 C 
HETATM   18  C18 UNL     1     -18.641  -1.988  12.534  1.00  0.00     0.103 C 
HETATM   19  C19 UNL     1     -19.735  -1.685  11.628  1.00  0.00     0.217 C 
HETATM   20  O1  UNL     1     -19.711  -0.604  10.977  1.00  0.00    -0.274 OA
HETATM   21  N6  UNL     1     -20.826  -2.584  11.466  1.00  0.00    -0.361 N 
HETATM   22  C20 UNL     1     -21.068  -3.466  12.573  1.00  0.00     0.129 C 
ATOM     23  H6  UNL     1     -21.397  -2.600  10.621  1.00  0.00     0.162 HD
ENDBRANCH   7  16
ENDBRANCH   4   7
BRANCH   1  24
HETATM   24  C4  UNL     1     -16.474  -8.661  11.586  1.00  0.00     0.130 A 
HETATM   25  N3  UNL     1     -15.333  -8.905  12.302  1.00  0.00    -0.337 N 
HETATM   26  C3  UNL     1     -14.289  -9.588  11.793  1.00  0.00     0.183 A 
ATOM     27  H3  UNL     1     -15.271  -8.555  13.259  1.00  0.00     0.168 HD
HETATM   28  N2  UNL     1     -14.281 -10.083  10.550  1.00  0.00    -0.337 N 
HETATM   29  C2  UNL     1     -15.381  -9.877   9.783  1.00  0.00     0.127 A 
ATOM     30  H2  UNL     1     -13.477 -10.598  10.191  1.00  0.00     0.168 HD
HETATM   31  C23 UNL     1     -16.455  -9.177  10.296  1.00  0.00     0.121 A 
HETATM   32 CL1  UNL     1     -17.839  -8.946   9.260  1.00  0.00    -0.076 Cl
BRANCH  29  33
HETATM   33  N1  UNL     1     -15.394 -10.339   8.589  1.00  0.00    -0.379 N 
HETATM   34  C1  UNL     1     -14.727  -9.640   7.508  1.00  0.00     0.147 C 
ATOM     35  H1  UNL     1     -15.882 -11.214   8.395  1.00  0.00     0.160 HD
ENDBRANCH  29  33
ENDBRANCH   1  24
TORSDOF 8
ENDMDL
MODEL 4
REMARK VINA RESULT: -7.676656330      3.899      9.591
REMARK  8 active torsions:
REMARK  status: ('A' for Active; 'I' for Inactive)
REMARK    1  A    between atoms: N1_2  and  C2_4 
REMARK    2  A    between atoms: C4_10  and  N4_11 
REMARK    3  A    between atoms: N5_14  and  C7_15 
REMARK    4  A    between atoms: C7_15  and  C8_16 
REMARK    5  A    between atoms: C7_15  and  C16_24 
REMARK    6  A    between atoms: C8_16  and  C9_17 
REMARK    7  A    between atoms: C9_17  and  C10_18 
REMARK    8  A    between atoms: C10_18  and  C11_19 
ROOT
HETATM    1  N4  UNL     1     -17.371  -7.611  11.852  1.00  0.00    -0.362 N 
HETATM    2  C5  UNL     1     -17.716  -6.268  11.476  1.00  0.00     0.154 C 
HETATM    3  C6  UNL     1     -19.212  -6.087  11.813  1.00  0.00     0.292 C 
HETATM    4  N5  UNL     1     -19.391  -5.979  13.230  1.00  0.00     0.096 N 
HETATM    5  C21 UNL     1     -18.413  -6.831  13.837  1.00  0.00     0.292 C 
HETATM    6  C22 UNL     1     -18.179  -8.098  12.974  1.00  0.00     0.154 C 
ENDROOT
BRANCH   4   7
HETATM    7  C7  UNL     1     -19.506  -4.670  13.729  1.00  0.00     0.228 C 
BRANCH   7   8
HETATM    8  C8  UNL     1     -18.604  -4.134  14.771  1.00  0.00     0.036 C 
BRANCH   8   9
HETATM    9  C9  UNL     1     -19.054  -4.324  16.192  1.00  0.00     0.002 C 
BRANCH   9  10
HETATM   10  C10 UNL     1     -20.049  -3.252  16.599  1.00  0.00     0.005 C 
BRANCH  10  11
HETATM   11  C11 UNL     1     -21.337  -3.902  16.956  1.00  0.00    -0.014 C 
HETATM   12  C12 UNL     1     -22.085  -3.151  18.066  1.00  0.00     0.004 C 
HETATM   13  C13 UNL     1     -23.291  -4.087  18.228  1.00  0.00     0.000 C 
HETATM   14  C14 UNL     1     -22.660  -5.451  18.178  1.00  0.00     0.000 C 
HETATM   15  C15 UNL     1     -21.245  -5.255  17.584  1.00  0.00     0.004 C 
ENDBRANCH  10  11
ENDBRANCH   9  10
ENDBRANCH   8   9
ENDBRANCH   7   8
BRANCH   7  16
HETATM   16  C16 UNL     1     -20.157  -3.650  12.829  1.00  0.00     0.037 C 
HETATM   17  C17 UNL     1     -19.671  -2.231  13.125  1.00  0.00     0.017 C 
HETATM   18  C18 UNL     1     -20.387  -1.247  12.237  1.00  0.00     0.103 C 
HETATM   19  C19 UNL     1     -21.782  -1.527  11.944  1.00  0.00     0.217 C 
HETATM   20  O1  UNL     1     -22.507  -0.604  11.478  1.00  0.00    -0.274 OA
HETATM   21  N6  UNL     1     -22.338  -2.816  12.173  1.00  0.00    -0.361 N 
HETATM   22  C20 UNL     1     -21.667  -3.610  13.163  1.00  0.00     0.129 C 
ATOM     23  H6  UNL     1     -23.157  -3.153  11.667  1.00  0.00     0.162 HD
ENDBRANCH   7  16
ENDBRANCH   4   7
BRANCH   1  24
HETATM   24  C4  UNL     1     -16.395  -8.456  11.301  1.00  0.00     0.130 A 
HETATM   25  N3  UNL     1     -15.330  -8.886  12.046  1.00  0.00    -0.337 N 
HETATM   26  C3  UNL     1     -14.382  -9.706  11.552  1.00  0.00     0.183 A 
ATOM     27  H3  UNL     1     -15.252  -8.574  13.014  1.00  0.00     0.168 HD
HETATM   28  N2  UNL     1     -14.403 -10.167  10.295  1.00  0.00    -0.337 N 
HETATM   29  C2  UNL     1     -15.431  -9.779   9.499  1.00  0.00     0.127 A 
ATOM     30  H2  UNL     1     -13.672 -10.788   9.949  1.00  0.00     0.168 HD
HETATM   31  C23 UNL     1     -16.405  -8.938   9.998  1.00  0.00     0.121 A 
HETATM   32 CL1  UNL     1     -17.701  -8.476   8.924  1.00  0.00    -0.076 Cl
BRANCH  29  33
HETATM   33  N1  UNL     1     -15.469 -10.205   8.292  1.00  0.00    -0.379 N 
HETATM   34  C1  UNL     1     -14.666  -9.588   7.255  1.00  0.00     0.147 C 
ATOM     35  H1  UNL     1     -16.074 -10.992   8.057  1.00  0.00     0.160 HD
ENDBRANCH  29  33
ENDBRANCH   1  24
TORSDOF 8
ENDMDL
MODEL 5
REMARK VINA RESULT: -7.656951540      4.485      9.880
REMARK  8 active torsions:
REMARK  status: ('A' for Active; 'I' for Inactive)
REMARK    1  A    between atoms: N1_2  and  C2_4 
REMARK    2  A    between atoms: C4_10  and  N4_11 
REMARK    3  A    between atoms: N5_14  and  C7_15 
REMARK    4  A    between atoms: C7_15  and  C8_16 
REMARK    5  A    between atoms: C7_15  and  C16_24 
REMARK    6  A    between atoms: C8_16  and  C9_17 
REMARK    7  A    between atoms: C9_17  and  C10_18 
REMARK    8  A    between atoms: C10_18  and  C11_19 
ROOT
HETATM    1  N4  UNL     1     -17.547  -7.757  12.259  1.00  0.00    -0.362 N 
HETATM    2  C5  UNL     1     -18.034  -6.470  11.841  1.00  0.00     0.154 C 
HETATM    3  C6  UNL     1     -19.524  -6.414  12.238  1.00  0.00     0.292 C 
HETATM    4  N5  UNL     1     -19.655  -6.256  13.656  1.00  0.00     0.096 N 
HETATM    5  C21 UNL     1     -18.575  -6.985  14.254  1.00  0.00     0.292 C 
HETATM    6  C22 UNL     1     -18.259  -8.263  13.436  1.00  0.00     0.154 C 
ENDROOT
BRANCH   4   7
HETATM    7  C7  UNL     1     -19.871  -4.941  14.103  1.00  0.00     0.228 C 
BRANCH   7   8
HETATM    8  C8  UNL     1     -21.215  -4.325  14.141  1.00  0.00     0.036 C 
BRANCH   8   9
HETATM    9  C9  UNL     1     -22.330  -5.208  14.625  1.00  0.00     0.002 C 
BRANCH   9  10
HETATM   10  C10 UNL     1     -23.452  -4.386  15.238  1.00  0.00     0.005 C 
BRANCH  10  11
HETATM   11  C11 UNL     1     -23.536  -4.694  16.689  1.00  0.00    -0.014 C 
HETATM   12  C12 UNL     1     -22.823  -3.646  17.553  1.00  0.00     0.004 C 
HETATM   13  C13 UNL     1     -23.039  -4.277  18.936  1.00  0.00     0.000 C 
HETATM   14  C14 UNL     1     -22.764  -5.733  18.681  1.00  0.00     0.000 C 
HETATM   15  C15 UNL     1     -22.823  -5.926  17.148  1.00  0.00     0.004 C 
ENDBRANCH  10  11
ENDBRANCH   9  10
ENDBRANCH   8   9
ENDBRANCH   7   8
BRANCH   7  16
HETATM   16  C16 UNL     1     -18.852  -4.367  15.055  1.00  0.00     0.037 C 
HETATM   17  C17 UNL     1     -19.447  -4.100  16.438  1.00  0.00     0.017 C 
HETATM   18  C18 UNL     1     -18.406  -3.481  17.334  1.00  0.00     0.103 C 
HETATM   19  C19 UNL     1     -17.479  -2.551  16.713  1.00  0.00     0.217 C 
HETATM   20  O1  UNL     1     -16.802  -1.778  17.447  1.00  0.00    -0.274 OA
HETATM   21  N6  UNL     1     -17.326  -2.498  15.300  1.00  0.00    -0.361 N 
HETATM   22  C20 UNL     1     -18.451  -2.965  14.539  1.00  0.00     0.129 C 
ATOM     23  H6  UNL     1     -16.474  -2.153  14.857  1.00  0.00     0.162 HD
ENDBRANCH   7  16
ENDBRANCH   4   7
BRANCH   1  24
HETATM   24  C4  UNL     1     -16.520  -8.532  11.699  1.00  0.00     0.130 A 
HETATM   25  N3  UNL     1     -15.404  -8.854  12.424  1.00  0.00    -0.337 N 
HETATM   26  C3  UNL     1     -14.404  -9.606  11.923  1.00  0.00     0.183 A 
ATOM     27  H3  UNL     1     -15.326  -8.511  13.382  1.00  0.00     0.168 HD
HETATM   28  N2  UNL     1     -14.419 -10.099  10.678  1.00  0.00    -0.337 N 
HETATM   29  C2  UNL     1     -15.497  -9.817   9.902  1.00  0.00     0.127 A 
ATOM     30  H2  UNL     1     -13.649 -10.666  10.325  1.00  0.00     0.168 HD
HETATM   31  C23 UNL     1     -16.524  -9.046  10.408  1.00  0.00     0.121 A 
HETATM   32 CL1  UNL     1     -17.881  -8.721   9.361  1.00  0.00    -0.076 Cl
BRANCH  29  33
HETATM   33  N1  UNL     1     -15.531 -10.276   8.708  1.00  0.00    -0.379 N 
HETATM   34  C1  UNL     1     -14.892  -9.568   7.616  1.00  0.00     0.147 C 
ATOM     35  H1  UNL     1     -16.016 -11.154   8.521  1.00  0.00     0.160 HD
ENDBRANCH  29  33
ENDBRANCH   1  24
TORSDOF 8
ENDMDL
