MODEL 1
REMARK VINA RESULT: -6.255038562      0.000      0.000
REMARK  17 active torsions:
REMARK  status: ('A' for Active; 'I' for Inactive)
REMARK    1  A    between atoms: C2_2  and  C3_3 
REMARK    2  A    between atoms: C3_3  and  S1_4 
REMARK    3  A    between atoms: S1_4  and  C4_5 
REMARK    4  A    between atoms: C4_5  and  C5_6 
REMARK    5  A    between atoms: C5_6  and  C6_7 
REMARK       I    between atoms: C6_7  and  N1_9 
REMARK    6  A    between atoms: N1_9  and  C7_11 
REMARK    7  A    between atoms: C12_17  and  O3_18 
REMARK    8  A    between atoms: C12_17  and  C13_20 
REMARK    9  A    between atoms: C13_20  and  O4_21 
REMARK   10  A    between atoms: C13_20  and  C14_23 
REMARK   11  A    between atoms: C14_23  and  C16_25 
REMARK   12  A    between atoms: C16_25  and  C17_27 
REMARK   13  A    between atoms: C20_30  and  O6_32 
REMARK   14  A    between atoms: O6_32  and  C22_33 
REMARK   15  A    between atoms: C26_38  and  N2_39 
REMARK   16  A    between atoms: C28_43  and  O8_44 
REMARK   17  A    between atoms: C29_46  and  O9_47 
ROOT
HETATM    1  C7  UNL     1      25.197   9.062  22.041  1.00  0.00     0.122 C 
HETATM    2  C8  UNL     1      24.039   8.172  21.771  1.00  0.00     0.037 C 
HETATM    3  C9  UNL     1      22.876   8.839  22.548  1.00  0.00     0.015 C 
HETATM    4  C10 UNL     1      24.296   6.791  22.274  1.00  0.00     0.127 C 
HETATM    5  C11 UNL     1      22.951   6.405  22.962  1.00  0.00     0.040 C 
HETATM    6  O2  UNL     1      24.530   5.920  21.297  1.00  0.00    -0.344 OA
HETATM    7  C12 UNL     1      25.815   5.549  20.914  1.00  0.00     0.231 C 
HETATM    8  C20 UNL     1      26.410   6.462  19.878  1.00  0.00     0.167 C 
HETATM    9  C21 UNL     1      25.214   6.414  18.804  1.00  0.00     0.060 C 
HETATM   10  C29 UNL     1      26.457   7.918  20.152  1.00  0.00     0.087 C 
HETATM   11  C30 UNL     1      26.506   8.651  21.386  1.00  0.00    -0.029 C 
HETATM   12  C31 UNL     1      27.594   8.485  22.391  1.00  0.00     0.048 C 
ENDROOT
BRANCH   8  13
HETATM   13  O6  UNL     1      27.330   5.937  19.162  1.00  0.00    -0.335 OA
BRANCH  13  14
HETATM   14  C22 UNL     1      28.208   5.433  18.478  1.00  0.00     0.292 C 
HETATM   15  O7  UNL     1      28.159   3.990  18.273  1.00  0.00    -0.354 OA
HETATM   16  C23 UNL     1      28.378   3.660  16.959  1.00  0.00     0.122 C 
HETATM   17  C24 UNL     1      27.232   4.095  16.048  1.00  0.00     0.040 C 
HETATM   18  C25 UNL     1      29.598   4.457  16.469  1.00  0.00     0.067 C 
HETATM   19  C26 UNL     1      30.414   4.788  17.668  1.00  0.00     0.221 C 
HETATM   20  C28 UNL     1      29.699   5.616  18.717  1.00  0.00     0.204 C 
BRANCH  19  21
HETATM   21  N2  UNL     1      31.711   5.344  17.344  1.00  0.00    -0.072 N 
HETATM   22  C27 UNL     1      32.761   4.386  17.626  1.00  0.00     0.267 C 
ATOM     23  H22 UNL     1      31.750   5.677  16.380  1.00  0.00     0.277 HD
ATOM     24  H21 UNL     1      31.871   6.233  17.819  1.00  0.00     0.277 HD
ENDBRANCH  19  21
BRANCH  20  25
HETATM   25  O8  UNL     1      30.160   5.126  19.918  1.00  0.00    -0.389 OA
ATOM     26  H8  UNL     1      31.102   5.159  20.030  1.00  0.00     0.210 HD
ENDBRANCH  20  25
ENDBRANCH  13  14
ENDBRANCH   8  13
BRANCH   7  27
HETATM   27  O3  UNL     1      25.502   4.359  20.135  1.00  0.00    -0.360 OA
ATOM     28  H3  UNL     1      25.478   3.715  20.834  1.00  0.00     0.213 HD
ENDBRANCH   7  27
BRANCH   7  29
HETATM   29  C13 UNL     1      26.639   4.888  21.938  1.00  0.00     0.216 C 
BRANCH  29  30
HETATM   30  O4  UNL     1      27.713   4.140  21.432  1.00  0.00    -0.385 OA
ATOM     31  H4  UNL     1      28.572   4.483  21.649  1.00  0.00     0.210 HD
ENDBRANCH  29  30
BRANCH  29  32
HETATM   32  C14 UNL     1      26.006   3.874  22.863  1.00  0.00    -0.004 C 
HETATM   33  C15 UNL     1      25.946   2.474  22.439  1.00  0.00     0.050 C 
BRANCH  32  34
HETATM   34  C16 UNL     1      26.186   4.101  24.308  1.00  0.00     0.157 C 
HETATM   35  O5  UNL     1      26.845   3.334  24.948  1.00  0.00    -0.293 OA
BRANCH  34  36
HETATM   36  C17 UNL     1      25.594   5.243  25.046  1.00  0.00     0.052 C 
HETATM   37  C18 UNL     1      25.056   4.802  26.411  1.00  0.00     0.018 C 
HETATM   38  C19 UNL     1      26.475   6.453  25.135  1.00  0.00     0.018 C 
ENDBRANCH  34  36
ENDBRANCH  32  34
ENDBRANCH  29  32
ENDBRANCH   7  29
BRANCH  10  39
HETATM   39  O9  UNL     1      25.569   8.682  19.345  1.00  0.00    -0.361 OA
ATOM     40  H9  UNL     1      25.179   9.419  19.798  1.00  0.00     0.217 HD
ENDBRANCH  10  39
BRANCH   1  41
HETATM   41  N1  UNL     1      24.789  10.393  21.678  1.00  0.00    -0.352 N 
HETATM   42  C6  UNL     1      25.088  11.627  22.249  1.00  0.00     0.218 C 
HETATM   43  O1  UNL     1      25.834  11.668  23.267  1.00  0.00    -0.274 OA
ATOM     44  H1  UNL     1      24.176  10.441  20.864  1.00  0.00     0.163 HD
BRANCH  42  45
HETATM   45  C5  UNL     1      24.580  12.918  21.739  1.00  0.00     0.113 C 
BRANCH  45  46
HETATM   46  C4  UNL     1      24.569  13.929  22.836  1.00  0.00     0.083 C 
BRANCH  46  47
HETATM   47  S1  UNL     1      23.401  15.276  22.509  1.00  0.00    -0.165 SA
BRANCH  47  48
HETATM   48  C3  UNL     1      24.287  16.509  21.472  1.00  0.00     0.100 C 
BRANCH  48  49
HETATM   49  C2  UNL     1      25.750  16.311  21.649  1.00  0.00    -0.027 C 
HETATM   50  C1  UNL     1      26.585  17.274  21.981  1.00  0.00     0.007 C 
ENDBRANCH  48  49
ENDBRANCH  47  48
ENDBRANCH  46  47
ENDBRANCH  45  46
ENDBRANCH  42  45
ENDBRANCH   1  41
TORSDOF 17
ENDMDL
MODEL 2
REMARK VINA RESULT: -6.217866092      1.099      1.363
REMARK  17 active torsions:
REMARK  status: ('A' for Active; 'I' for Inactive)
REMARK    1  A    between atoms: C2_2  and  C3_3 
REMARK    2  A    between atoms: C3_3  and  S1_4 
REMARK    3  A    between atoms: S1_4  and  C4_5 
REMARK    4  A    between atoms: C4_5  and  C5_6 
REMARK    5  A    between atoms: C5_6  and  C6_7 
REMARK       I    between atoms: C6_7  and  N1_9 
REMARK    6  A    between atoms: N1_9  and  C7_11 
REMARK    7  A    between atoms: C12_17  and  O3_18 
REMARK    8  A    between atoms: C12_17  and  C13_20 
REMARK    9  A    between atoms: C13_20  and  O4_21 
REMARK   10  A    between atoms: C13_20  and  C14_23 
REMARK   11  A    between atoms: C14_23  and  C16_25 
REMARK   12  A    between atoms: C16_25  and  C17_27 
REMARK   13  A    between atoms: C20_30  and  O6_32 
REMARK   14  A    between atoms: O6_32  and  C22_33 
REMARK   15  A    between atoms: C26_38  and  N2_39 
REMARK   16  A    between atoms: C28_43  and  O8_44 
REMARK   17  A    between atoms: C29_46  and  O9_47 
ROOT
HETATM    1  C7  UNL     1      25.457   9.454  22.136  1.00  0.00     0.122 C 
HETATM    2  C8  UNL     1      24.278   8.558  22.033  1.00  0.00     0.037 C 
HETATM    3  C9  UNL     1      23.155   9.346  22.755  1.00  0.00     0.015 C 
HETATM    4  C10 UNL     1      24.535   7.253  22.710  1.00  0.00     0.127 C 
HETATM    5  C11 UNL     1      23.213   6.990  23.494  1.00  0.00     0.040 C 
HETATM    6  O2  UNL     1      24.718   6.254  21.852  1.00  0.00    -0.344 OA
HETATM    7  C12 UNL     1      25.982   5.809  21.476  1.00  0.00     0.231 C 
HETATM    8  C20 UNL     1      26.549   6.562  20.304  1.00  0.00     0.167 C 
HETATM    9  C21 UNL     1      25.311   6.392  19.292  1.00  0.00     0.060 C 
HETATM   10  C29 UNL     1      26.627   8.041  20.375  1.00  0.00     0.087 C 
HETATM   11  C30 UNL     1      26.734   8.933  21.495  1.00  0.00    -0.029 C 
HETATM   12  C31 UNL     1      27.858   8.884  22.473  1.00  0.00     0.048 C 
ENDROOT
BRANCH   8  13
HETATM   13  O6  UNL     1      27.432   5.928  19.633  1.00  0.00    -0.335 OA
BRANCH  13  14
HETATM   14  C22 UNL     1      28.276   5.321  18.990  1.00  0.00     0.292 C 
HETATM   15  O7  UNL     1      28.103   3.880  18.841  1.00  0.00    -0.354 OA
HETATM   16  C23 UNL     1      28.318   3.478  17.547  1.00  0.00     0.122 C 
HETATM   17  C24 UNL     1      27.233   3.973  16.593  1.00  0.00     0.040 C 
HETATM   18  C25 UNL     1      29.613   4.144  17.055  1.00  0.00     0.067 C 
HETATM   19  C26 UNL     1      30.432   4.452  18.258  1.00  0.00     0.221 C 
HETATM   20  C28 UNL     1      29.772   5.383  19.256  1.00  0.00     0.204 C 
BRANCH  19  21
HETATM   21  N2  UNL     1      31.778   4.879  17.942  1.00  0.00    -0.072 N 
HETATM   22  C27 UNL     1      31.774   5.777  16.804  1.00  0.00     0.267 C 
ATOM     23  H22 UNL     1      32.244   5.293  18.750  1.00  0.00     0.277 HD
ATOM     24  H21 UNL     1      32.403   4.086  17.796  1.00  0.00     0.277 HD
ENDBRANCH  19  21
BRANCH  20  25
HETATM   25  O8  UNL     1      30.164   4.904  20.486  1.00  0.00    -0.389 OA
ATOM     26  H8  UNL     1      29.649   4.178  20.815  1.00  0.00     0.210 HD
ENDBRANCH  20  25
ENDBRANCH  13  14
ENDBRANCH   8  13
BRANCH   7  27
HETATM   27  O3  UNL     1      25.622   4.531  20.879  1.00  0.00    -0.360 OA
ATOM     28  H3  UNL     1      26.268   4.495  20.182  1.00  0.00     0.213 HD
ENDBRANCH   7  27
BRANCH   7  29
HETATM   29  C13 UNL     1      26.837   5.279  22.549  1.00  0.00     0.216 C 
BRANCH  29  30
HETATM   30  O4  UNL     1      27.684   4.230  22.158  1.00  0.00    -0.385 OA
ATOM     31  H4  UNL     1      28.207   3.861  22.860  1.00  0.00     0.210 HD
ENDBRANCH  29  30
BRANCH  29  32
HETATM   32  C14 UNL     1      26.198   4.674  23.779  1.00  0.00    -0.004 C 
HETATM   33  C15 UNL     1      26.282   3.226  23.977  1.00  0.00     0.050 C 
BRANCH  32  34
HETATM   34  C16 UNL     1      26.227   5.494  25.004  1.00  0.00     0.157 C 
HETATM   35  O5  UNL     1      26.603   6.628  24.944  1.00  0.00    -0.293 OA
BRANCH  34  36
HETATM   36  C17 UNL     1      25.810   5.002  26.339  1.00  0.00     0.052 C 
HETATM   37  C18 UNL     1      26.828   5.390  27.415  1.00  0.00     0.018 C 
HETATM   38  C19 UNL     1      24.402   5.352  26.721  1.00  0.00     0.018 C 
ENDBRANCH  34  36
ENDBRANCH  32  34
ENDBRANCH  29  32
ENDBRANCH   7  29
BRANCH  10  39
HETATM   39  O9  UNL     1      25.718   8.705  19.505  1.00  0.00    -0.361 OA
ATOM     40  H9  UNL     1      24.806   8.503  19.678  1.00  0.00     0.217 HD
ENDBRANCH  10  39
BRANCH   1  41
HETATM   41  N1  UNL     1      25.054  10.731  21.611  1.00  0.00    -0.352 N 
HETATM   42  C6  UNL     1      25.057  11.998  22.189  1.00  0.00     0.218 C 
HETATM   43  O1  UNL     1      25.464  12.130  23.377  1.00  0.00    -0.274 OA
ATOM     44  H1  UNL     1      24.706  10.705  20.653  1.00  0.00     0.163 HD
BRANCH  42  45
HETATM   45  C5  UNL     1      24.605  13.223  21.495  1.00  0.00     0.113 C 
BRANCH  45  46
HETATM   46  C4  UNL     1      24.543  14.359  22.461  1.00  0.00     0.083 C 
BRANCH  46  47
HETATM   47  S1  UNL     1      22.844  14.708  22.991  1.00  0.00    -0.165 SA
BRANCH  47  48
HETATM   48  C3  UNL     1      22.472  16.435  22.481  1.00  0.00     0.100 C 
BRANCH  48  49
HETATM   49  C2  UNL     1      23.049  16.664  21.130  1.00  0.00    -0.027 C 
HETATM   50  C1  UNL     1      22.409  17.274  20.154  1.00  0.00     0.007 C 
ENDBRANCH  48  49
ENDBRANCH  47  48
ENDBRANCH  46  47
ENDBRANCH  45  46
ENDBRANCH  42  45
ENDBRANCH   1  41
TORSDOF 17
ENDMDL
MODEL 3
REMARK VINA RESULT: -6.162849559      1.446      2.317
REMARK  17 active torsions:
REMARK  status: ('A' for Active; 'I' for Inactive)
REMARK    1  A    between atoms: C2_2  and  C3_3 
REMARK    2  A    between atoms: C3_3  and  S1_4 
REMARK    3  A    between atoms: S1_4  and  C4_5 
REMARK    4  A    between atoms: C4_5  and  C5_6 
REMARK    5  A    between atoms: C5_6  and  C6_7 
REMARK       I    between atoms: C6_7  and  N1_9 
REMARK    6  A    between atoms: N1_9  and  C7_11 
REMARK    7  A    between atoms: C12_17  and  O3_18 
REMARK    8  A    between atoms: C12_17  and  C13_20 
REMARK    9  A    between atoms: C13_20  and  O4_21 
REMARK   10  A    between atoms: C13_20  and  C14_23 
REMARK   11  A    between atoms: C14_23  and  C16_25 
REMARK   12  A    between atoms: C16_25  and  C17_27 
REMARK   13  A    between atoms: C20_30  and  O6_32 
REMARK   14  A    between atoms: O6_32  and  C22_33 
REMARK   15  A    between atoms: C26_38  and  N2_39 
REMARK   16  A    between atoms: C28_43  and  O8_44 
REMARK   17  A    between atoms: C29_46  and  O9_47 
ROOT
HETATM    1  C7  UNL     1      25.455   9.601  22.130  1.00  0.00     0.122 C 
HETATM    2  C8  UNL     1      24.271   8.711  22.029  1.00  0.00     0.037 C 
HETATM    3  C9  UNL     1      23.158   9.497  22.769  1.00  0.00     0.015 C 
HETATM    4  C10 UNL     1      24.529   7.398  22.691  1.00  0.00     0.127 C 
HETATM    5  C11 UNL     1      23.213   7.133  23.485  1.00  0.00     0.040 C 
HETATM    6  O2  UNL     1      24.700   6.407  21.822  1.00  0.00    -0.344 OA
HETATM    7  C12 UNL     1      25.958   5.961  21.430  1.00  0.00     0.231 C 
HETATM    8  C20 UNL     1      26.517   6.722  20.260  1.00  0.00     0.167 C 
HETATM    9  C21 UNL     1      25.269   6.567  19.258  1.00  0.00     0.060 C 
HETATM   10  C29 UNL     1      26.602   8.200  20.344  1.00  0.00     0.087 C 
HETATM   11  C30 UNL     1      26.723   9.081  21.472  1.00  0.00    -0.029 C 
HETATM   12  C31 UNL     1      27.856   9.018  22.438  1.00  0.00     0.048 C 
ENDROOT
BRANCH   8  13
HETATM   13  O6  UNL     1      27.391   6.090  19.574  1.00  0.00    -0.335 OA
BRANCH  13  14
HETATM   14  C22 UNL     1      28.227   5.487  18.919  1.00  0.00     0.292 C 
HETATM   15  O7  UNL     1      27.998   4.067  18.677  1.00  0.00    -0.354 OA
HETATM   16  C23 UNL     1      28.235   3.734  17.366  1.00  0.00     0.122 C 
HETATM   17  C24 UNL     1      27.200   4.333  16.415  1.00  0.00     0.040 C 
HETATM   18  C25 UNL     1      29.570   4.372  16.951  1.00  0.00     0.067 C 
HETATM   19  C26 UNL     1      30.365   4.570  18.193  1.00  0.00     0.221 C 
HETATM   20  C28 UNL     1      29.717   5.467  19.228  1.00  0.00     0.204 C 
BRANCH  19  21
HETATM   21  N2  UNL     1      31.738   4.955  17.941  1.00  0.00    -0.072 N 
HETATM   22  C27 UNL     1      31.814   5.854  16.807  1.00  0.00     0.267 C 
ATOM     23  H22 UNL     1      32.178   5.353  18.771  1.00  0.00     0.277 HD
ATOM     24  H21 UNL     1      32.343   4.143  17.822  1.00  0.00     0.277 HD
ENDBRANCH  19  21
BRANCH  20  25
HETATM   25  O8  UNL     1      30.050   4.898  20.437  1.00  0.00    -0.389 OA
ATOM     26  H8  UNL     1      30.346   5.510  21.100  1.00  0.00     0.210 HD
ENDBRANCH  20  25
ENDBRANCH  13  14
ENDBRANCH   8  13
BRANCH   7  27
HETATM   27  O3  UNL     1      25.587   4.690  20.824  1.00  0.00    -0.360 OA
ATOM     28  H3  UNL     1      25.431   4.980  19.933  1.00  0.00     0.213 HD
ENDBRANCH   7  27
BRANCH   7  29
HETATM   29  C13 UNL     1      26.820   5.416  22.490  1.00  0.00     0.216 C 
BRANCH  29  30
HETATM   30  O4  UNL     1      27.687   4.394  22.072  1.00  0.00    -0.385 OA
ATOM     31  H4  UNL     1      28.161   3.966  22.775  1.00  0.00     0.210 HD
ENDBRANCH  29  30
BRANCH  29  32
HETATM   32  C14 UNL     1      26.191   4.766  23.701  1.00  0.00    -0.004 C 
HETATM   33  C15 UNL     1      26.285   3.313  23.851  1.00  0.00     0.050 C 
BRANCH  32  34
HETATM   34  C16 UNL     1      26.218   5.545  24.952  1.00  0.00     0.157 C 
HETATM   35  O5  UNL     1      26.569   6.689  24.926  1.00  0.00    -0.293 OA
BRANCH  34  36
HETATM   36  C17 UNL     1      25.829   5.001  26.275  1.00  0.00     0.052 C 
HETATM   37  C18 UNL     1      26.822   5.422  27.362  1.00  0.00     0.018 C 
HETATM   38  C19 UNL     1      24.403   5.260  26.663  1.00  0.00     0.018 C 
ENDBRANCH  34  36
ENDBRANCH  32  34
ENDBRANCH  29  32
ENDBRANCH   7  29
BRANCH  10  39
HETATM   39  O9  UNL     1      25.688   8.876  19.489  1.00  0.00    -0.361 OA
ATOM     40  H9  UNL     1      24.819   8.492  19.478  1.00  0.00     0.217 HD
ENDBRANCH  10  39
BRANCH   1  41
HETATM   41  N1  UNL     1      25.052  10.885  21.621  1.00  0.00    -0.352 N 
HETATM   42  C6  UNL     1      25.013  12.136  22.229  1.00  0.00     0.218 C 
HETATM   43  O1  UNL     1      25.370  12.244  23.436  1.00  0.00    -0.274 OA
ATOM     44  H1  UNL     1      24.742  10.877  20.649  1.00  0.00     0.163 HD
BRANCH  42  45
HETATM   45  C5  UNL     1      24.569  13.372  21.549  1.00  0.00     0.113 C 
BRANCH  45  46
HETATM   46  C4  UNL     1      23.462  14.008  22.321  1.00  0.00     0.083 C 
BRANCH  46  47
HETATM   47  S1  UNL     1      21.903  13.097  22.151  1.00  0.00    -0.165 SA
BRANCH  47  48
HETATM   48  C3  UNL     1      21.248  12.843  23.850  1.00  0.00     0.100 C 
BRANCH  48  49
HETATM   49  C2  UNL     1      20.250  11.741  23.811  1.00  0.00    -0.027 C 
HETATM   50  C1  UNL     1      20.043  10.906  24.808  1.00  0.00     0.007 C 
ENDBRANCH  48  49
ENDBRANCH  47  48
ENDBRANCH  46  47
ENDBRANCH  45  46
ENDBRANCH  42  45
ENDBRANCH   1  41
TORSDOF 17
ENDMDL
MODEL 4
REMARK VINA RESULT: -6.064837647      1.616      2.615
REMARK  17 active torsions:
REMARK  status: ('A' for Active; 'I' for Inactive)
REMARK    1  A    between atoms: C2_2  and  C3_3 
REMARK    2  A    between atoms: C3_3  and  S1_4 
REMARK    3  A    between atoms: S1_4  and  C4_5 
REMARK    4  A    between atoms: C4_5  and  C5_6 
REMARK    5  A    between atoms: C5_6  and  C6_7 
REMARK       I    between atoms: C6_7  and  N1_9 
REMARK    6  A    between atoms: N1_9  and  C7_11 
REMARK    7  A    between atoms: C12_17  and  O3_18 
REMARK    8  A    between atoms: C12_17  and  C13_20 
REMARK    9  A    between atoms: C13_20  and  O4_21 
REMARK   10  A    between atoms: C13_20  and  C14_23 
REMARK   11  A    between atoms: C14_23  and  C16_25 
REMARK   12  A    between atoms: C16_25  and  C17_27 
REMARK   13  A    between atoms: C20_30  and  O6_32 
REMARK   14  A    between atoms: O6_32  and  C22_33 
REMARK   15  A    between atoms: C26_38  and  N2_39 
REMARK   16  A    between atoms: C28_43  and  O8_44 
REMARK   17  A    between atoms: C29_46  and  O9_47 
ROOT
HETATM    1  C7  UNL     1      25.471   9.221  22.195  1.00  0.00     0.122 C 
HETATM    2  C8  UNL     1      24.412   8.181  22.150  1.00  0.00     0.037 C 
HETATM    3  C9  UNL     1      23.299   8.753  23.066  1.00  0.00     0.015 C 
HETATM    4  C10 UNL     1      24.917   6.878  22.672  1.00  0.00     0.127 C 
HETATM    5  C11 UNL     1      23.749   6.379  23.577  1.00  0.00     0.040 C 
HETATM    6  O2  UNL     1      25.115   5.979  21.712  1.00  0.00    -0.344 OA
HETATM    7  C12 UNL     1      26.367   5.741  21.153  1.00  0.00     0.231 C 
HETATM    8  C20 UNL     1      26.679   6.649  19.995  1.00  0.00     0.167 C 
HETATM    9  C21 UNL     1      25.354   6.386  19.123  1.00  0.00     0.060 C 
HETATM   10  C29 UNL     1      26.577   8.115  20.190  1.00  0.00     0.087 C 
HETATM   11  C30 UNL     1      26.712   8.929  21.365  1.00  0.00    -0.029 C 
HETATM   12  C31 UNL     1      27.948   8.962  22.197  1.00  0.00     0.048 C 
ENDROOT
BRANCH   8  13
HETATM   13  O6  UNL     1      27.543   6.192  19.172  1.00  0.00    -0.335 OA
BRANCH  13  14
HETATM   14  C22 UNL     1      28.369   5.757  18.384  1.00  0.00     0.292 C 
HETATM   15  O7  UNL     1      28.247   4.359  17.982  1.00  0.00    -0.354 OA
HETATM   16  C23 UNL     1      28.397   4.210  16.626  1.00  0.00     0.122 C 
HETATM   17  C24 UNL     1      27.234   4.811  15.840  1.00  0.00     0.040 C 
HETATM   18  C25 UNL     1      29.630   5.021  16.195  1.00  0.00     0.067 C 
HETATM   19  C26 UNL     1      30.509   5.148  17.389  1.00  0.00     0.221 C 
HETATM   20  C28 UNL     1      29.876   5.847  18.575  1.00  0.00     0.204 C 
BRANCH  19  21
HETATM   21  N2  UNL     1      31.814   5.695  17.084  1.00  0.00    -0.072 N 
HETATM   22  C27 UNL     1      32.817   4.648  17.084  1.00  0.00     0.267 C 
ATOM     23  H22 UNL     1      31.811   6.217  16.208  1.00  0.00     0.277 HD
ATOM     24  H21 UNL     1      32.062   6.457  17.715  1.00  0.00     0.277 HD
ENDBRANCH  19  21
BRANCH  20  25
HETATM   25  O8  UNL     1      30.363   5.175  19.673  1.00  0.00    -0.389 OA
ATOM     26  H8  UNL     1      31.309   5.164  19.748  1.00  0.00     0.210 HD
ENDBRANCH  20  25
ENDBRANCH  13  14
ENDBRANCH   8  13
BRANCH   7  27
HETATM   27  O3  UNL     1      26.099   4.473  20.489  1.00  0.00    -0.360 OA
ATOM     28  H3  UNL     1      26.356   4.701  19.603  1.00  0.00     0.213 HD
ENDBRANCH   7  27
BRANCH   7  29
HETATM   29  C13 UNL     1      27.411   5.255  22.067  1.00  0.00     0.216 C 
BRANCH  29  30
HETATM   30  O4  UNL     1      28.711   5.680  21.751  1.00  0.00    -0.385 OA
ATOM     31  H4  UNL     1      28.839   6.620  21.788  1.00  0.00     0.210 HD
ENDBRANCH  29  30
BRANCH  29  32
HETATM   32  C14 UNL     1      27.636   3.767  22.217  1.00  0.00    -0.004 C 
HETATM   33  C15 UNL     1      28.997   3.244  22.091  1.00  0.00     0.050 C 
BRANCH  32  34
HETATM   34  C16 UNL     1      26.762   3.064  23.174  1.00  0.00     0.157 C 
HETATM   35  O5  UNL     1      25.762   2.537  22.780  1.00  0.00    -0.293 OA
BRANCH  34  36
HETATM   36  C17 UNL     1      27.040   2.958  24.626  1.00  0.00     0.052 C 
HETATM   37  C18 UNL     1      26.223   3.981  25.423  1.00  0.00     0.018 C 
HETATM   38  C19 UNL     1      26.930   1.570  25.183  1.00  0.00     0.018 C 
ENDBRANCH  34  36
ENDBRANCH  32  34
ENDBRANCH  29  32
ENDBRANCH   7  29
BRANCH  10  39
HETATM   39  O9  UNL     1      25.488   8.710  19.495  1.00  0.00    -0.361 OA
ATOM     40  H9  UNL     1      24.981   9.315  20.024  1.00  0.00     0.217 HD
ENDBRANCH  10  39
BRANCH   1  41
HETATM   41  N1  UNL     1      24.845  10.466  21.837  1.00  0.00    -0.352 N 
HETATM   42  C6  UNL     1      24.959  11.737  22.393  1.00  0.00     0.218 C 
HETATM   43  O1  UNL     1      25.716  11.907  23.389  1.00  0.00    -0.274 OA
ATOM     44  H1  UNL     1      24.210  10.407  21.041  1.00  0.00     0.163 HD
BRANCH  42  45
HETATM   45  C5  UNL     1      24.236  12.925  21.891  1.00  0.00     0.113 C 
BRANCH  45  46
HETATM   46  C4  UNL     1      23.106  13.257  22.807  1.00  0.00     0.083 C 
BRANCH  46  47
HETATM   47  S1  UNL     1      21.642  12.239  22.476  1.00  0.00    -0.165 SA
BRANCH  47  48
HETATM   48  C3  UNL     1      20.593  12.311  23.984  1.00  0.00     0.100 C 
BRANCH  48  49
HETATM   49  C2  UNL     1      20.438  10.931  24.518  1.00  0.00    -0.027 C 
HETATM   50  C1  UNL     1      19.437  10.552  25.285  1.00  0.00     0.007 C 
ENDBRANCH  48  49
ENDBRANCH  47  48
ENDBRANCH  46  47
ENDBRANCH  45  46
ENDBRANCH  42  45
ENDBRANCH   1  41
TORSDOF 17
ENDMDL
MODEL 5
REMARK VINA RESULT: -5.882696136      1.365      2.022
REMARK  17 active torsions:
REMARK  status: ('A' for Active; 'I' for Inactive)
REMARK    1  A    between atoms: C2_2  and  C3_3 
REMARK    2  A    between atoms: C3_3  and  S1_4 
REMARK    3  A    between atoms: S1_4  and  C4_5 
REMARK    4  A    between atoms: C4_5  and  C5_6 
REMARK    5  A    between atoms: C5_6  and  C6_7 
REMARK       I    between atoms: C6_7  and  N1_9 
REMARK    6  A    between atoms: N1_9  and  C7_11 
REMARK    7  A    between atoms: C12_17  and  O3_18 
REMARK    8  A    between atoms: C12_17  and  C13_20 
REMARK    9  A    between atoms: C13_20  and  O4_21 
REMARK   10  A    between atoms: C13_20  and  C14_23 
REMARK   11  A    between atoms: C14_23  and  C16_25 
REMARK   12  A    between atoms: C16_25  and  C17_27 
REMARK   13  A    between atoms: C20_30  and  O6_32 
REMARK   14  A    between atoms: O6_32  and  C22_33 
REMARK   15  A    between atoms: C26_38  and  N2_39 
REMARK   16  A    between atoms: C28_43  and  O8_44 
REMARK   17  A    between atoms: C29_46  and  O9_47 
ROOT
HETATM    1  C7  UNL     1      25.523   9.180  22.251  1.00  0.00     0.122 C 
HETATM    2  C8  UNL     1      24.506   8.097  22.259  1.00  0.00     0.037 C 
HETATM    3  C9  UNL     1      23.411   8.631  23.218  1.00  0.00     0.015 C 
HETATM    4  C10 UNL     1      25.086   6.820  22.767  1.00  0.00     0.127 C 
HETATM    5  C11 UNL     1      23.980   6.282  23.726  1.00  0.00     0.040 C 
HETATM    6  O2  UNL     1      25.279   5.922  21.806  1.00  0.00    -0.344 OA
HETATM    7  C12 UNL     1      26.514   5.731  21.194  1.00  0.00     0.231 C 
HETATM    8  C20 UNL     1      26.739   6.641  20.018  1.00  0.00     0.167 C 
HETATM    9  C21 UNL     1      25.389   6.316  19.206  1.00  0.00     0.060 C 
HETATM   10  C29 UNL     1      26.585   8.103  20.207  1.00  0.00     0.087 C 
HETATM   11  C30 UNL     1      26.737   8.931  21.370  1.00  0.00    -0.029 C 
HETATM   12  C31 UNL     1      28.006   9.022  22.147  1.00  0.00     0.048 C 
ENDROOT
BRANCH   8  13
HETATM   13  O6  UNL     1      27.584   6.213  19.160  1.00  0.00    -0.335 OA
BRANCH  13  14
HETATM   14  C22 UNL     1      28.391   5.803  18.340  1.00  0.00     0.292 C 
HETATM   15  O7  UNL     1      29.805   6.049  18.603  1.00  0.00    -0.354 OA
HETATM   16  C23 UNL     1      30.563   4.927  18.377  1.00  0.00     0.122 C 
HETATM   17  C24 UNL     1      30.293   3.824  19.398  1.00  0.00     0.040 C 
HETATM   18  C25 UNL     1      30.133   4.333  17.026  1.00  0.00     0.067 C 
HETATM   19  C26 UNL     1      29.548   5.442  16.225  1.00  0.00     0.221 C 
HETATM   20  C28 UNL     1      28.341   6.112  16.851  1.00  0.00     0.204 C 
BRANCH  19  21
HETATM   21  N2  UNL     1      29.302   5.084  14.844  1.00  0.00    -0.072 N 
HETATM   22  C27 UNL     1      28.114   4.261  14.736  1.00  0.00     0.267 C 
ATOM     23  H22 UNL     1      29.249   5.907  14.244  1.00  0.00     0.277 HD
ATOM     24  H21 UNL     1      30.113   4.637  14.418  1.00  0.00     0.277 HD
ENDBRANCH  19  21
BRANCH  20  25
HETATM   25  O8  UNL     1      28.480   7.443  16.530  1.00  0.00    -0.389 OA
ATOM     26  H8  UNL     1      27.672   7.885  16.296  1.00  0.00     0.210 HD
ENDBRANCH  20  25
ENDBRANCH  13  14
ENDBRANCH   8  13
BRANCH   7  27
HETATM   27  O3  UNL     1      26.270   4.447  20.551  1.00  0.00    -0.360 OA
ATOM     28  H3  UNL     1      27.131   4.290  20.181  1.00  0.00     0.213 HD
ENDBRANCH   7  27
BRANCH   7  29
HETATM   29  C13 UNL     1      27.617   5.295  22.065  1.00  0.00     0.216 C 
BRANCH  29  30
HETATM   30  O4  UNL     1      28.899   5.607  21.587  1.00  0.00    -0.385 OA
ATOM     31  H4  UNL     1      29.454   6.060  22.211  1.00  0.00     0.210 HD
ENDBRANCH  29  30
BRANCH  29  32
HETATM   32  C14 UNL     1      27.787   3.825  22.373  1.00  0.00    -0.004 C 
HETATM   33  C15 UNL     1      29.139   3.267  22.426  1.00  0.00     0.050 C 
BRANCH  32  34
HETATM   34  C16 UNL     1      26.808   3.231  23.301  1.00  0.00     0.157 C 
HETATM   35  O5  UNL     1      25.741   2.881  22.888  1.00  0.00    -0.293 OA
BRANCH  34  36
HETATM   36  C17 UNL     1      27.058   3.028  24.749  1.00  0.00     0.052 C 
HETATM   37  C18 UNL     1      26.224   3.993  25.596  1.00  0.00     0.018 C 
HETATM   38  C19 UNL     1      26.941   1.605  25.209  1.00  0.00     0.018 C 
ENDBRANCH  34  36
ENDBRANCH  32  34
ENDBRANCH  29  32
ENDBRANCH   7  29
BRANCH  10  39
HETATM   39  O9  UNL     1      25.444   8.647  19.556  1.00  0.00    -0.361 OA
ATOM     40  H9  UNL     1      24.627   8.478  20.010  1.00  0.00     0.217 HD
ENDBRANCH  10  39
BRANCH   1  41
HETATM   41  N1  UNL     1      24.831  10.395  21.913  1.00  0.00    -0.352 N 
HETATM   42  C6  UNL     1      24.954  11.686  22.418  1.00  0.00     0.218 C 
HETATM   43  O1  UNL     1      25.789  11.908  23.339  1.00  0.00    -0.274 OA
ATOM     44  H1  UNL     1      24.132  10.294  21.177  1.00  0.00     0.163 HD
BRANCH  42  45
HETATM   45  C5  UNL     1      24.155  12.838  21.947  1.00  0.00     0.113 C 
BRANCH  45  46
HETATM   46  C4  UNL     1      24.309  13.983  22.890  1.00  0.00     0.083 C 
BRANCH  46  47
HETATM   47  S1  UNL     1      23.188  15.351  22.488  1.00  0.00    -0.165 SA
BRANCH  47  48
HETATM   48  C3  UNL     1      24.161  16.567  21.512  1.00  0.00     0.100 C 
BRANCH  48  49
HETATM   49  C2  UNL     1      25.607  16.265  21.687  1.00  0.00    -0.027 C 
HETATM   50  C1  UNL     1      26.522  17.181  21.929  1.00  0.00     0.007 C 
ENDBRANCH  48  49
ENDBRANCH  47  48
ENDBRANCH  46  47
ENDBRANCH  45  46
ENDBRANCH  42  45
ENDBRANCH   1  41
TORSDOF 17
ENDMDL
