MODEL 1
REMARK VINA RESULT: -8.394795904      0.000      0.000
REMARK  19 active torsions:
REMARK  status: ('A' for Active; 'I' for Inactive)
REMARK    1  A    between atoms: C2_2  and  C4_4 
REMARK    2  A    between atoms: C4_4  and  O1_5 
REMARK    3  A    between atoms: C4_4  and  C5_7 
REMARK    4  A    between atoms: C6_8  and  C7_9 
REMARK    5  A    between atoms: C8_10  and  C9_11 
REMARK    6  A    between atoms: C10_12  and  C11_13 
REMARK    7  A    between atoms: C12_14  and  C13_15 
REMARK    8  A    between atoms: C12_14  and  C14_20 
REMARK    9  A    between atoms: C13_15  and  O2_16 
REMARK   10  A    between atoms: C13_15  and  O3_18 
REMARK   11  A    between atoms: C14_20  and  O4_21 
REMARK   12  A    between atoms: C14_20  and  C15_23 
REMARK   13  A    between atoms: C15_23  and  O5_25 
REMARK   14  A    between atoms: O5_25  and  C17_26 
REMARK   15  A    between atoms: C25_35  and  O7_36 
REMARK   16  A    between atoms: O7_36  and  C26_37 
REMARK   17  A    between atoms: C29_41  and  O9_42 
REMARK   18  A    between atoms: C30_44  and  O10_45 
REMARK   19  A    between atoms: C32_47  and  O11_48 
ROOT
HETATM    1  C17 UNL     1      23.633  11.920  22.981  1.00  0.00     0.154 C 
HETATM    2  C18 UNL     1      24.805  12.486  22.260  1.00  0.00     0.200 C 
HETATM    3  O6  UNL     1      25.054  13.816  22.407  1.00  0.00    -0.383 OA
HETATM    4  C19 UNL     1      24.265  14.778  21.932  1.00  0.00     0.128 C 
HETATM    5  C20 UNL     1      24.021  14.680  20.469  1.00  0.00     0.032 C 
HETATM    6  C21 UNL     1      23.199  15.791  19.875  1.00  0.00     0.002 C 
HETATM    7  C22 UNL     1      22.802  16.799  20.911  1.00  0.00     0.001 C 
HETATM    8  C23 UNL     1      22.327  16.269  22.203  1.00  0.00     0.010 C 
HETATM    9  C24 UNL     1      22.963  14.997  22.680  1.00  0.00     0.044 C 
HETATM   10  C25 UNL     1      22.133  13.797  22.700  1.00  0.00     0.133 C 
HETATM   11  C33 UNL     1      22.818  12.877  23.812  1.00  0.00     0.067 C 
ENDROOT
BRANCH   1  12
HETATM   12  O5  UNL     1      23.791  10.624  23.474  1.00  0.00    -0.346 OA
BRANCH  12  13
HETATM   13  C15 UNL     1      23.567   9.532  22.630  1.00  0.00     0.070 C 
HETATM   14  C16 UNL     1      22.363   9.079  22.497  1.00  0.00     0.049 C 
BRANCH  13  15
HETATM   15  C14 UNL     1      24.645   8.852  21.861  1.00  0.00     0.207 C 
BRANCH  15  16
HETATM   16  C12 UNL     1      25.745   8.272  22.593  1.00  0.00     0.009 C 
HETATM   17  C11 UNL     1      25.846   7.125  23.199  1.00  0.00     0.011 C 
BRANCH  17  18
HETATM   18  C10 UNL     1      24.730   6.236  23.402  1.00  0.00     0.009 C 
HETATM   19  C9  UNL     1      24.525   5.536  24.478  1.00  0.00     0.065 C 
BRANCH  19  20
HETATM   20  C8  UNL     1      25.393   5.562  25.657  1.00  0.00    -0.074 C 
HETATM   21  C7  UNL     1      26.034   5.590  26.583  1.00  0.00    -0.074 C 
BRANCH  21  22
HETATM   22  C6  UNL     1      26.866   5.624  27.775  1.00  0.00     0.063 C 
HETATM   23  C5  UNL     1      26.198   6.176  28.794  1.00  0.00     0.018 C 
BRANCH  23  24
HETATM   24  C4  UNL     1      26.546   6.428  30.139  1.00  0.00     0.169 C 
BRANCH  24  25
HETATM   25  C2  UNL     1      25.820   7.603  30.715  1.00  0.00    -0.061 C 
HETATM   26  C1  UNL     1      26.296   8.277  31.719  1.00  0.00     0.017 C 
HETATM   27  C3  UNL     1      24.473   8.028  30.167  1.00  0.00     0.045 C 
ENDBRANCH  24  25
BRANCH  24  28
HETATM   28  O1  UNL     1      27.950   6.725  30.270  1.00  0.00    -0.387 OA
ATOM     29  H1  UNL     1      28.182   6.504  31.165  1.00  0.00     0.210 HD
ENDBRANCH  24  28
ENDBRANCH  23  24
ENDBRANCH  21  22
ENDBRANCH  19  20
ENDBRANCH  17  18
BRANCH  16  30
HETATM   30  C13 UNL     1      27.048   9.066  22.512  1.00  0.00     0.287 C 
BRANCH  30  31
HETATM   31  O2  UNL     1      27.078   9.892  21.377  1.00  0.00    -0.367 OA
ATOM     32  H2  UNL     1      27.660   9.548  20.710  1.00  0.00     0.213 HD
ENDBRANCH  30  31
BRANCH  30  33
HETATM   33  O3  UNL     1      28.124   8.191  22.468  1.00  0.00    -0.367 OA
ATOM     34  H3  UNL     1      28.065   7.653  21.688  1.00  0.00     0.213 HD
ENDBRANCH  30  33
ENDBRANCH  16  30
ENDBRANCH  15  16
BRANCH  15  35
HETATM   35  O4  UNL     1      23.950   8.004  21.001  1.00  0.00    -0.384 OA
ATOM     36  H4  UNL     1      24.471   7.492  20.393  1.00  0.00     0.211 HD
ENDBRANCH  15  35
ENDBRANCH  13  15
ENDBRANCH  12  13
ENDBRANCH   1  12
BRANCH  10  37
HETATM   37  O7  UNL     1      20.846  13.981  22.990  1.00  0.00    -0.353 OA
BRANCH  37  38
HETATM   38  C26 UNL     1      19.930  13.323  22.193  1.00  0.00     0.291 C 
HETATM   39  O8  UNL     1      19.137  12.595  23.011  1.00  0.00    -0.351 OA
HETATM   40  C27 UNL     1      18.619  13.454  24.016  1.00  0.00     0.152 C 
HETATM   41  C28 UNL     1      18.084  12.561  25.116  1.00  0.00     0.042 C 
HETATM   42  C29 UNL     1      17.638  14.430  23.466  1.00  0.00     0.178 C 
HETATM   43  C30 UNL     1      18.057  15.027  22.179  1.00  0.00     0.185 C 
HETATM   44  C32 UNL     1      19.016  14.225  21.384  1.00  0.00     0.204 C 
BRANCH  42  45
HETATM   45  O9  UNL     1      17.536  15.503  24.406  1.00  0.00    -0.390 OA
ATOM     46  H9  UNL     1      16.610  15.669  24.544  1.00  0.00     0.210 HD
ENDBRANCH  42  45
BRANCH  43  47
HETATM   47  O10 UNL     1      16.955  15.326  21.349  1.00  0.00    -0.385 OA
HETATM   48  C31 UNL     1      16.028  14.321  21.365  1.00  0.00     0.202 C 
ENDBRANCH  43  47
BRANCH  44  49
HETATM   49  O11 UNL     1      19.729  15.021  20.472  1.00  0.00    -0.388 OA
ATOM     50  H11 UNL     1      19.222  15.214  19.693  1.00  0.00     0.210 HD
ENDBRANCH  44  49
ENDBRANCH  37  38
ENDBRANCH  10  37
TORSDOF 19
ENDMDL
MODEL 2
REMARK VINA RESULT: -8.235531989      2.723      5.100
REMARK  19 active torsions:
REMARK  status: ('A' for Active; 'I' for Inactive)
REMARK    1  A    between atoms: C2_2  and  C4_4 
REMARK    2  A    between atoms: C4_4  and  O1_5 
REMARK    3  A    between atoms: C4_4  and  C5_7 
REMARK    4  A    between atoms: C6_8  and  C7_9 
REMARK    5  A    between atoms: C8_10  and  C9_11 
REMARK    6  A    between atoms: C10_12  and  C11_13 
REMARK    7  A    between atoms: C12_14  and  C13_15 
REMARK    8  A    between atoms: C12_14  and  C14_20 
REMARK    9  A    between atoms: C13_15  and  O2_16 
REMARK   10  A    between atoms: C13_15  and  O3_18 
REMARK   11  A    between atoms: C14_20  and  O4_21 
REMARK   12  A    between atoms: C14_20  and  C15_23 
REMARK   13  A    between atoms: C15_23  and  O5_25 
REMARK   14  A    between atoms: O5_25  and  C17_26 
REMARK   15  A    between atoms: C25_35  and  O7_36 
REMARK   16  A    between atoms: O7_36  and  C26_37 
REMARK   17  A    between atoms: C29_41  and  O9_42 
REMARK   18  A    between atoms: C30_44  and  O10_45 
REMARK   19  A    between atoms: C32_47  and  O11_48 
ROOT
HETATM    1  C17 UNL     1      21.925  14.811  21.726  1.00  0.00     0.154 C 
HETATM    2  C18 UNL     1      21.687  16.058  20.952  1.00  0.00     0.200 C 
HETATM    3  O6  UNL     1      21.114  17.107  21.605  1.00  0.00    -0.383 OA
HETATM    4  C19 UNL     1      19.859  17.113  22.046  1.00  0.00     0.128 C 
HETATM    5  C20 UNL     1      18.852  16.835  20.988  1.00  0.00     0.032 C 
HETATM    6  C21 UNL     1      17.416  16.909  21.427  1.00  0.00     0.002 C 
HETATM    7  C22 UNL     1      17.299  17.273  22.876  1.00  0.00     0.001 C 
HETATM    8  C23 UNL     1      18.220  16.592  23.806  1.00  0.00     0.010 C 
HETATM    9  C24 UNL     1      19.587  16.270  23.279  1.00  0.00     0.044 C 
HETATM   10  C25 UNL     1      19.911  14.864  23.065  1.00  0.00     0.133 C 
HETATM   11  C33 UNL     1      21.503  14.817  23.173  1.00  0.00     0.067 C 
ENDROOT
BRANCH   1  12
HETATM   12  O5  UNL     1      23.086  14.108  21.404  1.00  0.00    -0.346 OA
BRANCH  12  13
HETATM   13  C15 UNL     1      24.081  13.939  22.373  1.00  0.00     0.070 C 
HETATM   14  C16 UNL     1      24.987  14.853  22.507  1.00  0.00     0.049 C 
BRANCH  13  15
HETATM   15  C14 UNL     1      24.160  12.757  23.274  1.00  0.00     0.207 C 
BRANCH  15  16
HETATM   16  C12 UNL     1      24.075  11.442  22.686  1.00  0.00     0.009 C 
HETATM   17  C11 UNL     1      25.008  10.658  22.230  1.00  0.00     0.011 C 
BRANCH  17  18
HETATM   18  C10 UNL     1      26.380  11.070  22.069  1.00  0.00     0.009 C 
HETATM   19  C9  UNL     1      27.405  10.272  22.114  1.00  0.00     0.065 C 
BRANCH  19  20
HETATM   20  C8  UNL     1      27.315   8.825  22.318  1.00  0.00    -0.074 C 
HETATM   21  C7  UNL     1      27.218   7.711  22.454  1.00  0.00    -0.074 C 
BRANCH  21  22
HETATM   22  C6  UNL     1      27.098   6.273  22.633  1.00  0.00     0.063 C 
HETATM   23  C5  UNL     1      26.142   5.993  23.525  1.00  0.00     0.018 C 
BRANCH  23  24
HETATM   24  C4  UNL     1      25.638   4.776  24.034  1.00  0.00     0.169 C 
BRANCH  24  25
HETATM   25  C2  UNL     1      26.179   4.444  25.388  1.00  0.00    -0.061 C 
HETATM   26  C1  UNL     1      26.760   3.308  25.635  1.00  0.00     0.017 C 
HETATM   27  C3  UNL     1      26.034   5.416  26.541  1.00  0.00     0.045 C 
ENDBRANCH  24  25
BRANCH  24  28
HETATM   28  O1  UNL     1      25.989   3.666  23.183  1.00  0.00    -0.387 OA
ATOM     29  H1  UNL     1      25.167   3.303  22.873  1.00  0.00     0.210 HD
ENDBRANCH  24  28
ENDBRANCH  23  24
ENDBRANCH  21  22
ENDBRANCH  19  20
ENDBRANCH  17  18
BRANCH  16  30
HETATM   30  C13 UNL     1      22.687  10.809  22.749  1.00  0.00     0.287 C 
BRANCH  30  31
HETATM   31  O2  UNL     1      22.700   9.488  22.275  1.00  0.00    -0.367 OA
ATOM     32  H2  UNL     1      23.469   9.315  21.745  1.00  0.00     0.213 HD
ENDBRANCH  30  31
BRANCH  30  33
HETATM   33  O3  UNL     1      21.799  11.557  21.989  1.00  0.00    -0.367 OA
ATOM     34  H3  UNL     1      20.912  11.401  22.291  1.00  0.00     0.213 HD
ENDBRANCH  30  33
ENDBRANCH  16  30
ENDBRANCH  15  16
BRANCH  15  35
HETATM   35  O4  UNL     1      25.280  13.019  24.062  1.00  0.00    -0.384 OA
ATOM     36  H4  UNL     1      25.288  13.846  24.529  1.00  0.00     0.211 HD
ENDBRANCH  15  35
ENDBRANCH  13  15
ENDBRANCH  12  13
ENDBRANCH   1  12
BRANCH  10  37
HETATM   37  O7  UNL     1      19.370  14.001  23.926  1.00  0.00    -0.353 OA
BRANCH  37  38
HETATM   38  C26 UNL     1      20.181  13.560  24.953  1.00  0.00     0.291 C 
HETATM   39  O8  UNL     1      19.960  14.369  26.013  1.00  0.00    -0.351 OA
HETATM   40  C27 UNL     1      18.563  14.409  26.264  1.00  0.00     0.152 C 
HETATM   41  C28 UNL     1      18.318  15.601  27.165  1.00  0.00     0.042 C 
HETATM   42  C29 UNL     1      18.052  13.112  26.787  1.00  0.00     0.178 C 
HETATM   43  C30 UNL     1      18.607  11.933  26.086  1.00  0.00     0.185 C 
HETATM   44  C32 UNL     1      19.913  12.141  25.420  1.00  0.00     0.204 C 
BRANCH  42  45
HETATM   45  O9  UNL     1      16.639  13.095  26.570  1.00  0.00    -0.390 OA
ATOM     46  H9  UNL     1      16.406  12.214  26.299  1.00  0.00     0.210 HD
ENDBRANCH  42  45
BRANCH  43  47
HETATM   47  O10 UNL     1      18.733  10.817  26.942  1.00  0.00    -0.385 OA
HETATM   48  C31 UNL     1      18.351  11.120  28.219  1.00  0.00     0.202 C 
ENDBRANCH  43  47
BRANCH  44  49
HETATM   49  O11 UNL     1      20.135  11.198  24.403  1.00  0.00    -0.388 OA
ATOM     50  H11 UNL     1      19.494  10.497  24.418  1.00  0.00     0.210 HD
ENDBRANCH  44  49
ENDBRANCH  37  38
ENDBRANCH  10  37
TORSDOF 19
ENDMDL
MODEL 3
REMARK VINA RESULT: -8.047257976      1.553      2.278
REMARK  19 active torsions:
REMARK  status: ('A' for Active; 'I' for Inactive)
REMARK    1  A    between atoms: C2_2  and  C4_4 
REMARK    2  A    between atoms: C4_4  and  O1_5 
REMARK    3  A    between atoms: C4_4  and  C5_7 
REMARK    4  A    between atoms: C6_8  and  C7_9 
REMARK    5  A    between atoms: C8_10  and  C9_11 
REMARK    6  A    between atoms: C10_12  and  C11_13 
REMARK    7  A    between atoms: C12_14  and  C13_15 
REMARK    8  A    between atoms: C12_14  and  C14_20 
REMARK    9  A    between atoms: C13_15  and  O2_16 
REMARK   10  A    between atoms: C13_15  and  O3_18 
REMARK   11  A    between atoms: C14_20  and  O4_21 
REMARK   12  A    between atoms: C14_20  and  C15_23 
REMARK   13  A    between atoms: C15_23  and  O5_25 
REMARK   14  A    between atoms: O5_25  and  C17_26 
REMARK   15  A    between atoms: C25_35  and  O7_36 
REMARK   16  A    between atoms: O7_36  and  C26_37 
REMARK   17  A    between atoms: C29_41  and  O9_42 
REMARK   18  A    between atoms: C30_44  and  O10_45 
REMARK   19  A    between atoms: C32_47  and  O11_48 
ROOT
HETATM    1  C17 UNL     1      24.902  12.307  22.198  1.00  0.00     0.154 C 
HETATM    2  C18 UNL     1      25.270  12.869  20.871  1.00  0.00     0.200 C 
HETATM    3  O6  UNL     1      25.411  14.220  20.775  1.00  0.00    -0.383 OA
HETATM    4  C19 UNL     1      24.404  15.083  20.889  1.00  0.00     0.128 C 
HETATM    5  C20 UNL     1      23.291  14.831  19.937  1.00  0.00     0.032 C 
HETATM    6  C21 UNL     1      22.167  15.830  19.978  1.00  0.00     0.002 C 
HETATM    7  C22 UNL     1      22.421  16.907  20.987  1.00  0.00     0.001 C 
HETATM    8  C23 UNL     1      22.945  16.476  22.298  1.00  0.00     0.010 C 
HETATM    9  C24 UNL     1      23.870  15.295  22.294  1.00  0.00     0.044 C 
HETATM   10  C25 UNL     1      23.381  14.056  22.888  1.00  0.00     0.133 C 
HETATM   11  C33 UNL     1      24.712  13.290  23.325  1.00  0.00     0.067 C 
ENDROOT
BRANCH   1  12
HETATM   12  O5  UNL     1      25.477  11.076  22.517  1.00  0.00    -0.346 OA
BRANCH  12  13
HETATM   13  C15 UNL     1      24.667   9.939  22.611  1.00  0.00     0.070 C 
HETATM   14  C16 UNL     1      23.553  10.015  23.263  1.00  0.00     0.049 C 
BRANCH  13  15
HETATM   15  C14 UNL     1      25.012   8.630  21.992  1.00  0.00     0.207 C 
BRANCH  15  16
HETATM   16  C12 UNL     1      24.203   7.482  22.325  1.00  0.00     0.009 C 
HETATM   17  C11 UNL     1      24.543   6.311  22.778  1.00  0.00     0.011 C 
BRANCH  17  18
HETATM   18  C10 UNL     1      25.910   5.866  22.875  1.00  0.00     0.009 C 
HETATM   19  C9  UNL     1      26.516   5.565  23.986  1.00  0.00     0.065 C 
BRANCH  19  20
HETATM   20  C8  UNL     1      25.888   5.619  25.308  1.00  0.00    -0.074 C 
HETATM   21  C7  UNL     1      25.436   5.653  26.339  1.00  0.00    -0.074 C 
BRANCH  21  22
HETATM   22  C6  UNL     1      24.847   5.698  27.668  1.00  0.00     0.063 C 
HETATM   23  C5  UNL     1      25.761   6.073  28.570  1.00  0.00     0.018 C 
BRANCH  23  24
HETATM   24  C4  UNL     1      25.697   6.276  29.966  1.00  0.00     0.169 C 
BRANCH  24  25
HETATM   25  C2  UNL     1      26.173   7.633  30.377  1.00  0.00    -0.061 C 
HETATM   26  C1  UNL     1      27.335   8.090  30.016  1.00  0.00     0.017 C 
HETATM   27  C3  UNL     1      25.326   8.515  31.270  1.00  0.00     0.045 C 
ENDBRANCH  24  25
BRANCH  24  28
HETATM   28  O1  UNL     1      26.527   5.332  30.671  1.00  0.00    -0.387 OA
ATOM     29  H1  UNL     1      25.940   4.824  31.219  1.00  0.00     0.210 HD
ENDBRANCH  24  28
ENDBRANCH  23  24
ENDBRANCH  21  22
ENDBRANCH  19  20
ENDBRANCH  17  18
BRANCH  16  30
HETATM   30  C13 UNL     1      22.698   7.737  22.283  1.00  0.00     0.287 C 
BRANCH  30  31
HETATM   31  O2  UNL     1      21.990   6.762  23.003  1.00  0.00    -0.367 OA
ATOM     32  H2  UNL     1      21.057   6.941  23.010  1.00  0.00     0.213 HD
ENDBRANCH  30  31
BRANCH  30  33
HETATM   33  O3  UNL     1      22.261   7.737  20.967  1.00  0.00    -0.367 OA
ATOM     34  H3  UNL     1      22.701   8.427  20.485  1.00  0.00     0.213 HD
ENDBRANCH  30  33
ENDBRANCH  16  30
ENDBRANCH  15  16
BRANCH  15  35
HETATM   35  O4  UNL     1      25.144   8.932  20.638  1.00  0.00    -0.384 OA
ATOM     36  H4  UNL     1      24.617   9.650  20.308  1.00  0.00     0.211 HD
ENDBRANCH  15  35
ENDBRANCH  13  15
ENDBRANCH  12  13
ENDBRANCH   1  12
BRANCH  10  37
HETATM   37  O7  UNL     1      22.569  14.191  23.936  1.00  0.00    -0.353 OA
BRANCH  37  38
HETATM   38  C26 UNL     1      21.519  13.298  24.026  1.00  0.00     0.291 C 
HETATM   39  O8  UNL     1      20.835  13.597  25.153  1.00  0.00    -0.351 OA
HETATM   40  C27 UNL     1      20.508  14.978  25.128  1.00  0.00     0.152 C 
HETATM   41  C28 UNL     1      20.116  15.357  26.541  1.00  0.00     0.042 C 
HETATM   42  C29 UNL     1      19.490  15.293  24.089  1.00  0.00     0.178 C 
HETATM   43  C30 UNL     1      19.728  14.604  22.801  1.00  0.00     0.185 C 
HETATM   44  C32 UNL     1      20.524  13.358  22.881  1.00  0.00     0.204 C 
BRANCH  42  45
HETATM   45  O9  UNL     1      19.571  16.697  23.828  1.00  0.00    -0.390 OA
ATOM     46  H9  UNL     1      19.860  17.116  24.630  1.00  0.00     0.210 HD
ENDBRANCH  42  45
BRANCH  43  47
HETATM   47  O10 UNL     1      18.523  14.303  22.130  1.00  0.00    -0.385 OA
HETATM   48  C31 UNL     1      17.637  13.666  22.953  1.00  0.00     0.202 C 
ENDBRANCH  43  47
BRANCH  44  49
HETATM   49  O11 UNL     1      21.117  13.040  21.647  1.00  0.00    -0.388 OA
ATOM     50  H11 UNL     1      20.754  13.550  20.933  1.00  0.00     0.210 HD
ENDBRANCH  44  49
ENDBRANCH  37  38
ENDBRANCH  10  37
TORSDOF 19
ENDMDL
MODEL 4
REMARK VINA RESULT: -8.032724784      1.966      2.923
REMARK  19 active torsions:
REMARK  status: ('A' for Active; 'I' for Inactive)
REMARK    1  A    between atoms: C2_2  and  C4_4 
REMARK    2  A    between atoms: C4_4  and  O1_5 
REMARK    3  A    between atoms: C4_4  and  C5_7 
REMARK    4  A    between atoms: C6_8  and  C7_9 
REMARK    5  A    between atoms: C8_10  and  C9_11 
REMARK    6  A    between atoms: C10_12  and  C11_13 
REMARK    7  A    between atoms: C12_14  and  C13_15 
REMARK    8  A    between atoms: C12_14  and  C14_20 
REMARK    9  A    between atoms: C13_15  and  O2_16 
REMARK   10  A    between atoms: C13_15  and  O3_18 
REMARK   11  A    between atoms: C14_20  and  O4_21 
REMARK   12  A    between atoms: C14_20  and  C15_23 
REMARK   13  A    between atoms: C15_23  and  O5_25 
REMARK   14  A    between atoms: O5_25  and  C17_26 
REMARK   15  A    between atoms: C25_35  and  O7_36 
REMARK   16  A    between atoms: O7_36  and  C26_37 
REMARK   17  A    between atoms: C29_41  and  O9_42 
REMARK   18  A    between atoms: C30_44  and  O10_45 
REMARK   19  A    between atoms: C32_47  and  O11_48 
ROOT
HETATM    1  C17 UNL     1      24.960  12.330  22.242  1.00  0.00     0.154 C 
HETATM    2  C18 UNL     1      25.178  12.812  20.851  1.00  0.00     0.200 C 
HETATM    3  O6  UNL     1      25.333  14.151  20.664  1.00  0.00    -0.383 OA
HETATM    4  C19 UNL     1      24.365  15.045  20.848  1.00  0.00     0.128 C 
HETATM    5  C20 UNL     1      23.141  14.773  20.049  1.00  0.00     0.032 C 
HETATM    6  C21 UNL     1      22.050  15.801  20.166  1.00  0.00     0.002 C 
HETATM    7  C22 UNL     1      22.444  16.924  21.078  1.00  0.00     0.001 C 
HETATM    8  C23 UNL     1      23.112  16.549  22.339  1.00  0.00     0.010 C 
HETATM    9  C24 UNL     1      24.007  15.346  22.292  1.00  0.00     0.044 C 
HETATM   10  C25 UNL     1      23.567  14.153  23.008  1.00  0.00     0.133 C 
HETATM   11  C33 UNL     1      24.925  13.376  23.326  1.00  0.00     0.067 C 
ENDROOT
BRANCH   1  12
HETATM   12  O5  UNL     1      25.545  11.104  22.558  1.00  0.00    -0.346 OA
BRANCH  12  13
HETATM   13  C15 UNL     1      24.738   9.968  22.692  1.00  0.00     0.070 C 
HETATM   14  C16 UNL     1      23.670  10.040  23.417  1.00  0.00     0.049 C 
BRANCH  13  15
HETATM   15  C14 UNL     1      25.036   8.666  22.036  1.00  0.00     0.207 C 
BRANCH  15  16
HETATM   16  C12 UNL     1      24.212   7.528  22.369  1.00  0.00     0.009 C 
HETATM   17  C11 UNL     1      24.538   6.352  22.819  1.00  0.00     0.011 C 
BRANCH  17  18
HETATM   18  C10 UNL     1      25.899   5.887  22.910  1.00  0.00     0.009 C 
HETATM   19  C9  UNL     1      26.506   5.578  24.018  1.00  0.00     0.065 C 
BRANCH  19  20
HETATM   20  C8  UNL     1      25.884   5.639  25.343  1.00  0.00    -0.074 C 
HETATM   21  C7  UNL     1      25.434   5.671  26.375  1.00  0.00    -0.074 C 
BRANCH  21  22
HETATM   22  C6  UNL     1      24.849   5.715  27.705  1.00  0.00     0.063 C 
HETATM   23  C5  UNL     1      25.765   6.087  28.606  1.00  0.00     0.018 C 
BRANCH  23  24
HETATM   24  C4  UNL     1      25.705   6.287  30.002  1.00  0.00     0.169 C 
BRANCH  24  25
HETATM   25  C2  UNL     1      26.204   7.636  30.416  1.00  0.00    -0.061 C 
HETATM   26  C1  UNL     1      27.378   8.069  30.066  1.00  0.00     0.017 C 
HETATM   27  C3  UNL     1      25.365   8.536  31.299  1.00  0.00     0.045 C 
ENDBRANCH  24  25
BRANCH  24  28
HETATM   28  O1  UNL     1      26.520   5.329  30.705  1.00  0.00    -0.387 OA
ATOM     29  H1  UNL     1      26.466   4.522  30.206  1.00  0.00     0.210 HD
ENDBRANCH  24  28
ENDBRANCH  23  24
ENDBRANCH  21  22
ENDBRANCH  19  20
ENDBRANCH  17  18
BRANCH  16  30
HETATM   30  C13 UNL     1      22.711   7.803  22.334  1.00  0.00     0.287 C 
BRANCH  30  31
HETATM   31  O2  UNL     1      21.988   6.812  23.017  1.00  0.00    -0.367 OA
ATOM     32  H2  UNL     1      21.104   7.097  23.213  1.00  0.00     0.213 HD
ENDBRANCH  30  31
BRANCH  30  33
HETATM   33  O3  UNL     1      22.278   7.857  21.017  1.00  0.00    -0.367 OA
ATOM     34  H3  UNL     1      21.341   7.703  20.983  1.00  0.00     0.213 HD
ENDBRANCH  30  33
ENDBRANCH  16  30
ENDBRANCH  15  16
BRANCH  15  35
HETATM   35  O4  UNL     1      25.134   8.993  20.685  1.00  0.00    -0.384 OA
ATOM     36  H4  UNL     1      25.936   8.741  20.242  1.00  0.00     0.211 HD
ENDBRANCH  15  35
ENDBRANCH  13  15
ENDBRANCH  12  13
ENDBRANCH   1  12
BRANCH  10  37
HETATM   37  O7  UNL     1      22.888  14.365  24.135  1.00  0.00    -0.353 OA
BRANCH  37  38
HETATM   38  C26 UNL     1      21.599  14.843  24.002  1.00  0.00     0.291 C 
HETATM   39  O8  UNL     1      20.988  14.088  23.062  1.00  0.00    -0.351 OA
HETATM   40  C27 UNL     1      21.137  12.721  23.416  1.00  0.00     0.152 C 
HETATM   41  C28 UNL     1      20.810  11.914  22.177  1.00  0.00     0.042 C 
HETATM   42  C29 UNL     1      20.341  12.367  24.623  1.00  0.00     0.178 C 
HETATM   43  C30 UNL     1      20.413  13.383  25.697  1.00  0.00     0.185 C 
HETATM   44  C32 UNL     1      20.748  14.757  25.255  1.00  0.00     0.204 C 
BRANCH  42  45
HETATM   45  O9  UNL     1      20.895  11.162  25.157  1.00  0.00    -0.390 OA
ATOM     46  H9  UNL     1      21.109  11.329  26.068  1.00  0.00     0.210 HD
ENDBRANCH  42  45
BRANCH  43  47
HETATM   47  O10 UNL     1      19.217  13.451  26.444  1.00  0.00    -0.385 OA
HETATM   48  C31 UNL     1      18.161  13.835  25.665  1.00  0.00     0.202 C 
ENDBRANCH  43  47
BRANCH  44  49
HETATM   49  O11 UNL     1      21.273  15.527  26.306  1.00  0.00    -0.388 OA
ATOM     50  H11 UNL     1      22.212  15.420  26.394  1.00  0.00     0.210 HD
ENDBRANCH  44  49
ENDBRANCH  37  38
ENDBRANCH  10  37
TORSDOF 19
ENDMDL
MODEL 5
REMARK VINA RESULT: -7.798015931      2.992      4.369
REMARK  19 active torsions:
REMARK  status: ('A' for Active; 'I' for Inactive)
REMARK    1  A    between atoms: C2_2  and  C4_4 
REMARK    2  A    between atoms: C4_4  and  O1_5 
REMARK    3  A    between atoms: C4_4  and  C5_7 
REMARK    4  A    between atoms: C6_8  and  C7_9 
REMARK    5  A    between atoms: C8_10  and  C9_11 
REMARK    6  A    between atoms: C10_12  and  C11_13 
REMARK    7  A    between atoms: C12_14  and  C13_15 
REMARK    8  A    between atoms: C12_14  and  C14_20 
REMARK    9  A    between atoms: C13_15  and  O2_16 
REMARK   10  A    between atoms: C13_15  and  O3_18 
REMARK   11  A    between atoms: C14_20  and  O4_21 
REMARK   12  A    between atoms: C14_20  and  C15_23 
REMARK   13  A    between atoms: C15_23  and  O5_25 
REMARK   14  A    between atoms: O5_25  and  C17_26 
REMARK   15  A    between atoms: C25_35  and  O7_36 
REMARK   16  A    between atoms: O7_36  and  C26_37 
REMARK   17  A    between atoms: C29_41  and  O9_42 
REMARK   18  A    between atoms: C30_44  and  O10_45 
REMARK   19  A    between atoms: C32_47  and  O11_48 
ROOT
HETATM    1  C17 UNL     1      24.748  12.518  22.363  1.00  0.00     0.154 C 
HETATM    2  C18 UNL     1      24.941  12.974  20.961  1.00  0.00     0.200 C 
HETATM    3  O6  UNL     1      25.075  14.311  20.744  1.00  0.00    -0.383 OA
HETATM    4  C19 UNL     1      24.096  15.195  20.922  1.00  0.00     0.128 C 
HETATM    5  C20 UNL     1      22.866  14.888  20.145  1.00  0.00     0.032 C 
HETATM    6  C21 UNL     1      21.762  15.904  20.255  1.00  0.00     0.002 C 
HETATM    7  C22 UNL     1      22.152  17.051  21.138  1.00  0.00     0.001 C 
HETATM    8  C23 UNL     1      22.841  16.711  22.398  1.00  0.00     0.010 C 
HETATM    9  C24 UNL     1      23.752  15.520  22.364  1.00  0.00     0.044 C 
HETATM   10  C25 UNL     1      23.339  14.337  23.110  1.00  0.00     0.133 C 
HETATM   11  C33 UNL     1      24.712  13.586  23.427  1.00  0.00     0.067 C 
ENDROOT
BRANCH   1  12
HETATM   12  O5  UNL     1      25.354  11.307  22.698  1.00  0.00    -0.346 OA
BRANCH  12  13
HETATM   13  C15 UNL     1      24.593  10.132  22.704  1.00  0.00     0.070 C 
HETATM   14  C16 UNL     1      23.462  10.122  23.331  1.00  0.00     0.049 C 
BRANCH  13  15
HETATM   15  C14 UNL     1      25.010   8.879  22.019  1.00  0.00     0.207 C 
BRANCH  15  16
HETATM   16  C12 UNL     1      26.088   8.111  22.596  1.00  0.00     0.009 C 
HETATM   17  C11 UNL     1      26.076   7.211  23.536  1.00  0.00     0.011 C 
BRANCH  17  18
HETATM   18  C10 UNL     1      24.917   6.924  24.342  1.00  0.00     0.009 C 
HETATM   19  C9  UNL     1      24.717   5.811  24.985  1.00  0.00     0.065 C 
BRANCH  19  20
HETATM   20  C8  UNL     1      25.655   4.686  24.997  1.00  0.00    -0.074 C 
HETATM   21  C7  UNL     1      26.351   3.801  24.994  1.00  0.00    -0.074 C 
BRANCH  21  22
HETATM   22  C6  UNL     1      27.254   2.661  24.992  1.00  0.00     0.063 C 
HETATM   23  C5  UNL     1      26.965   1.839  23.977  1.00  0.00     0.018 C 
BRANCH  23  24
HETATM   24  C4  UNL     1      27.538   0.625  23.539  1.00  0.00     0.169 C 
BRANCH  24  25
HETATM   25  C2  UNL     1      27.331  -0.496  24.508  1.00  0.00    -0.061 C 
HETATM   26  C1  UNL     1      28.328  -1.093  25.089  1.00  0.00     0.017 C 
HETATM   27  C3  UNL     1      25.939  -1.006  24.819  1.00  0.00     0.045 C 
ENDBRANCH  24  25
BRANCH  24  28
HETATM   28  O1  UNL     1      28.964   0.748  23.372  1.00  0.00    -0.387 OA
ATOM     29  H1  UNL     1      29.169   1.662  23.533  1.00  0.00     0.210 HD
ENDBRANCH  24  28
ENDBRANCH  23  24
ENDBRANCH  21  22
ENDBRANCH  19  20
ENDBRANCH  17  18
BRANCH  16  30
HETATM   30  C13 UNL     1      27.430   8.271  21.884  1.00  0.00     0.287 C 
BRANCH  30  31
HETATM   31  O2  UNL     1      28.012   9.519  22.154  1.00  0.00    -0.367 OA
ATOM     32  H2  UNL     1      27.458  10.233  21.863  1.00  0.00     0.213 HD
ENDBRANCH  30  31
BRANCH  30  33
HETATM   33  O3  UNL     1      27.250   8.138  20.516  1.00  0.00    -0.367 OA
ATOM     34  H3  UNL     1      28.081   7.939  20.102  1.00  0.00     0.213 HD
ENDBRANCH  30  33
ENDBRANCH  16  30
ENDBRANCH  15  16
BRANCH  15  35
HETATM   35  O4  UNL     1      23.809   8.206  21.805  1.00  0.00    -0.384 OA
ATOM     36  H4  UNL     1      23.729   7.343  22.194  1.00  0.00     0.211 HD
ENDBRANCH  15  35
ENDBRANCH  13  15
ENDBRANCH  12  13
ENDBRANCH   1  12
BRANCH  10  37
HETATM   37  O7  UNL     1      22.671  14.562  24.242  1.00  0.00    -0.353 OA
BRANCH  37  38
HETATM   38  C26 UNL     1      21.363  14.986  24.115  1.00  0.00     0.291 C 
HETATM   39  O8  UNL     1      20.778  14.203  23.182  1.00  0.00    -0.351 OA
HETATM   40  C27 UNL     1      20.986  12.845  23.538  1.00  0.00     0.152 C 
HETATM   41  C28 UNL     1      20.686  12.020  22.304  1.00  0.00     0.042 C 
HETATM   42  C29 UNL     1      20.214  12.461  24.752  1.00  0.00     0.178 C 
HETATM   43  C30 UNL     1      20.250  13.482  25.822  1.00  0.00     0.185 C 
HETATM   44  C32 UNL     1      20.524  14.867  25.375  1.00  0.00     0.204 C 
BRANCH  42  45
HETATM   45  O9  UNL     1      20.821  11.282  25.286  1.00  0.00    -0.390 OA
ATOM     46  H9  UNL     1      20.296  11.005  26.028  1.00  0.00     0.210 HD
ENDBRANCH  42  45
BRANCH  43  47
HETATM   47  O10 UNL     1      19.057  13.502  26.577  1.00  0.00    -0.385 OA
HETATM   48  C31 UNL     1      17.967  13.227  25.799  1.00  0.00     0.202 C 
ENDBRANCH  43  47
BRANCH  44  49
HETATM   49  O11 UNL     1      21.023  15.663  26.420  1.00  0.00    -0.388 OA
ATOM     50  H11 UNL     1      21.486  15.149  27.071  1.00  0.00     0.210 HD
ENDBRANCH  44  49
ENDBRANCH  37  38
ENDBRANCH  10  37
TORSDOF 19
ENDMDL
