MODEL 1
REMARK VINA RESULT: -7.462826580      0.000      0.000
REMARK  17 active torsions:
REMARK  status: ('A' for Active; 'I' for Inactive)
REMARK    1  A    between atoms: O1_2  and  C2_3 
REMARK    2  A    between atoms: C2_3  and  C3_4 
REMARK    3  A    between atoms: C2_3  and  C14_19 
REMARK    4  A    between atoms: C3_4  and  C4_5 
REMARK    5  A    between atoms: C4_5  and  O2_6 
REMARK    6  A    between atoms: C5_8  and  O3_9 
REMARK    7  A    between atoms: C14_19  and  C16_21 
REMARK    8  A    between atoms: C16_21  and  N1_22 
REMARK    9  A    between atoms: N1_22  and  C17_24 
REMARK   10  A    between atoms: C20_27  and  O4_28 
REMARK   11  A    between atoms: O4_28  and  C21_29 
REMARK   12  A    between atoms: C22_33  and  C23_34 
REMARK   13  A    between atoms: C23_34  and  N3_35 
REMARK   14  A    between atoms: C24_37  and  C26_39 
REMARK   15  A    between atoms: C26_39  and  C27_40 
REMARK   16  A    between atoms: C27_40  and  O7_41 
REMARK   17  A    between atoms: C29_45  and  C30_46 
ROOT
HETATM    1  C17 UNL     1      24.850   9.751  21.881  1.00  0.00     0.109 C 
HETATM    2  C18 UNL     1      25.489  11.047  22.211  1.00  0.00     0.039 C 
HETATM    3  C19 UNL     1      24.731  11.983  23.084  1.00  0.00     0.075 C 
HETATM    4  C20 UNL     1      24.666  13.385  22.533  1.00  0.00     0.278 C 
HETATM    5  O6  UNL     1      23.568  13.921  23.249  1.00  0.00    -0.347 OA
HETATM    6  C22 UNL     1      22.590  12.938  23.039  1.00  0.00     0.192 C 
HETATM    7  C28 UNL     1      23.321  11.638  23.361  1.00  0.00     0.165 C 
HETATM    8  O8  UNL     1      22.803  10.643  22.558  1.00  0.00    -0.371 OA
HETATM    9  C29 UNL     1      23.567   9.480  22.633  1.00  0.00     0.167 C 
ENDROOT
BRANCH   1  10
HETATM   10  N1  UNL     1      25.768   8.639  21.982  1.00  0.00    -0.414 N 
ATOM     11  H1  UNL     1      25.919   8.138  22.858  1.00  0.00     0.153 HD
BRANCH  10  12
HETATM   12  C16 UNL     1      26.445   8.287  20.786  1.00  0.00     0.121 C 
BRANCH  12  13
HETATM   13  C14 UNL     1      25.602   7.549  19.791  1.00  0.00     0.028 C 
HETATM   14  C15 UNL     1      25.590   6.082  20.203  1.00  0.00     0.014 C 
BRANCH  13  15
HETATM   15  C2  UNL     1      26.129   7.625  18.371  1.00  0.00     0.129 C 
BRANCH  15  16
HETATM   16  O1  UNL     1      26.877   6.447  18.196  1.00  0.00    -0.390 OA
HETATM   17  C1  UNL     1      28.167   6.767  17.825  1.00  0.00     0.202 C 
ENDBRANCH  15  16
BRANCH  15  18
HETATM   18  C3  UNL     1      26.928   8.851  18.140  1.00  0.00     0.073 C 
BRANCH  18  19
HETATM   19  C4  UNL     1      26.368   9.842  17.184  1.00  0.00     0.090 C 
HETATM   20  C5  UNL     1      26.359  11.252  17.701  1.00  0.00     0.153 C 
HETATM   21  C6  UNL     1      26.130  12.050  16.427  1.00  0.00     0.044 C 
HETATM   22  C7  UNL     1      26.814  11.246  15.347  1.00  0.00    -0.035 C 
HETATM   23  C8  UNL     1      27.917  12.016  14.660  1.00  0.00     0.016 C 
HETATM   24  C9  UNL     1      25.804  10.866  14.299  1.00  0.00     0.010 C 
HETATM   25  C13 UNL     1      27.315   9.983  15.983  1.00  0.00     0.034 C 
HETATM   26  C10 UNL     1      25.963   9.390  14.080  1.00  0.00     0.005 C 
HETATM   27  C11 UNL     1      26.995   8.868  15.021  1.00  0.00    -0.011 C 
HETATM   28  C12 UNL     1      28.236   8.496  14.254  1.00  0.00     0.010 C 
BRANCH  19  29
HETATM   29  O2  UNL     1      25.144   9.529  16.656  1.00  0.00    -0.387 OA
ATOM     30  H2  UNL     1      24.652  10.258  16.298  1.00  0.00     0.210 HD
ENDBRANCH  19  29
BRANCH  20  31
HETATM   31  O3  UNL     1      27.602  11.645  18.206  1.00  0.00    -0.393 OA
ATOM     32  H3  UNL     1      27.567  12.486  18.646  1.00  0.00     0.210 HD
ENDBRANCH  20  31
ENDBRANCH  18  19
ENDBRANCH  15  18
ENDBRANCH  13  15
ENDBRANCH  12  13
ENDBRANCH  10  12
ENDBRANCH   1  10
BRANCH   9  33
HETATM   33  C30 UNL     1      22.839   8.408  21.919  1.00  0.00     0.009 C 
HETATM   34  C31 UNL     1      22.787   7.138  22.276  1.00  0.00    -0.089 C 
HETATM   35  C32 UNL     1      23.466   6.577  23.479  1.00  0.00     0.042 C 
HETATM   36  C33 UNL     1      21.986   6.219  21.381  1.00  0.00     0.042 C 
ENDBRANCH   9  33
BRANCH   4  37
HETATM   37  O4  UNL     1      24.238  13.333  21.189  1.00  0.00    -0.274 OA
BRANCH  37  38
HETATM   38  C21 UNL     1      24.658  14.213  20.210  1.00  0.00     0.375 C 
HETATM   39  N2  UNL     1      23.878  15.340  19.878  1.00  0.00    -0.032 NA
HETATM   40  O5  UNL     1      25.760  13.947  19.648  1.00  0.00    -0.242 OA
ENDBRANCH  37  38
ENDBRANCH   4  37
BRANCH   6  41
HETATM   41  C23 UNL     1      21.431  13.158  23.953  1.00  0.00     0.095 C 
BRANCH  41  42
HETATM   42  N3  UNL     1      20.889  11.940  24.399  1.00  0.00    -0.374 N 
HETATM   43  C24 UNL     1      19.710  11.622  24.678  1.00  0.00    -0.016 C 
HETATM   44  C25 UNL     1      19.457  10.208  25.137  1.00  0.00     0.063 C 
ATOM     45  H3  UNL     1      21.570  11.190  24.516  1.00  0.00     0.164 HD
BRANCH  43  46
HETATM   46  C26 UNL     1      18.509  12.494  24.609  1.00  0.00     0.078 C 
BRANCH  46  47
HETATM   47  C27 UNL     1      18.063  12.932  25.991  1.00  0.00     0.169 C 
BRANCH  47  48
HETATM   48  O7  UNL     1      19.188  13.337  26.705  1.00  0.00    -0.401 OA
ATOM     49  H7  UNL     1      18.909  13.612  27.570  1.00  0.00     0.209 HD
ENDBRANCH  47  48
ENDBRANCH  46  47
ENDBRANCH  43  46
ENDBRANCH  41  42
ENDBRANCH   6  41
TORSDOF 17
ENDMDL
MODEL 2
REMARK VINA RESULT: -7.361015013      2.748      6.404
REMARK  17 active torsions:
REMARK  status: ('A' for Active; 'I' for Inactive)
REMARK    1  A    between atoms: O1_2  and  C2_3 
REMARK    2  A    between atoms: C2_3  and  C3_4 
REMARK    3  A    between atoms: C2_3  and  C14_19 
REMARK    4  A    between atoms: C3_4  and  C4_5 
REMARK    5  A    between atoms: C4_5  and  O2_6 
REMARK    6  A    between atoms: C5_8  and  O3_9 
REMARK    7  A    between atoms: C14_19  and  C16_21 
REMARK    8  A    between atoms: C16_21  and  N1_22 
REMARK    9  A    between atoms: N1_22  and  C17_24 
REMARK   10  A    between atoms: C20_27  and  O4_28 
REMARK   11  A    between atoms: O4_28  and  C21_29 
REMARK   12  A    between atoms: C22_33  and  C23_34 
REMARK   13  A    between atoms: C23_34  and  N3_35 
REMARK   14  A    between atoms: C24_37  and  C26_39 
REMARK   15  A    between atoms: C26_39  and  C27_40 
REMARK   16  A    between atoms: C27_40  and  O7_41 
REMARK   17  A    between atoms: C29_45  and  C30_46 
ROOT
HETATM    1  C17 UNL     1      23.848  12.396  23.335  1.00  0.00     0.109 C 
HETATM    2  C18 UNL     1      22.748  11.447  23.631  1.00  0.00     0.039 C 
HETATM    3  C19 UNL     1      21.438  11.685  22.968  1.00  0.00     0.075 C 
HETATM    4  C20 UNL     1      20.275  11.652  23.926  1.00  0.00     0.278 C 
HETATM    5  O6  UNL     1      19.278  12.334  23.186  1.00  0.00    -0.347 OA
HETATM    6  C22 UNL     1      19.960  13.498  22.802  1.00  0.00     0.192 C 
HETATM    7  C28 UNL     1      21.281  12.968  22.251  1.00  0.00     0.165 C 
HETATM    8  O8  UNL     1      22.262  13.900  22.515  1.00  0.00    -0.371 OA
HETATM    9  C29 UNL     1      23.531  13.394  22.243  1.00  0.00     0.167 C 
ENDROOT
BRANCH   1  10
HETATM   10  N1  UNL     1      25.106  11.729  23.093  1.00  0.00    -0.414 N 
ATOM     11  H1  UNL     1      25.955  11.969  23.606  1.00  0.00     0.153 HD
BRANCH  10  12
HETATM   12  C16 UNL     1      25.087  10.719  22.097  1.00  0.00     0.121 C 
BRANCH  12  13
HETATM   13  C14 UNL     1      26.330  10.649  21.262  1.00  0.00     0.028 C 
HETATM   14  C15 UNL     1      26.258  11.779  20.243  1.00  0.00     0.014 C 
BRANCH  13  15
HETATM   15  C2  UNL     1      26.477   9.348  20.498  1.00  0.00     0.129 C 
BRANCH  15  16
HETATM   16  O1  UNL     1      26.115   9.658  19.175  1.00  0.00    -0.390 OA
HETATM   17  C1  UNL     1      26.510   8.637  18.333  1.00  0.00     0.202 C 
ENDBRANCH  15  16
BRANCH  15  18
HETATM   18  C3  UNL     1      25.649   8.264  21.079  1.00  0.00     0.073 C 
BRANCH  18  19
HETATM   19  C4  UNL     1      26.355   7.270  21.929  1.00  0.00     0.090 C 
HETATM   20  C5  UNL     1      25.779   7.128  23.309  1.00  0.00     0.153 C 
HETATM   21  C6  UNL     1      26.406   5.823  23.776  1.00  0.00     0.044 C 
HETATM   22  C7  UNL     1      26.547   4.998  22.520  1.00  0.00    -0.035 C 
HETATM   23  C8  UNL     1      25.774   3.701  22.586  1.00  0.00     0.016 C 
HETATM   24  C9  UNL     1      27.996   4.653  22.315  1.00  0.00     0.010 C 
HETATM   25  C13 UNL     1      26.112   5.859  21.371  1.00  0.00     0.034 C 
HETATM   26  C10 UNL     1      28.316   5.015  20.894  1.00  0.00     0.005 C 
HETATM   27  C11 UNL     1      27.112   5.631  20.267  1.00  0.00    -0.011 C 
HETATM   28  C12 UNL     1      26.531   4.684  19.251  1.00  0.00     0.010 C 
BRANCH  19  29
HETATM   29  O2  UNL     1      27.714   7.410  22.001  1.00  0.00    -0.387 OA
ATOM     30  H2  UNL     1      28.215   6.605  21.943  1.00  0.00     0.210 HD
ENDBRANCH  19  29
BRANCH  20  31
HETATM   31  O3  UNL     1      24.395   6.927  23.293  1.00  0.00    -0.393 OA
ATOM     32  H3  UNL     1      24.134   6.235  22.697  1.00  0.00     0.210 HD
ENDBRANCH  20  31
ENDBRANCH  18  19
ENDBRANCH  15  18
ENDBRANCH  13  15
ENDBRANCH  12  13
ENDBRANCH  10  12
ENDBRANCH   1  10
BRANCH   9  33
HETATM   33  C30 UNL     1      24.500  14.507  22.349  1.00  0.00     0.009 C 
HETATM   34  C31 UNL     1      24.741  15.413  21.419  1.00  0.00    -0.089 C 
HETATM   35  C32 UNL     1      24.060  15.457  20.093  1.00  0.00     0.042 C 
HETATM   36  C33 UNL     1      25.788  16.453  21.750  1.00  0.00     0.042 C 
ENDBRANCH   9  33
BRANCH   4  37
HETATM   37  O4  UNL     1      20.557  12.494  25.024  1.00  0.00    -0.274 OA
BRANCH  37  38
HETATM   38  C21 UNL     1      19.660  12.769  26.037  1.00  0.00     0.375 C 
HETATM   39  N2  UNL     1      19.304  14.099  26.338  1.00  0.00    -0.032 NA
HETATM   40  O5  UNL     1      19.191  11.772  26.660  1.00  0.00    -0.242 OA
ENDBRANCH  37  38
ENDBRANCH   4  37
BRANCH   6  41
HETATM   41  C23 UNL     1      19.184  14.232  21.761  1.00  0.00     0.095 C 
BRANCH  41  42
HETATM   42  N3  UNL     1      19.943  15.268  21.189  1.00  0.00    -0.374 N 
HETATM   43  C24 UNL     1      20.303  16.374  21.656  1.00  0.00    -0.016 C 
HETATM   44  C25 UNL     1      21.126  17.273  20.768  1.00  0.00     0.063 C 
ATOM     45  H3  UNL     1      20.252  15.090  20.233  1.00  0.00     0.164 HD
BRANCH  43  46
HETATM   46  C26 UNL     1      20.007  16.912  23.008  1.00  0.00     0.078 C 
BRANCH  46  47
HETATM   47  C27 UNL     1      21.266  17.032  23.845  1.00  0.00     0.169 C 
BRANCH  47  48
HETATM   48  O7  UNL     1      21.276  15.993  24.771  1.00  0.00    -0.401 OA
ATOM     49  H7  UNL     1      22.179  15.741  24.926  1.00  0.00     0.209 HD
ENDBRANCH  47  48
ENDBRANCH  46  47
ENDBRANCH  43  46
ENDBRANCH  41  42
ENDBRANCH   6  41
TORSDOF 17
ENDMDL
MODEL 3
REMARK VINA RESULT: -7.128506285      2.658      9.911
REMARK  17 active torsions:
REMARK  status: ('A' for Active; 'I' for Inactive)
REMARK    1  A    between atoms: O1_2  and  C2_3 
REMARK    2  A    between atoms: C2_3  and  C3_4 
REMARK    3  A    between atoms: C2_3  and  C14_19 
REMARK    4  A    between atoms: C3_4  and  C4_5 
REMARK    5  A    between atoms: C4_5  and  O2_6 
REMARK    6  A    between atoms: C5_8  and  O3_9 
REMARK    7  A    between atoms: C14_19  and  C16_21 
REMARK    8  A    between atoms: C16_21  and  N1_22 
REMARK    9  A    between atoms: N1_22  and  C17_24 
REMARK   10  A    between atoms: C20_27  and  O4_28 
REMARK   11  A    between atoms: O4_28  and  C21_29 
REMARK   12  A    between atoms: C22_33  and  C23_34 
REMARK   13  A    between atoms: C23_34  and  N3_35 
REMARK   14  A    between atoms: C24_37  and  C26_39 
REMARK   15  A    between atoms: C26_39  and  C27_40 
REMARK   16  A    between atoms: C27_40  and  O7_41 
REMARK   17  A    between atoms: C29_45  and  C30_46 
ROOT
HETATM    1  C17 UNL     1      22.114  11.713  23.195  1.00  0.00     0.109 C 
HETATM    2  C18 UNL     1      22.608  10.420  23.725  1.00  0.00     0.039 C 
HETATM    3  C19 UNL     1      24.009  10.036  23.403  1.00  0.00     0.075 C 
HETATM    4  C20 UNL     1      24.130   8.631  22.869  1.00  0.00     0.278 C 
HETATM    5  O6  UNL     1      25.396   8.678  22.234  1.00  0.00    -0.347 OA
HETATM    6  C22 UNL     1      25.268   9.823  21.436  1.00  0.00     0.192 C 
HETATM    7  C28 UNL     1      24.711  10.866  22.401  1.00  0.00     0.165 C 
HETATM    8  O8  UNL     1      23.897  11.721  21.688  1.00  0.00    -0.371 OA
HETATM    9  C29 UNL     1      23.177  12.562  22.534  1.00  0.00     0.167 C 
ENDROOT
BRANCH   1  10
HETATM   10  N1  UNL     1      21.370  12.468  24.178  1.00  0.00    -0.414 N 
ATOM     11  H1  UNL     1      21.620  13.423  24.431  1.00  0.00     0.153 HD
BRANCH  10  12
HETATM   12  C16 UNL     1      20.270  11.794  24.768  1.00  0.00     0.121 C 
BRANCH  12  13
HETATM   13  C14 UNL     1      19.643  12.521  25.919  1.00  0.00     0.028 C 
HETATM   14  C15 UNL     1      18.444  11.701  26.378  1.00  0.00     0.014 C 
BRANCH  13  15
HETATM   15  C2  UNL     1      19.145  13.908  25.563  1.00  0.00     0.129 C 
BRANCH  15  16
HETATM   16  O1  UNL     1      19.699  14.757  26.539  1.00  0.00    -0.390 OA
HETATM   17  C1  UNL     1      20.997  15.075  26.195  1.00  0.00     0.202 C 
ENDBRANCH  15  16
BRANCH  15  18
HETATM   18  C3  UNL     1      17.664  13.973  25.521  1.00  0.00     0.073 C 
BRANCH  18  19
HETATM   19  C4  UNL     1      17.064  14.818  24.456  1.00  0.00     0.090 C 
HETATM   20  C5  UNL     1      17.034  16.283  24.784  1.00  0.00     0.153 C 
HETATM   21  C6  UNL     1      16.764  16.903  23.422  1.00  0.00     0.044 C 
HETATM   22  C7  UNL     1      17.445  15.978  22.442  1.00  0.00    -0.035 C 
HETATM   23  C8  UNL     1      18.518  16.672  21.637  1.00  0.00     0.016 C 
HETATM   24  C9  UNL     1      16.424  15.444  21.475  1.00  0.00     0.010 C 
HETATM   25  C13 UNL     1      17.985  14.819  23.227  1.00  0.00     0.034 C 
HETATM   26  C10 UNL     1      16.612  13.955  21.447  1.00  0.00     0.005 C 
HETATM   27  C11 UNL     1      17.673  13.581  22.426  1.00  0.00    -0.011 C 
HETATM   28  C12 UNL     1      18.907  13.136  21.688  1.00  0.00     0.010 C 
BRANCH  19  29
HETATM   29  O2  UNL     1      15.839  14.415  24.000  1.00  0.00    -0.387 OA
ATOM     30  H2  UNL     1      15.656  14.606  23.087  1.00  0.00     0.210 HD
ENDBRANCH  19  29
BRANCH  20  31
HETATM   31  O3  UNL     1      18.277  16.763  25.206  1.00  0.00    -0.393 OA
ATOM     32  H3  UNL     1      18.365  17.702  25.086  1.00  0.00     0.210 HD
ENDBRANCH  20  31
ENDBRANCH  18  19
ENDBRANCH  15  18
ENDBRANCH  13  15
ENDBRANCH  12  13
ENDBRANCH  10  12
ENDBRANCH   1  10
BRANCH   9  33
HETATM   33  C30 UNL     1      22.496  13.576  21.700  1.00  0.00     0.009 C 
HETATM   34  C31 UNL     1      23.001  14.740  21.331  1.00  0.00    -0.089 C 
HETATM   35  C32 UNL     1      24.362  15.220  21.705  1.00  0.00     0.042 C 
HETATM   36  C33 UNL     1      22.111  15.621  20.484  1.00  0.00     0.042 C 
ENDBRANCH   9  33
BRANCH   4  37
HETATM   37  O4  UNL     1      23.200   8.454  21.822  1.00  0.00    -0.274 OA
BRANCH  37  38
HETATM   38  C21 UNL     1      22.393   7.342  21.687  1.00  0.00     0.375 C 
HETATM   39  N2  UNL     1      22.179   6.761  20.420  1.00  0.00    -0.032 NA
HETATM   40  O5  UNL     1      21.873   6.890  22.749  1.00  0.00    -0.242 OA
ENDBRANCH  37  38
ENDBRANCH   4  37
BRANCH   6  41
HETATM   41  C23 UNL     1      26.598  10.229  20.896  1.00  0.00     0.095 C 
BRANCH  41  42
HETATM   42  N3  UNL     1      26.669  10.038  19.505  1.00  0.00    -0.374 N 
HETATM   43  C24 UNL     1      26.841  10.858  18.573  1.00  0.00    -0.016 C 
HETATM   44  C25 UNL     1      26.868  10.321  17.165  1.00  0.00     0.063 C 
ATOM     45  H3  UNL     1      26.563   9.069  19.204  1.00  0.00     0.164 HD
BRANCH  43  46
HETATM   46  C26 UNL     1      27.022  12.327  18.698  1.00  0.00     0.078 C 
BRANCH  46  47
HETATM   47  C27 UNL     1      27.831  12.886  17.544  1.00  0.00     0.169 C 
BRANCH  47  48
HETATM   48  O7  UNL     1      29.120  13.148  18.000  1.00  0.00    -0.401 OA
ATOM     49  H7  UNL     1      29.715  12.538  17.579  1.00  0.00     0.209 HD
ENDBRANCH  47  48
ENDBRANCH  46  47
ENDBRANCH  43  46
ENDBRANCH  41  42
ENDBRANCH   6  41
TORSDOF 17
ENDMDL
MODEL 4
REMARK VINA RESULT: -7.062410655      3.896      6.973
REMARK  17 active torsions:
REMARK  status: ('A' for Active; 'I' for Inactive)
REMARK    1  A    between atoms: O1_2  and  C2_3 
REMARK    2  A    between atoms: C2_3  and  C3_4 
REMARK    3  A    between atoms: C2_3  and  C14_19 
REMARK    4  A    between atoms: C3_4  and  C4_5 
REMARK    5  A    between atoms: C4_5  and  O2_6 
REMARK    6  A    between atoms: C5_8  and  O3_9 
REMARK    7  A    between atoms: C14_19  and  C16_21 
REMARK    8  A    between atoms: C16_21  and  N1_22 
REMARK    9  A    between atoms: N1_22  and  C17_24 
REMARK   10  A    between atoms: C20_27  and  O4_28 
REMARK   11  A    between atoms: O4_28  and  C21_29 
REMARK   12  A    between atoms: C22_33  and  C23_34 
REMARK   13  A    between atoms: C23_34  and  N3_35 
REMARK   14  A    between atoms: C24_37  and  C26_39 
REMARK   15  A    between atoms: C26_39  and  C27_40 
REMARK   16  A    between atoms: C27_40  and  O7_41 
REMARK   17  A    between atoms: C29_45  and  C30_46 
ROOT
HETATM    1  C17 UNL     1      22.847  12.171  23.409  1.00  0.00     0.109 C 
HETATM    2  C18 UNL     1      21.610  11.402  23.684  1.00  0.00     0.039 C 
HETATM    3  C19 UNL     1      20.365  11.835  22.994  1.00  0.00     0.075 C 
HETATM    4  C20 UNL     1      19.191  11.984  23.929  1.00  0.00     0.278 C 
HETATM    5  O6  UNL     1      18.326  12.808  23.168  1.00  0.00    -0.347 OA
HETATM    6  C22 UNL     1      19.186  13.852  22.798  1.00  0.00     0.192 C 
HETATM    7  C28 UNL     1      20.421  13.125  22.274  1.00  0.00     0.165 C 
HETATM    8  O8  UNL     1      21.527  13.897  22.557  1.00  0.00    -0.371 OA
HETATM    9  C29 UNL     1      22.709  13.200  22.311  1.00  0.00     0.167 C 
ENDROOT
BRANCH   1  10
HETATM   10  N1  UNL     1      23.994  11.318  23.194  1.00  0.00    -0.414 N 
ATOM     11  H1  UNL     1      24.909  11.692  22.944  1.00  0.00     0.153 HD
BRANCH  10  12
HETATM   12  C16 UNL     1      23.765   9.926  23.352  1.00  0.00     0.121 C 
BRANCH  12  13
HETATM   13  C14 UNL     1      24.880   9.055  22.856  1.00  0.00     0.028 C 
HETATM   14  C15 UNL     1      25.525   9.769  21.675  1.00  0.00     0.014 C 
BRANCH  13  15
HETATM   15  C2  UNL     1      24.420   7.692  22.376  1.00  0.00     0.129 C 
BRANCH  15  16
HETATM   16  O1  UNL     1      23.053   7.633  22.702  1.00  0.00    -0.390 OA
HETATM   17  C1  UNL     1      22.365   6.977  21.700  1.00  0.00     0.202 C 
ENDBRANCH  15  16
BRANCH  15  18
HETATM   18  C3  UNL     1      25.204   6.594  22.990  1.00  0.00     0.073 C 
BRANCH  18  19
HETATM   19  C4  UNL     1      25.881   5.657  22.056  1.00  0.00     0.090 C 
HETATM   20  C5  UNL     1      26.810   6.328  21.085  1.00  0.00     0.153 C 
HETATM   21  C6  UNL     1      27.623   5.151  20.567  1.00  0.00     0.044 C 
HETATM   22  C7  UNL     1      27.706   4.201  21.737  1.00  0.00    -0.035 C 
HETATM   23  C8  UNL     1      29.128   3.940  22.175  1.00  0.00     0.016 C 
HETATM   24  C9  UNL     1      27.100   2.882  21.347  1.00  0.00     0.010 C 
HETATM   25  C13 UNL     1      26.871   4.782  22.840  1.00  0.00     0.034 C 
HETATM   26  C10 UNL     1      26.130   2.526  22.435  1.00  0.00     0.005 C 
HETATM   27  C11 UNL     1      26.092   3.636  23.432  1.00  0.00    -0.011 C 
HETATM   28  C12 UNL     1      26.748   3.188  24.710  1.00  0.00     0.010 C 
BRANCH  19  29
HETATM   29  O2  UNL     1      25.061   4.785  21.393  1.00  0.00    -0.387 OA
ATOM     30  H2  UNL     1      24.959   3.930  21.795  1.00  0.00     0.210 HD
ENDBRANCH  19  29
BRANCH  20  31
HETATM   31  O3  UNL     1      27.709   7.193  21.715  1.00  0.00    -0.393 OA
ATOM     32  H3  UNL     1      28.504   7.323  21.210  1.00  0.00     0.210 HD
ENDBRANCH  20  31
ENDBRANCH  18  19
ENDBRANCH  15  18
ENDBRANCH  13  15
ENDBRANCH  12  13
ENDBRANCH  10  12
ENDBRANCH   1  10
BRANCH   9  33
HETATM   33  C30 UNL     1      23.835  14.152  22.436  1.00  0.00     0.009 C 
HETATM   34  C31 UNL     1      24.272  14.962  21.488  1.00  0.00    -0.089 C 
HETATM   35  C32 UNL     1      23.685  15.045  20.120  1.00  0.00     0.042 C 
HETATM   36  C33 UNL     1      25.449  15.842  21.845  1.00  0.00     0.042 C 
ENDBRANCH   9  33
BRANCH   4  37
HETATM   37  O4  UNL     1      19.578  12.777  25.031  1.00  0.00    -0.274 OA
BRANCH  37  38
HETATM   38  C21 UNL     1      18.959  12.737  26.265  1.00  0.00     0.375 C 
HETATM   39  N2  UNL     1      18.522  13.925  26.886  1.00  0.00    -0.032 NA
HETATM   40  O5  UNL     1      18.814  11.593  26.786  1.00  0.00    -0.242 OA
ENDBRANCH  37  38
ENDBRANCH   4  37
BRANCH   6  41
HETATM   41  C23 UNL     1      18.553  14.693  21.740  1.00  0.00     0.095 C 
BRANCH  41  42
HETATM   42  N3  UNL     1      19.489  15.549  21.134  1.00  0.00    -0.374 N 
HETATM   43  C24 UNL     1      20.070  16.569  21.572  1.00  0.00    -0.016 C 
HETATM   44  C25 UNL     1      21.034  17.274  20.652  1.00  0.00     0.063 C 
ATOM     45  H3  UNL     1      19.736  15.297  20.177  1.00  0.00     0.164 HD
BRANCH  43  46
HETATM   46  C26 UNL     1      19.913  17.178  22.918  1.00  0.00     0.078 C 
BRANCH  46  47
HETATM   47  C27 UNL     1      21.237  17.237  23.656  1.00  0.00     0.169 C 
BRANCH  47  48
HETATM   48  O7  UNL     1      21.255  16.218  24.604  1.00  0.00    -0.401 OA
ATOM     49  H7  UNL     1      21.199  15.386  24.148  1.00  0.00     0.209 HD
ENDBRANCH  47  48
ENDBRANCH  46  47
ENDBRANCH  43  46
ENDBRANCH  41  42
ENDBRANCH   6  41
TORSDOF 17
ENDMDL
MODEL 5
REMARK VINA RESULT: -7.050133805      2.668      9.433
REMARK  17 active torsions:
REMARK  status: ('A' for Active; 'I' for Inactive)
REMARK    1  A    between atoms: O1_2  and  C2_3 
REMARK    2  A    between atoms: C2_3  and  C3_4 
REMARK    3  A    between atoms: C2_3  and  C14_19 
REMARK    4  A    between atoms: C3_4  and  C4_5 
REMARK    5  A    between atoms: C4_5  and  O2_6 
REMARK    6  A    between atoms: C5_8  and  O3_9 
REMARK    7  A    between atoms: C14_19  and  C16_21 
REMARK    8  A    between atoms: C16_21  and  N1_22 
REMARK    9  A    between atoms: N1_22  and  C17_24 
REMARK   10  A    between atoms: C20_27  and  O4_28 
REMARK   11  A    between atoms: O4_28  and  C21_29 
REMARK   12  A    between atoms: C22_33  and  C23_34 
REMARK   13  A    between atoms: C23_34  and  N3_35 
REMARK   14  A    between atoms: C24_37  and  C26_39 
REMARK   15  A    between atoms: C26_39  and  C27_40 
REMARK   16  A    between atoms: C27_40  and  O7_41 
REMARK   17  A    between atoms: C29_45  and  C30_46 
ROOT
HETATM    1  C17 UNL     1      25.529  11.861  20.355  1.00  0.00     0.109 C 
HETATM    2  C18 UNL     1      25.348  11.308  21.718  1.00  0.00     0.039 C 
HETATM    3  C19 UNL     1      26.062  10.046  22.048  1.00  0.00     0.075 C 
HETATM    4  C20 UNL     1      25.169   9.007  22.678  1.00  0.00     0.278 C 
HETATM    5  O6  UNL     1      25.918   7.823  22.465  1.00  0.00    -0.347 OA
HETATM    6  C22 UNL     1      26.194   7.909  21.093  1.00  0.00     0.192 C 
HETATM    7  C28 UNL     1      26.707   9.335  20.924  1.00  0.00     0.165 C 
HETATM    8  O8  UNL     1      26.337   9.780  19.672  1.00  0.00    -0.371 OA
HETATM    9  C29 UNL     1      26.573  11.146  19.528  1.00  0.00     0.167 C 
ENDROOT
BRANCH   1  10
HETATM   10  N1  UNL     1      25.745  13.290  20.360  1.00  0.00    -0.414 N 
ATOM     11  H1  UNL     1      26.374  13.746  19.699  1.00  0.00     0.153 HD
BRANCH  10  12
HETATM   12  C16 UNL     1      25.026  14.018  21.342  1.00  0.00     0.121 C 
BRANCH  12  13
HETATM   13  C14 UNL     1      24.471  15.325  20.861  1.00  0.00     0.028 C 
HETATM   14  C15 UNL     1      25.153  16.431  21.657  1.00  0.00     0.014 C 
BRANCH  13  15
HETATM   15  C2  UNL     1      22.975  15.464  21.068  1.00  0.00     0.129 C 
BRANCH  15  16
HETATM   16  O1  UNL     1      22.743  16.849  21.137  1.00  0.00    -0.390 OA
HETATM   17  C1  UNL     1      22.106  17.271  19.987  1.00  0.00     0.202 C 
ENDBRANCH  15  16
BRANCH  15  18
HETATM   18  C3  UNL     1      22.512  14.744  22.279  1.00  0.00     0.073 C 
BRANCH  18  19
HETATM   19  C4  UNL     1      21.083  14.339  22.308  1.00  0.00     0.090 C 
HETATM   20  C5  UNL     1      20.760  13.176  21.413  1.00  0.00     0.153 C 
HETATM   21  C6  UNL     1      19.397  12.749  21.934  1.00  0.00     0.044 C 
HETATM   22  C7  UNL     1      19.440  13.061  23.411  1.00  0.00    -0.035 C 
HETATM   23  C8  UNL     1      19.245  11.834  24.270  1.00  0.00     0.016 C 
HETATM   24  C9  UNL     1      18.339  14.030  23.744  1.00  0.00     0.010 C 
HETATM   25  C13 UNL     1      20.749  13.742  23.683  1.00  0.00     0.034 C 
HETATM   26  C10 UNL     1      18.978  15.138  24.529  1.00  0.00     0.005 C 
HETATM   27  C11 UNL     1      20.447  14.889  24.612  1.00  0.00    -0.011 C 
HETATM   28  C12 UNL     1      20.814  14.505  26.021  1.00  0.00     0.010 C 
BRANCH  19  29
HETATM   29  O2  UNL     1      20.177  15.346  22.111  1.00  0.00    -0.387 OA
ATOM     30  H2  UNL     1      19.264  15.102  22.206  1.00  0.00     0.210 HD
ENDBRANCH  19  29
BRANCH  20  31
HETATM   31  O3  UNL     1      21.624  12.094  21.609  1.00  0.00    -0.393 OA
ATOM     32  H3  UNL     1      21.158  11.277  21.749  1.00  0.00     0.210 HD
ENDBRANCH  20  31
ENDBRANCH  18  19
ENDBRANCH  15  18
ENDBRANCH  13  15
ENDBRANCH  12  13
ENDBRANCH  10  12
ENDBRANCH   1  10
BRANCH   9  33
HETATM   33  C30 UNL     1      26.350  11.500  18.109  1.00  0.00     0.009 C 
HETATM   34  C31 UNL     1      27.104  12.308  17.386  1.00  0.00    -0.089 C 
HETATM   35  C32 UNL     1      28.322  13.001  17.897  1.00  0.00     0.042 C 
HETATM   36  C33 UNL     1      26.672  12.530  15.954  1.00  0.00     0.042 C 
ENDBRANCH   9  33
BRANCH   4  37
HETATM   37  O4  UNL     1      24.010   8.855  21.886  1.00  0.00    -0.274 OA
BRANCH  37  38
HETATM   38  C21 UNL     1      22.743   8.662  22.402  1.00  0.00     0.375 C 
HETATM   39  N2  UNL     1      22.142   7.388  22.367  1.00  0.00    -0.032 NA
HETATM   40  O5  UNL     1      22.175   9.680  22.896  1.00  0.00    -0.242 OA
ENDBRANCH  37  38
ENDBRANCH   4  37
BRANCH   6  41
HETATM   41  C23 UNL     1      27.228   6.903  20.711  1.00  0.00     0.095 C 
BRANCH  41  42
HETATM   42  N3  UNL     1      27.164   5.761  21.528  1.00  0.00    -0.374 N 
HETATM   43  C24 UNL     1      28.012   4.867  21.755  1.00  0.00    -0.016 C 
HETATM   44  C25 UNL     1      27.623   3.758  22.699  1.00  0.00     0.063 C 
ATOM     45  H3  UNL     1      26.277   5.640  22.018  1.00  0.00     0.164 HD
BRANCH  43  46
HETATM   46  C26 UNL     1      29.382   4.771  21.189  1.00  0.00     0.078 C 
BRANCH  46  47
HETATM   47  C27 UNL     1      30.232   3.780  21.960  1.00  0.00     0.169 C 
BRANCH  47  48
HETATM   48  O7  UNL     1      31.571   4.105  21.763  1.00  0.00    -0.401 OA
ATOM     49  H7  UNL     1      31.935   3.496  21.131  1.00  0.00     0.209 HD
ENDBRANCH  47  48
ENDBRANCH  46  47
ENDBRANCH  43  46
ENDBRANCH  41  42
ENDBRANCH   6  41
TORSDOF 17
ENDMDL
