MODEL 1
REMARK VINA RESULT: -7.137421495      0.000      0.000
REMARK  22 active torsions:
REMARK  status: ('A' for Active; 'I' for Inactive)
REMARK    1  A    between atoms: C2_2  and  C3_3 
REMARK    2  A    between atoms: C9_10  and  O2_11 
REMARK    3  A    between atoms: C9_10  and  C10_13 
REMARK    4  A    between atoms: C10_13  and  O3_14 
REMARK    5  A    between atoms: C10_13  and  C11_16 
REMARK    6  A    between atoms: C11_16  and  C13_18 
REMARK    7  A    between atoms: C13_18  and  C15_20 
REMARK    8  A    between atoms: C15_20  and  C16_21 
REMARK    9  A    between atoms: C15_20  and  C31_43 
REMARK   10  A    between atoms: C16_21  and  C17_22 
REMARK   11  A    between atoms: C17_22  and  C18_23 
REMARK   12  A    between atoms: C18_23  and  C20_25 
REMARK   13  A    between atoms: C20_25  and  C21_26 
REMARK   14  A    between atoms: C21_26  and  C22_27 
REMARK   15  A    between atoms: C22_27  and  C23_28 
REMARK   16  A    between atoms: C23_28  and  C25_31 
REMARK   17  A    between atoms: C27_33  and  O4_34 
REMARK   18  A    between atoms: C28_36  and  O5_37 
REMARK   19  A    between atoms: C31_43  and  C32_44 
REMARK   20  A    between atoms: C32_44  and  O8_45 
REMARK   21  A    between atoms: C32_44  and  C33_47 
REMARK   22  A    between atoms: C33_47  and  O9_50 
ROOT
HETATM    1  C23 UNL     1      21.909  11.613  22.846  1.00  0.00     0.144 C 
HETATM    2  C24 UNL     1      20.962  11.353  23.934  1.00  0.00     0.070 C 
HETATM    3  N1  UNL     1      20.206  11.161  24.785  1.00  0.00    -0.197 NA
ENDROOT
BRANCH   1   4
HETATM    4  C22 UNL     1      23.304  11.446  23.270  1.00  0.00    -0.005 C 
BRANCH   4   5
HETATM    5  C21 UNL     1      24.154  10.538  22.831  1.00  0.00    -0.002 C 
BRANCH   5   6
HETATM    6  C20 UNL     1      25.339  10.825  22.088  1.00  0.00     0.006 C 
BRANCH   6   7
HETATM    7  C18 UNL     1      26.325   9.968  21.954  1.00  0.00    -0.062 C 
HETATM    8  C19 UNL     1      27.762  10.282  22.048  1.00  0.00     0.048 C 
BRANCH   7   9
HETATM    9  C17 UNL     1      25.999   8.525  21.677  1.00  0.00     0.007 C 
BRANCH   9  10
HETATM   10  C16 UNL     1      26.915   7.631  21.861  1.00  0.00     0.008 C 
BRANCH  10  11
HETATM   11  C15 UNL     1      26.811   6.272  22.396  1.00  0.00    -0.055 C 
BRANCH  11  12
HETATM   12  C13 UNL     1      26.949   5.033  21.634  1.00  0.00     0.021 C 
HETATM   13  C14 UNL     1      28.340   4.484  21.691  1.00  0.00     0.015 C 
BRANCH  12  14
HETATM   14  C11 UNL     1      26.374   5.032  20.262  1.00  0.00     0.024 C 
HETATM   15  C12 UNL     1      27.364   4.929  19.196  1.00  0.00     0.013 C 
BRANCH  14  16
HETATM   16  C10 UNL     1      25.271   3.953  20.201  1.00  0.00     0.185 C 
BRANCH  16  17
HETATM   17  C9  UNL     1      23.896   4.468  19.996  1.00  0.00     0.196 C 
HETATM   18  C3  UNL     1      23.543   5.850  20.343  1.00  0.00     0.073 C 
HETATM   19  C4  UNL     1      22.339   6.204  19.449  1.00  0.00    -0.018 C 
HETATM   20  C5  UNL     1      21.588   5.247  19.009  1.00  0.00     0.007 C 
HETATM   21  C6  UNL     1      21.792   3.807  19.298  1.00  0.00     0.075 C 
HETATM   22  C7  UNL     1      20.575   3.366  20.125  1.00  0.00     0.050 C 
HETATM   23  C8  UNL     1      21.708   3.055  17.983  1.00  0.00     0.050 C 
HETATM   24  O1  UNL     1      22.909   3.548  20.011  1.00  0.00    -0.338 OA
BRANCH  18  25
HETATM   25  C2  UNL     1      23.091   6.255  21.692  1.00  0.00     0.009 C 
HETATM   26  C1  UNL     1      22.386   7.528  21.891  1.00  0.00     0.006 C 
ENDBRANCH  18  25
BRANCH  17  27
HETATM   27  O2  UNL     1      23.915   4.670  18.447  1.00  0.00    -0.363 OA
ATOM     28  H2  UNL     1      24.367   3.862  18.236  1.00  0.00     0.213 HD
ENDBRANCH  17  27
ENDBRANCH  16  17
BRANCH  16  29
HETATM   29  O3  UNL     1      25.308   3.554  21.614  1.00  0.00    -0.390 OA
ATOM     30  H3  UNL     1      25.270   2.606  21.595  1.00  0.00     0.210 HD
ENDBRANCH  16  29
ENDBRANCH  14  16
ENDBRANCH  12  14
ENDBRANCH  11  12
BRANCH  11  31
HETATM   31  C31 UNL     1      26.634   6.236  23.734  1.00  0.00     0.015 C 
BRANCH  31  32
HETATM   32  C32 UNL     1      25.454   5.943  24.505  1.00  0.00     0.175 C 
BRANCH  32  33
HETATM   33  O8  UNL     1      24.829   7.209  24.769  1.00  0.00    -0.389 OA
ATOM     34  H8  UNL     1      23.899   7.030  24.854  1.00  0.00     0.210 HD
ENDBRANCH  32  33
BRANCH  32  35
HETATM   35  C33 UNL     1      25.765   5.383  25.889  1.00  0.00     0.080 C 
HETATM   36  C34 UNL     1      24.482   5.322  26.691  1.00  0.00     0.048 C 
HETATM   37  C35 UNL     1      26.295   3.962  25.790  1.00  0.00     0.048 C 
BRANCH  35  38
HETATM   38  O9  UNL     1      26.686   6.171  26.559  1.00  0.00    -0.388 OA
ATOM     39  H9  UNL     1      27.521   5.728  26.649  1.00  0.00     0.210 HD
ENDBRANCH  35  38
ENDBRANCH  32  35
ENDBRANCH  31  32
ENDBRANCH  11  31
ENDBRANCH  10  11
ENDBRANCH   9  10
ENDBRANCH   7   9
ENDBRANCH   6   7
ENDBRANCH   5   6
ENDBRANCH   4   5
ENDBRANCH   1   4
BRANCH   1  40
HETATM   40  C25 UNL     1      21.714  13.018  22.313  1.00  0.00     0.148 C 
HETATM   41  C26 UNL     1      20.499  13.107  21.414  1.00  0.00     0.068 C 
HETATM   42  C27 UNL     1      19.815  14.446  21.514  1.00  0.00     0.152 C 
HETATM   43  C28 UNL     1      20.475  15.503  20.646  1.00  0.00     0.180 C 
HETATM   44  C29 UNL     1      21.812  14.991  20.253  1.00  0.00     0.211 A 
HETATM   45  O6  UNL     1      22.990  15.626  20.485  1.00  0.00    -0.346 OA
HETATM   46  C30 UNL     1      22.628  14.880  21.552  1.00  0.00     0.292 A 
HETATM   47  O7  UNL     1      22.862  13.532  21.714  1.00  0.00    -0.352 OA
BRANCH  42  48
HETATM   48  O4  UNL     1      18.505  14.288  21.063  1.00  0.00    -0.393 OA
ATOM     49  H4  UNL     1      17.968  14.937  21.502  1.00  0.00     0.210 HD
ENDBRANCH  42  48
BRANCH  43  50
HETATM   50  O5  UNL     1      20.667  16.625  21.485  1.00  0.00    -0.390 OA
ATOM     51  H5  UNL     1      21.588  16.617  21.720  1.00  0.00     0.210 HD
ENDBRANCH  43  50
ENDBRANCH   1  40
TORSDOF 22
ENDMDL
MODEL 2
REMARK VINA RESULT: -7.133726788      1.827      3.317
REMARK  22 active torsions:
REMARK  status: ('A' for Active; 'I' for Inactive)
REMARK    1  A    between atoms: C2_2  and  C3_3 
REMARK    2  A    between atoms: C9_10  and  O2_11 
REMARK    3  A    between atoms: C9_10  and  C10_13 
REMARK    4  A    between atoms: C10_13  and  O3_14 
REMARK    5  A    between atoms: C10_13  and  C11_16 
REMARK    6  A    between atoms: C11_16  and  C13_18 
REMARK    7  A    between atoms: C13_18  and  C15_20 
REMARK    8  A    between atoms: C15_20  and  C16_21 
REMARK    9  A    between atoms: C15_20  and  C31_43 
REMARK   10  A    between atoms: C16_21  and  C17_22 
REMARK   11  A    between atoms: C17_22  and  C18_23 
REMARK   12  A    between atoms: C18_23  and  C20_25 
REMARK   13  A    between atoms: C20_25  and  C21_26 
REMARK   14  A    between atoms: C21_26  and  C22_27 
REMARK   15  A    between atoms: C22_27  and  C23_28 
REMARK   16  A    between atoms: C23_28  and  C25_31 
REMARK   17  A    between atoms: C27_33  and  O4_34 
REMARK   18  A    between atoms: C28_36  and  O5_37 
REMARK   19  A    between atoms: C31_43  and  C32_44 
REMARK   20  A    between atoms: C32_44  and  O8_45 
REMARK   21  A    between atoms: C32_44  and  C33_47 
REMARK   22  A    between atoms: C33_47  and  O9_50 
ROOT
HETATM    1  C23 UNL     1      20.297  14.216  23.608  1.00  0.00     0.144 C 
HETATM    2  C24 UNL     1      20.856  14.659  24.889  1.00  0.00     0.070 C 
HETATM    3  N1  UNL     1      21.305  15.020  25.889  1.00  0.00    -0.197 NA
ENDROOT
BRANCH   1   4
HETATM    4  C22 UNL     1      20.296  12.755  23.476  1.00  0.00    -0.005 C 
BRANCH   4   5
HETATM    5  C21 UNL     1      21.334  11.954  23.620  1.00  0.00    -0.002 C 
BRANCH   5   6
HETATM    6  C20 UNL     1      22.027  11.319  22.544  1.00  0.00     0.006 C 
BRANCH   6   7
HETATM    7  C18 UNL     1      23.244  10.839  22.662  1.00  0.00    -0.062 C 
HETATM    8  C19 UNL     1      24.468  11.632  22.877  1.00  0.00     0.048 C 
BRANCH   7   9
HETATM    9  C17 UNL     1      23.448   9.351  22.574  1.00  0.00     0.007 C 
BRANCH   9  10
HETATM   10  C16 UNL     1      24.263   8.782  23.401  1.00  0.00     0.008 C 
BRANCH  10  11
HETATM   11  C15 UNL     1      25.330   7.809  23.155  1.00  0.00    -0.055 C 
BRANCH  11  12
HETATM   12  C13 UNL     1      26.432   7.961  22.208  1.00  0.00     0.021 C 
HETATM   13  C14 UNL     1      27.249   9.185  22.482  1.00  0.00     0.015 C 
BRANCH  12  14
HETATM   14  C11 UNL     1      26.098   7.790  20.769  1.00  0.00     0.024 C 
HETATM   15  C12 UNL     1      26.351   8.968  19.949  1.00  0.00     0.013 C 
BRANCH  14  16
HETATM   16  C10 UNL     1      26.797   6.509  20.261  1.00  0.00     0.185 C 
BRANCH  16  17
HETATM   17  C9  UNL     1      25.967   5.281  20.299  1.00  0.00     0.196 C 
HETATM   18  C3  UNL     1      24.536   5.321  19.978  1.00  0.00     0.073 C 
HETATM   19  C4  UNL     1      24.182   3.899  19.499  1.00  0.00    -0.018 C 
HETATM   20  C5  UNL     1      24.909   2.909  19.902  1.00  0.00     0.007 C 
HETATM   21  C6  UNL     1      26.080   3.026  20.803  1.00  0.00     0.075 C 
HETATM   22  C7  UNL     1      25.695   2.286  22.093  1.00  0.00     0.050 C 
HETATM   23  C8  UNL     1      27.220   2.239  20.185  1.00  0.00     0.050 C 
HETATM   24  O1  UNL     1      26.397   4.300  21.119  1.00  0.00    -0.338 OA
BRANCH  18  25
HETATM   25  C2  UNL     1      23.489   5.608  20.984  1.00  0.00     0.009 C 
HETATM   26  C1  UNL     1      22.315   6.416  20.628  1.00  0.00     0.006 C 
ENDBRANCH  18  25
BRANCH  17  27
HETATM   27  O2  UNL     1      26.431   4.605  18.970  1.00  0.00    -0.363 OA
ATOM     28  H2  UNL     1      26.718   5.400  18.536  1.00  0.00     0.213 HD
ENDBRANCH  17  27
ENDBRANCH  16  17
BRANCH  16  29
HETATM   29  O3  UNL     1      27.744   6.348  21.372  1.00  0.00    -0.390 OA
ATOM     30  H3  UNL     1      27.792   7.209  21.770  1.00  0.00     0.210 HD
ENDBRANCH  16  29
ENDBRANCH  14  16
ENDBRANCH  12  14
ENDBRANCH  11  12
BRANCH  11  31
HETATM   31  C31 UNL     1      25.260   6.724  23.956  1.00  0.00     0.015 C 
BRANCH  31  32
HETATM   32  C32 UNL     1      26.296   6.044  24.687  1.00  0.00     0.175 C 
BRANCH  32  33
HETATM   33  O8  UNL     1      26.854   5.081  23.781  1.00  0.00    -0.389 OA
ATOM     34  H8  UNL     1      27.763   5.331  23.659  1.00  0.00     0.210 HD
ENDBRANCH  32  33
BRANCH  32  35
HETATM   35  C33 UNL     1      25.763   5.206  25.845  1.00  0.00     0.080 C 
HETATM   36  C34 UNL     1      26.108   3.753  25.595  1.00  0.00     0.048 C 
HETATM   37  C35 UNL     1      26.429   5.604  27.152  1.00  0.00     0.048 C 
BRANCH  35  38
HETATM   38  O9  UNL     1      24.390   5.335  25.972  1.00  0.00    -0.388 OA
ATOM     39  H9  UNL     1      24.020   4.622  26.480  1.00  0.00     0.210 HD
ENDBRANCH  35  38
ENDBRANCH  32  35
ENDBRANCH  31  32
ENDBRANCH  11  31
ENDBRANCH  10  11
ENDBRANCH   9  10
ENDBRANCH   7   9
ENDBRANCH   6   7
ENDBRANCH   5   6
ENDBRANCH   4   5
ENDBRANCH   1   4
BRANCH   1  40
HETATM   40  C25 UNL     1      21.083  14.821  22.462  1.00  0.00     0.148 C 
HETATM   41  C26 UNL     1      22.455  15.277  22.910  1.00  0.00     0.068 C 
HETATM   42  C27 UNL     1      23.489  15.121  21.824  1.00  0.00     0.152 C 
HETATM   43  C28 UNL     1      23.478  16.278  20.840  1.00  0.00     0.180 C 
HETATM   44  C29 UNL     1      22.208  17.021  21.035  1.00  0.00     0.211 A 
HETATM   45  O6  UNL     1      21.290  17.265  20.063  1.00  0.00    -0.346 OA
HETATM   46  C30 UNL     1      21.080  16.056  20.630  1.00  0.00     0.292 A 
HETATM   47  O7  UNL     1      20.379  15.819  21.792  1.00  0.00    -0.352 OA
BRANCH  42  48
HETATM   48  O4  UNL     1      24.743  15.097  22.434  1.00  0.00    -0.393 OA
ATOM     49  H4  UNL     1      25.193  15.900  22.198  1.00  0.00     0.210 HD
ENDBRANCH  42  48
BRANCH  43  50
HETATM   50  O5  UNL     1      23.447  15.689  19.555  1.00  0.00    -0.390 OA
ATOM     51  H5  UNL     1      23.438  16.413  18.940  1.00  0.00     0.210 HD
ENDBRANCH  43  50
ENDBRANCH   1  40
TORSDOF 22
ENDMDL
MODEL 3
REMARK VINA RESULT: -7.094224193      3.018     10.372
REMARK  22 active torsions:
REMARK  status: ('A' for Active; 'I' for Inactive)
REMARK    1  A    between atoms: C2_2  and  C3_3 
REMARK    2  A    between atoms: C9_10  and  O2_11 
REMARK    3  A    between atoms: C9_10  and  C10_13 
REMARK    4  A    between atoms: C10_13  and  O3_14 
REMARK    5  A    between atoms: C10_13  and  C11_16 
REMARK    6  A    between atoms: C11_16  and  C13_18 
REMARK    7  A    between atoms: C13_18  and  C15_20 
REMARK    8  A    between atoms: C15_20  and  C16_21 
REMARK    9  A    between atoms: C15_20  and  C31_43 
REMARK   10  A    between atoms: C16_21  and  C17_22 
REMARK   11  A    between atoms: C17_22  and  C18_23 
REMARK   12  A    between atoms: C18_23  and  C20_25 
REMARK   13  A    between atoms: C20_25  and  C21_26 
REMARK   14  A    between atoms: C21_26  and  C22_27 
REMARK   15  A    between atoms: C22_27  and  C23_28 
REMARK   16  A    between atoms: C23_28  and  C25_31 
REMARK   17  A    between atoms: C27_33  and  O4_34 
REMARK   18  A    between atoms: C28_36  and  O5_37 
REMARK   19  A    between atoms: C31_43  and  C32_44 
REMARK   20  A    between atoms: C32_44  and  O8_45 
REMARK   21  A    between atoms: C32_44  and  C33_47 
REMARK   22  A    between atoms: C33_47  and  O9_50 
ROOT
HETATM    1  C23 UNL     1      26.927   7.342  21.895  1.00  0.00     0.144 C 
HETATM    2  C24 UNL     1      27.569   8.612  22.251  1.00  0.00     0.070 C 
HETATM    3  N1  UNL     1      28.080   9.603  22.547  1.00  0.00    -0.197 NA
ENDROOT
BRANCH   1   4
HETATM    4  C22 UNL     1      25.604   7.538  21.293  1.00  0.00    -0.005 C 
BRANCH   4   5
HETATM    5  C21 UNL     1      24.892   8.649  21.305  1.00  0.00    -0.002 C 
BRANCH   5   6
HETATM    6  C20 UNL     1      24.146   9.124  22.427  1.00  0.00     0.006 C 
BRANCH   6   7
HETATM    7  C18 UNL     1      22.842   9.001  22.522  1.00  0.00    -0.062 C 
HETATM    8  C19 UNL     1      22.091   7.733  22.510  1.00  0.00     0.048 C 
BRANCH   7   9
HETATM    9  C17 UNL     1      22.004  10.244  22.656  1.00  0.00     0.007 C 
BRANCH   9  10
HETATM   10  C16 UNL     1      22.423  11.201  23.417  1.00  0.00     0.008 C 
BRANCH  10  11
HETATM   11  C15 UNL     1      22.365  12.652  23.225  1.00  0.00    -0.055 C 
BRANCH  11  12
HETATM   12  C13 UNL     1      21.239  13.521  23.559  1.00  0.00     0.021 C 
HETATM   13  C14 UNL     1      20.477  13.952  22.346  1.00  0.00     0.015 C 
BRANCH  12  14
HETATM   14  C11 UNL     1      21.520  14.636  24.502  1.00  0.00     0.024 C 
HETATM   15  C12 UNL     1      21.124  15.951  24.012  1.00  0.00     0.013 C 
BRANCH  14  16
HETATM   16  C10 UNL     1      20.918  14.270  25.877  1.00  0.00     0.185 C 
BRANCH  16  17
HETATM   17  C9  UNL     1      19.486  13.884  25.854  1.00  0.00     0.196 C 
HETATM   18  C3  UNL     1      19.071  12.494  26.075  1.00  0.00     0.073 C 
HETATM   19  C4  UNL     1      17.628  12.577  26.611  1.00  0.00    -0.018 C 
HETATM   20  C5  UNL     1      16.914  13.614  26.318  1.00  0.00     0.007 C 
HETATM   21  C6  UNL     1      17.374  14.756  25.492  1.00  0.00     0.075 C 
HETATM   22  C7  UNL     1      16.507  14.738  24.225  1.00  0.00     0.050 C 
HETATM   23  C8  UNL     1      17.021  16.033  26.231  1.00  0.00     0.050 C 
HETATM   24  O1  UNL     1      18.670  14.673  25.124  1.00  0.00    -0.338 OA
BRANCH  18  25
HETATM   25  C2  UNL     1      18.968  11.498  24.986  1.00  0.00     0.009 C 
HETATM   26  C1  UNL     1      19.396  10.110  25.203  1.00  0.00     0.006 C 
ENDBRANCH  18  25
BRANCH  17  27
HETATM   27  O2  UNL     1      19.042  14.429  27.250  1.00  0.00    -0.363 OA
ATOM     28  H2  UNL     1      19.913  14.493  27.625  1.00  0.00     0.213 HD
ENDBRANCH  17  27
ENDBRANCH  16  17
BRANCH  16  29
HETATM   29  O3  UNL     1      20.926  15.618  26.461  1.00  0.00    -0.390 OA
ATOM     30  H3  UNL     1      21.414  15.523  27.270  1.00  0.00     0.210 HD
ENDBRANCH  16  29
ENDBRANCH  14  16
ENDBRANCH  12  14
ENDBRANCH  11  12
BRANCH  11  31
HETATM   31  C31 UNL     1      23.516  13.175  22.749  1.00  0.00     0.015 C 
BRANCH  31  32
HETATM   32  C32 UNL     1      24.125  13.047  21.451  1.00  0.00     0.175 C 
BRANCH  32  33
HETATM   33  O8  UNL     1      25.370  12.365  21.662  1.00  0.00    -0.389 OA
ATOM     34  H8  UNL     1      25.636  12.035  20.811  1.00  0.00     0.210 HD
ENDBRANCH  32  33
BRANCH  32  35
HETATM   35  C33 UNL     1      24.529  14.386  20.843  1.00  0.00     0.080 C 
HETATM   36  C34 UNL     1      23.309  15.024  20.213  1.00  0.00     0.048 C 
HETATM   37  C35 UNL     1      25.026  15.340  21.918  1.00  0.00     0.048 C 
BRANCH  35  38
HETATM   38  O9  UNL     1      25.511  14.229  19.880  1.00  0.00    -0.388 OA
ATOM     39  H9  UNL     1      25.399  14.847  19.166  1.00  0.00     0.210 HD
ENDBRANCH  35  38
ENDBRANCH  32  35
ENDBRANCH  31  32
ENDBRANCH  11  31
ENDBRANCH  10  11
ENDBRANCH   9  10
ENDBRANCH   7   9
ENDBRANCH   6   7
ENDBRANCH   5   6
ENDBRANCH   4   5
ENDBRANCH   1   4
BRANCH   1  40
HETATM   40  C25 UNL     1      26.793   6.466  23.124  1.00  0.00     0.148 C 
HETATM   41  C26 UNL     1      26.030   5.195  22.818  1.00  0.00     0.068 C 
HETATM   42  C27 UNL     1      26.519   4.027  23.635  1.00  0.00     0.152 C 
HETATM   43  C28 UNL     1      25.916   3.997  25.029  1.00  0.00     0.180 C 
HETATM   44  C29 UNL     1      25.317   5.332  25.287  1.00  0.00     0.211 A 
HETATM   45  O6  UNL     1      25.629   6.137  26.335  1.00  0.00    -0.346 OA
HETATM   46  C30 UNL     1      26.487   6.330  25.307  1.00  0.00     0.292 A 
HETATM   47  O7  UNL     1      26.276   7.150  24.221  1.00  0.00    -0.352 OA
BRANCH  42  48
HETATM   48  O4  UNL     1      26.128   2.859  22.982  1.00  0.00    -0.393 OA
ATOM     49  H4  UNL     1      26.759   2.689  22.292  1.00  0.00     0.210 HD
ENDBRANCH  42  48
BRANCH  43  50
HETATM   50  O5  UNL     1      27.004   3.829  25.915  1.00  0.00    -0.390 OA
ATOM     51  H5  UNL     1      26.622   3.760  26.782  1.00  0.00     0.210 HD
ENDBRANCH  43  50
ENDBRANCH   1  40
TORSDOF 22
ENDMDL
MODEL 4
REMARK VINA RESULT: -6.978161243      1.816      2.420
REMARK  22 active torsions:
REMARK  status: ('A' for Active; 'I' for Inactive)
REMARK    1  A    between atoms: C2_2  and  C3_3 
REMARK    2  A    between atoms: C9_10  and  O2_11 
REMARK    3  A    between atoms: C9_10  and  C10_13 
REMARK    4  A    between atoms: C10_13  and  O3_14 
REMARK    5  A    between atoms: C10_13  and  C11_16 
REMARK    6  A    between atoms: C11_16  and  C13_18 
REMARK    7  A    between atoms: C13_18  and  C15_20 
REMARK    8  A    between atoms: C15_20  and  C16_21 
REMARK    9  A    between atoms: C15_20  and  C31_43 
REMARK   10  A    between atoms: C16_21  and  C17_22 
REMARK   11  A    between atoms: C17_22  and  C18_23 
REMARK   12  A    between atoms: C18_23  and  C20_25 
REMARK   13  A    between atoms: C20_25  and  C21_26 
REMARK   14  A    between atoms: C21_26  and  C22_27 
REMARK   15  A    between atoms: C22_27  and  C23_28 
REMARK   16  A    between atoms: C23_28  and  C25_31 
REMARK   17  A    between atoms: C27_33  and  O4_34 
REMARK   18  A    between atoms: C28_36  and  O5_37 
REMARK   19  A    between atoms: C31_43  and  C32_44 
REMARK   20  A    between atoms: C32_44  and  O8_45 
REMARK   21  A    between atoms: C32_44  and  C33_47 
REMARK   22  A    between atoms: C33_47  and  O9_50 
ROOT
HETATM    1  C23 UNL     1      24.340  14.838  22.376  1.00  0.00     0.144 C 
HETATM    2  C24 UNL     1      24.643  14.530  20.975  1.00  0.00     0.070 C 
HETATM    3  N1  UNL     1      24.867  14.295  19.867  1.00  0.00    -0.197 NA
ENDROOT
BRANCH   1   4
HETATM    4  C22 UNL     1      24.725  13.749  23.281  1.00  0.00    -0.005 C 
BRANCH   4   5
HETATM    5  C21 UNL     1      24.386  12.479  23.170  1.00  0.00    -0.002 C 
BRANCH   5   6
HETATM    6  C20 UNL     1      25.253  11.443  22.707  1.00  0.00     0.006 C 
BRANCH   6   7
HETATM    7  C18 UNL     1      24.836  10.228  22.437  1.00  0.00    -0.062 C 
HETATM    8  C19 UNL     1      23.529   9.660  22.815  1.00  0.00     0.048 C 
BRANCH   7   9
HETATM    9  C17 UNL     1      25.745   9.301  21.677  1.00  0.00     0.007 C 
BRANCH   9  10
HETATM   10  C16 UNL     1      26.454   8.443  22.334  1.00  0.00     0.008 C 
BRANCH  10  11
HETATM   11  C15 UNL     1      26.186   7.036  22.641  1.00  0.00    -0.055 C 
BRANCH  11  12
HETATM   12  C13 UNL     1      26.406   5.902  21.746  1.00  0.00     0.021 C 
HETATM   13  C14 UNL     1      27.846   5.499  21.686  1.00  0.00     0.015 C 
BRANCH  12  14
HETATM   14  C11 UNL     1      25.763   5.980  20.407  1.00  0.00     0.024 C 
HETATM   15  C12 UNL     1      26.667   6.355  19.327  1.00  0.00     0.013 C 
BRANCH  14  16
HETATM   16  C10 UNL     1      25.003   4.658  20.160  1.00  0.00     0.185 C 
BRANCH  16  17
HETATM   17  C9  UNL     1      23.590   4.813  19.738  1.00  0.00     0.196 C 
HETATM   18  C3  UNL     1      22.992   6.142  19.559  1.00  0.00     0.073 C 
HETATM   19  C4  UNL     1      21.839   5.942  18.556  1.00  0.00    -0.018 C 
HETATM   20  C5  UNL     1      21.294   4.773  18.461  1.00  0.00     0.007 C 
HETATM   21  C6  UNL     1      21.693   3.583  19.249  1.00  0.00     0.075 C 
HETATM   22  C7  UNL     1      20.487   3.241  20.137  1.00  0.00     0.050 C 
HETATM   23  C8  UNL     1      21.855   2.422  18.285  1.00  0.00     0.050 C 
HETATM   24  O1  UNL     1      22.763   3.792  20.045  1.00  0.00    -0.338 OA
BRANCH  18  25
HETATM   25  C2  UNL     1      22.354   6.898  20.659  1.00  0.00     0.009 C 
HETATM   26  C1  UNL     1      22.046   6.238  21.934  1.00  0.00     0.006 C 
ENDBRANCH  18  25
BRANCH  17  27
HETATM   27  O2  UNL     1      23.726   4.470  18.220  1.00  0.00    -0.363 OA
ATOM     28  H2  UNL     1      23.771   3.527  18.325  1.00  0.00     0.213 HD
ENDBRANCH  17  27
ENDBRANCH  16  17
BRANCH  16  29
HETATM   29  O3  UNL     1      24.923   4.213  21.557  1.00  0.00    -0.390 OA
ATOM     30  H3  UNL     1      23.992   4.170  21.740  1.00  0.00     0.210 HD
ENDBRANCH  16  29
ENDBRANCH  14  16
ENDBRANCH  12  14
ENDBRANCH  11  12
BRANCH  11  31
HETATM   31  C31 UNL     1      25.757   6.837  23.906  1.00  0.00     0.015 C 
BRANCH  31  32
HETATM   32  C32 UNL     1      25.170   5.670  24.512  1.00  0.00     0.175 C 
BRANCH  32  33
HETATM   33  O8  UNL     1      23.788   5.991  24.732  1.00  0.00    -0.389 OA
ATOM     34  H8  UNL     1      23.682   6.062  25.674  1.00  0.00     0.210 HD
ENDBRANCH  32  33
BRANCH  32  35
HETATM   35  C33 UNL     1      25.715   5.381  25.907  1.00  0.00     0.080 C 
HETATM   36  C34 UNL     1      24.562   5.364  26.888  1.00  0.00     0.048 C 
HETATM   37  C35 UNL     1      26.364   4.007  25.959  1.00  0.00     0.048 C 
BRANCH  35  38
HETATM   38  O9  UNL     1      26.635   6.339  26.300  1.00  0.00    -0.388 OA
ATOM     39  H9  UNL     1      26.463   7.176  25.885  1.00  0.00     0.210 HD
ENDBRANCH  35  38
ENDBRANCH  32  35
ENDBRANCH  31  32
ENDBRANCH  11  31
ENDBRANCH  10  11
ENDBRANCH   9  10
ENDBRANCH   7   9
ENDBRANCH   6   7
ENDBRANCH   5   6
ENDBRANCH   4   5
ENDBRANCH   1   4
BRANCH   1  40
HETATM   40  C25 UNL     1      22.860  15.120  22.536  1.00  0.00     0.148 C 
HETATM   41  C26 UNL     1      22.446  16.360  21.771  1.00  0.00     0.068 C 
HETATM   42  C27 UNL     1      21.041  16.253  21.234  1.00  0.00     0.152 C 
HETATM   43  C28 UNL     1      19.992  16.603  22.275  1.00  0.00     0.180 C 
HETATM   44  C29 UNL     1      20.653  16.582  23.604  1.00  0.00     0.211 A 
HETATM   45  O6  UNL     1      20.258  15.824  24.660  1.00  0.00    -0.346 OA
HETATM   46  C30 UNL     1      21.081  15.125  23.847  1.00  0.00     0.292 A 
HETATM   47  O7  UNL     1      22.458  15.155  23.870  1.00  0.00    -0.352 OA
BRANCH  42  48
HETATM   48  O4  UNL     1      20.918  17.166  20.187  1.00  0.00    -0.393 OA
ATOM     49  H4  UNL     1      20.008  17.439  20.148  1.00  0.00     0.210 HD
ENDBRANCH  42  48
BRANCH  43  50
HETATM   50  O5  UNL     1      19.050  15.550  22.240  1.00  0.00    -0.390 OA
ATOM     51  H5  UNL     1      19.216  15.082  21.430  1.00  0.00     0.210 HD
ENDBRANCH  43  50
ENDBRANCH   1  40
TORSDOF 22
ENDMDL
MODEL 5
REMARK VINA RESULT: -6.909956374      2.780     10.474
REMARK  22 active torsions:
REMARK  status: ('A' for Active; 'I' for Inactive)
REMARK    1  A    between atoms: C2_2  and  C3_3 
REMARK    2  A    between atoms: C9_10  and  O2_11 
REMARK    3  A    between atoms: C9_10  and  C10_13 
REMARK    4  A    between atoms: C10_13  and  O3_14 
REMARK    5  A    between atoms: C10_13  and  C11_16 
REMARK    6  A    between atoms: C11_16  and  C13_18 
REMARK    7  A    between atoms: C13_18  and  C15_20 
REMARK    8  A    between atoms: C15_20  and  C16_21 
REMARK    9  A    between atoms: C15_20  and  C31_43 
REMARK   10  A    between atoms: C16_21  and  C17_22 
REMARK   11  A    between atoms: C17_22  and  C18_23 
REMARK   12  A    between atoms: C18_23  and  C20_25 
REMARK   13  A    between atoms: C20_25  and  C21_26 
REMARK   14  A    between atoms: C21_26  and  C22_27 
REMARK   15  A    between atoms: C22_27  and  C23_28 
REMARK   16  A    between atoms: C23_28  and  C25_31 
REMARK   17  A    between atoms: C27_33  and  O4_34 
REMARK   18  A    between atoms: C28_36  and  O5_37 
REMARK   19  A    between atoms: C31_43  and  C32_44 
REMARK   20  A    between atoms: C32_44  and  O8_45 
REMARK   21  A    between atoms: C32_44  and  C33_47 
REMARK   22  A    between atoms: C33_47  and  O9_50 
ROOT
HETATM    1  C23 UNL     1      26.676   4.384  23.646  1.00  0.00     0.144 C 
HETATM    2  C24 UNL     1      26.209   4.242  25.029  1.00  0.00     0.070 C 
HETATM    3  N1  UNL     1      25.855   4.119  26.120  1.00  0.00    -0.197 NA
ENDROOT
BRANCH   1   4
HETATM    4  C22 UNL     1      25.567   4.484  22.691  1.00  0.00    -0.005 C 
BRANCH   4   5
HETATM    5  C21 UNL     1      24.754   5.512  22.537  1.00  0.00    -0.002 C 
BRANCH   5   6
HETATM    6  C20 UNL     1      24.168   5.906  21.296  1.00  0.00     0.006 C 
BRANCH   6   7
HETATM    7  C18 UNL     1      22.960   6.412  21.204  1.00  0.00    -0.062 C 
HETATM    8  C19 UNL     1      21.995   6.152  20.120  1.00  0.00     0.048 C 
BRANCH   7   9
HETATM    9  C17 UNL     1      22.480   7.346  22.282  1.00  0.00     0.007 C 
BRANCH   9  10
HETATM   10  C16 UNL     1      22.475   8.618  22.050  1.00  0.00     0.008 C 
BRANCH  10  11
HETATM   11  C15 UNL     1      23.185   9.703  22.730  1.00  0.00    -0.055 C 
BRANCH  11  12
HETATM   12  C13 UNL     1      22.585  10.924  23.265  1.00  0.00     0.021 C 
HETATM   13  C14 UNL     1      21.383  10.640  24.111  1.00  0.00     0.015 C 
BRANCH  12  14
HETATM   14  C11 UNL     1      22.373  12.035  22.300  1.00  0.00     0.024 C 
HETATM   15  C12 UNL     1      20.975  12.284  21.967  1.00  0.00     0.013 C 
BRANCH  14  16
HETATM   16  C10 UNL     1      23.124  13.279  22.824  1.00  0.00     0.185 C 
BRANCH  16  17
HETATM   17  C9  UNL     1      22.352  14.544  22.787  1.00  0.00     0.196 C 
HETATM   18  C3  UNL     1      21.751  15.103  24.004  1.00  0.00     0.073 C 
HETATM   19  C4  UNL     1      21.626  16.617  23.742  1.00  0.00    -0.018 C 
HETATM   20  C5  UNL     1      21.551  17.033  22.520  1.00  0.00     0.007 C 
HETATM   21  C6  UNL     1      21.577  16.159  21.322  1.00  0.00     0.075 C 
HETATM   22  C7  UNL     1      20.198  16.307  20.662  1.00  0.00     0.050 C 
HETATM   23  C8  UNL     1      22.581  16.742  20.346  1.00  0.00     0.050 C 
HETATM   24  O1  UNL     1      21.777  14.854  21.606  1.00  0.00    -0.338 OA
BRANCH  18  25
HETATM   25  C2  UNL     1      20.402  14.732  24.484  1.00  0.00     0.009 C 
HETATM   26  C1  UNL     1      20.242  13.840  25.640  1.00  0.00     0.006 C 
ENDBRANCH  18  25
BRANCH  17  27
HETATM   27  O2  UNL     1      23.525  15.570  22.677  1.00  0.00    -0.363 OA
ATOM     28  H2  UNL     1      23.561  15.594  21.728  1.00  0.00     0.213 HD
ENDBRANCH  17  27
ENDBRANCH  16  17
BRANCH  16  29
HETATM   29  O3  UNL     1      24.089  13.405  21.723  1.00  0.00    -0.390 OA
ATOM     30  H3  UNL     1      24.937  13.309  22.138  1.00  0.00     0.210 HD
ENDBRANCH  16  29
ENDBRANCH  14  16
ENDBRANCH  12  14
ENDBRANCH  11  12
BRANCH  11  31
HETATM   31  C31 UNL     1      24.502   9.458  22.899  1.00  0.00     0.015 C 
BRANCH  31  32
HETATM   32  C32 UNL     1      25.649  10.151  22.372  1.00  0.00     0.175 C 
BRANCH  32  33
HETATM   33  O8  UNL     1      25.228  10.724  21.125  1.00  0.00    -0.389 OA
ATOM     34  H8  UNL     1      25.219  11.665  21.258  1.00  0.00     0.210 HD
ENDBRANCH  32  33
BRANCH  32  35
HETATM   35  C33 UNL     1      26.791   9.216  21.989  1.00  0.00     0.080 C 
HETATM   36  C34 UNL     1      26.818   8.055  22.960  1.00  0.00     0.048 C 
HETATM   37  C35 UNL     1      26.571   8.633  20.603  1.00  0.00     0.048 C 
BRANCH  35  38
HETATM   38  O9  UNL     1      28.013   9.868  22.024  1.00  0.00    -0.388 OA
ATOM     39  H9  UNL     1      28.019  10.623  21.447  1.00  0.00     0.210 HD
ENDBRANCH  35  38
ENDBRANCH  32  35
ENDBRANCH  31  32
ENDBRANCH  11  31
ENDBRANCH  10  11
ENDBRANCH   9  10
ENDBRANCH   7   9
ENDBRANCH   6   7
ENDBRANCH   5   6
ENDBRANCH   4   5
ENDBRANCH   1   4
BRANCH   1  40
HETATM   40  C25 UNL     1      27.553   3.207  23.271  1.00  0.00     0.148 C 
HETATM   41  C26 UNL     1      28.642   3.612  22.301  1.00  0.00     0.068 C 
HETATM   42  C27 UNL     1      29.910   2.824  22.508  1.00  0.00     0.152 C 
HETATM   43  C28 UNL     1      29.872   1.469  21.823  1.00  0.00     0.180 C 
HETATM   44  C29 UNL     1      28.457   1.183  21.473  1.00  0.00     0.211 A 
HETATM   45  O6  UNL     1      27.764   0.083  21.866  1.00  0.00    -0.346 OA
HETATM   46  C30 UNL     1      27.703   1.052  22.808  1.00  0.00     0.292 A 
HETATM   47  O7  UNL     1      26.821   2.109  22.825  1.00  0.00    -0.352 OA
BRANCH  42  48
HETATM   48  O4  UNL     1      30.958   3.552  21.945  1.00  0.00    -0.393 OA
ATOM     49  H4  UNL     1      31.489   3.891  22.656  1.00  0.00     0.210 HD
ENDBRANCH  42  48
BRANCH  43  50
HETATM   50  O5  UNL     1      30.277   0.533  22.802  1.00  0.00    -0.390 OA
ATOM     51  H5  UNL     1      30.372  -0.294  22.344  1.00  0.00     0.210 HD
ENDBRANCH  43  50
ENDBRANCH   1  40
TORSDOF 22
ENDMDL
