MODEL 1
REMARK VINA RESULT: -6.854734692      0.000      0.000
REMARK  9 active torsions:
REMARK  status: ('A' for Active; 'I' for Inactive)
REMARK    1  A    between atoms: C2_2  and  C3_4 
REMARK    2  A    between atoms: C3_4  and  N1_5 
REMARK    3  A    between atoms: N1_5  and  O1_6 
REMARK    4  A    between atoms: C5_9  and  C6_10 
REMARK    5  A    between atoms: C6_10  and  C7_11 
REMARK    6  A    between atoms: C7_11  and  N2_12 
REMARK    7  A    between atoms: C7_11  and  C8_16 
REMARK    8  A    between atoms: C10_20  and  N3_21 
REMARK       I    between atoms: N3_21  and  C11_23 
REMARK    9  A    between atoms: C11_23  and  C12_25 
ROOT
HETATM    1  C3  UNL     1      32.732 -11.570  25.465  1.00  0.00     0.094 C 
HETATM    2  C4  UNL     1      33.603 -11.612  24.229  1.00  0.00     0.037 C 
HETATM    3  C5  UNL     1      35.002 -11.472  24.847  1.00  0.00    -0.008 C 
HETATM    4  C9  UNL     1      34.722 -10.280  25.775  1.00  0.00     0.032 C 
HETATM    5  C10 UNL     1      33.544 -10.890  26.539  1.00  0.00     0.113 C 
ENDROOT
BRANCH   3   6
HETATM    6  C6  UNL     1      36.032 -11.156  23.834  1.00  0.00     0.048 C 
BRANCH   6   7
HETATM    7  C7  UNL     1      36.006 -12.097  22.675  1.00  0.00     0.283 C 
BRANCH   7   8
HETATM    8  N2  UNL     1      36.972 -13.176  22.986  1.00  0.00    -0.065 N 
ATOM      9  H23 UNL     1      37.726 -12.877  23.607  1.00  0.00     0.275 HD
ATOM     10  H22 UNL     1      36.587 -13.900  23.593  1.00  0.00     0.275 HD
ATOM     11  H21 UNL     1      37.305 -13.535  22.092  1.00  0.00     0.275 HD
ENDBRANCH   7   8
BRANCH   7  12
HETATM   12  C8  UNL     1      36.371 -11.532  21.376  1.00  0.00     0.204 C 
HETATM   13  O2  UNL     1      37.545 -11.327  20.985  1.00  0.00    -0.646 OA
HETATM   14  O3  UNL     1      35.356 -11.183  20.475  1.00  0.00    -0.646 OA
ENDBRANCH   7  12
ENDBRANCH   6   7
ENDBRANCH   3   6
BRANCH   1  15
HETATM   15  C2  UNL     1      31.437 -10.874  25.180  1.00  0.00     0.107 C 
HETATM   16  C1  UNL     1      30.260 -11.716  25.603  1.00  0.00     0.029 C 
HETATM   17 CL1  UNL     1      31.267 -10.710  23.394  1.00  0.00    -0.123 Cl
ENDBRANCH   1  15
BRANCH   1  18
HETATM   18  N1  UNL     1      32.471 -12.909  26.001  1.00  0.00    -0.090 NA
BRANCH  18  19
HETATM   19  O1  UNL     1      32.457 -13.870  25.086  1.00  0.00    -0.295 OA
ATOM     20  H1  UNL     1      31.592 -14.203  24.882  1.00  0.00     0.238 HD
ENDBRANCH  18  19
ENDBRANCH   1  18
BRANCH   5  21
HETATM   21  N3  UNL     1      32.907  -9.905  27.310  1.00  0.00    -0.353 N 
HETATM   22  C11 UNL     1      33.274  -9.729  28.671  1.00  0.00     0.231 C 
HETATM   23  O4  UNL     1      34.173 -10.458  29.190  1.00  0.00    -0.272 OA
ATOM     24  H3  UNL     1      32.184  -9.317  26.894  1.00  0.00     0.163 HD
BRANCH  22  25
HETATM   25  C12 UNL     1      32.627  -8.695  29.537  1.00  0.00     0.217 C 
HETATM   26 CL2  UNL     1      31.423  -7.793  28.635  1.00  0.00    -0.121 Cl
ENDBRANCH  22  25
ENDBRANCH   5  21
TORSDOF 9
ENDMDL
MODEL 2
REMARK VINA RESULT: -6.661839510      3.281      7.014
REMARK  9 active torsions:
REMARK  status: ('A' for Active; 'I' for Inactive)
REMARK    1  A    between atoms: C2_2  and  C3_4 
REMARK    2  A    between atoms: C3_4  and  N1_5 
REMARK    3  A    between atoms: N1_5  and  O1_6 
REMARK    4  A    between atoms: C5_9  and  C6_10 
REMARK    5  A    between atoms: C6_10  and  C7_11 
REMARK    6  A    between atoms: C7_11  and  N2_12 
REMARK    7  A    between atoms: C7_11  and  C8_16 
REMARK    8  A    between atoms: C10_20  and  N3_21 
REMARK       I    between atoms: N3_21  and  C11_23 
REMARK    9  A    between atoms: C11_23  and  C12_25 
ROOT
HETATM    1  C3  UNL     1      33.892  -9.986  26.713  1.00  0.00     0.094 C 
HETATM    2  C4  UNL     1      33.653  -8.658  27.395  1.00  0.00     0.037 C 
HETATM    3  C5  UNL     1      32.195  -8.817  27.851  1.00  0.00    -0.008 C 
HETATM    4  C9  UNL     1      31.599  -9.330  26.531  1.00  0.00     0.032 C 
HETATM    5  C10 UNL     1      32.534 -10.526  26.338  1.00  0.00     0.113 C 
ENDROOT
BRANCH   3   6
HETATM    6  C6  UNL     1      31.596  -7.531  28.267  1.00  0.00     0.048 C 
BRANCH   6   7
HETATM    7  C7  UNL     1      31.330  -7.468  29.735  1.00  0.00     0.283 C 
BRANCH   7   8
HETATM    8  N2  UNL     1      30.353  -6.373  29.940  1.00  0.00    -0.065 N 
ATOM      9  H23 UNL     1      29.397  -6.704  30.074  1.00  0.00     0.275 HD
ATOM     10  H22 UNL     1      30.453  -5.907  30.842  1.00  0.00     0.275 HD
ATOM     11  H21 UNL     1      30.454  -5.741  29.146  1.00  0.00     0.275 HD
ENDBRANCH   7   8
BRANCH   7  12
HETATM   12  C8  UNL     1      32.487  -7.201  30.590  1.00  0.00     0.204 C 
HETATM   13  O2  UNL     1      32.641  -6.173  31.291  1.00  0.00    -0.646 OA
HETATM   14  O3  UNL     1      33.519  -8.146  30.654  1.00  0.00    -0.646 OA
ENDBRANCH   7  12
ENDBRANCH   6   7
ENDBRANCH   3   6
BRANCH   1  15
HETATM   15  C2  UNL     1      34.803  -9.823  25.535  1.00  0.00     0.107 C 
HETATM   16  C1  UNL     1      35.584 -11.085  25.270  1.00  0.00     0.029 C 
HETATM   17 CL1  UNL     1      36.048  -8.590  25.953  1.00  0.00    -0.123 Cl
ENDBRANCH   1  15
BRANCH   1  18
HETATM   18  N1  UNL     1      34.440 -10.988  27.631  1.00  0.00    -0.090 NA
BRANCH  18  19
HETATM   19  O1  UNL     1      34.660 -10.539  28.860  1.00  0.00    -0.295 OA
ATOM     20  H1  UNL     1      33.923 -10.639  29.450  1.00  0.00     0.238 HD
ENDBRANCH  18  19
ENDBRANCH   1  18
BRANCH   5  21
HETATM   21  N3  UNL     1      32.379 -11.056  25.047  1.00  0.00    -0.353 N 
HETATM   22  C11 UNL     1      32.352 -12.465  24.863  1.00  0.00     0.231 C 
HETATM   23  O4  UNL     1      32.468 -13.242  25.858  1.00  0.00    -0.272 OA
ATOM     24  H3  UNL     1      32.285 -10.433  24.245  1.00  0.00     0.163 HD
BRANCH  22  25
HETATM   25  C12 UNL     1      32.190 -13.082  23.510  1.00  0.00     0.217 C 
HETATM   26 CL2  UNL     1      31.789 -14.784  23.645  1.00  0.00    -0.121 Cl
ENDBRANCH  22  25
ENDBRANCH   5  21
TORSDOF 9
ENDMDL
MODEL 3
REMARK VINA RESULT: -6.589835279      2.459      6.190
REMARK  9 active torsions:
REMARK  status: ('A' for Active; 'I' for Inactive)
REMARK    1  A    between atoms: C2_2  and  C3_4 
REMARK    2  A    between atoms: C3_4  and  N1_5 
REMARK    3  A    between atoms: N1_5  and  O1_6 
REMARK    4  A    between atoms: C5_9  and  C6_10 
REMARK    5  A    between atoms: C6_10  and  C7_11 
REMARK    6  A    between atoms: C7_11  and  N2_12 
REMARK    7  A    between atoms: C7_11  and  C8_16 
REMARK    8  A    between atoms: C10_20  and  N3_21 
REMARK       I    between atoms: N3_21  and  C11_23 
REMARK    9  A    between atoms: C11_23  and  C12_25 
ROOT
HETATM    1  C3  UNL     1      32.583 -11.400  24.485  1.00  0.00     0.094 C 
HETATM    2  C4  UNL     1      32.144 -10.617  25.702  1.00  0.00     0.037 C 
HETATM    3  C5  UNL     1      33.074  -9.397  25.620  1.00  0.00    -0.008 C 
HETATM    4  C9  UNL     1      34.401 -10.137  25.392  1.00  0.00     0.032 C 
HETATM    5  C10 UNL     1      33.978 -10.932  24.154  1.00  0.00     0.113 C 
ENDROOT
BRANCH   3   6
HETATM    6  C6  UNL     1      33.083  -8.617  26.876  1.00  0.00     0.048 C 
BRANCH   6   7
HETATM    7  C7  UNL     1      32.491  -9.366  28.024  1.00  0.00     0.283 C 
BRANCH   7   8
HETATM    8  N2  UNL     1      31.339  -8.567  28.501  1.00  0.00    -0.065 N 
ATOM      9  H23 UNL     1      31.347  -8.408  29.509  1.00  0.00     0.275 HD
ATOM     10  H22 UNL     1      31.382  -7.587  28.218  1.00  0.00     0.275 HD
ATOM     11  H21 UNL     1      30.499  -9.044  28.175  1.00  0.00     0.275 HD
ENDBRANCH   7   8
BRANCH   7  12
HETATM   12  C8  UNL     1      33.375  -9.603  29.166  1.00  0.00     0.204 C 
HETATM   13  O2  UNL     1      34.124 -10.599  29.301  1.00  0.00    -0.646 OA
HETATM   14  O3  UNL     1      33.412  -8.663  30.204  1.00  0.00    -0.646 OA
ENDBRANCH   7  12
ENDBRANCH   6   7
ENDBRANCH   3   6
BRANCH   1  15
HETATM   15  C2  UNL     1      32.506 -12.874  24.744  1.00  0.00     0.107 C 
HETATM   16  C1  UNL     1      32.247 -13.639  23.471  1.00  0.00     0.029 C 
HETATM   17 CL1  UNL     1      31.060 -13.189  25.773  1.00  0.00    -0.123 Cl
ENDBRANCH   1  15
BRANCH   1  18
HETATM   18  N1  UNL     1      31.795 -11.061  23.297  1.00  0.00    -0.090 NA
BRANCH  18  19
HETATM   19  O1  UNL     1      30.522 -10.785  23.547  1.00  0.00    -0.295 OA
ATOM     20  H1  UNL     1      30.357  -9.880  23.779  1.00  0.00     0.238 HD
ENDBRANCH  18  19
ENDBRANCH   1  18
BRANCH   5  21
HETATM   21  N3  UNL     1      34.941 -11.912  23.859  1.00  0.00    -0.353 N 
HETATM   22  C11 UNL     1      35.370 -12.096  22.517  1.00  0.00     0.231 C 
HETATM   23  O4  UNL     1      34.889 -11.379  21.588  1.00  0.00    -0.272 OA
ATOM     24  H3  UNL     1      35.329 -12.489  24.605  1.00  0.00     0.163 HD
BRANCH  22  25
HETATM   25  C12 UNL     1      36.391 -13.124  22.149  1.00  0.00     0.217 C 
HETATM   26 CL2  UNL     1      37.667 -13.194  23.351  1.00  0.00    -0.121 Cl
ENDBRANCH  22  25
ENDBRANCH   5  21
TORSDOF 9
ENDMDL
MODEL 4
REMARK VINA RESULT: -6.375274078      1.529      1.622
REMARK  9 active torsions:
REMARK  status: ('A' for Active; 'I' for Inactive)
REMARK    1  A    between atoms: C2_2  and  C3_4 
REMARK    2  A    between atoms: C3_4  and  N1_5 
REMARK    3  A    between atoms: N1_5  and  O1_6 
REMARK    4  A    between atoms: C5_9  and  C6_10 
REMARK    5  A    between atoms: C6_10  and  C7_11 
REMARK    6  A    between atoms: C7_11  and  N2_12 
REMARK    7  A    between atoms: C7_11  and  C8_16 
REMARK    8  A    between atoms: C10_20  and  N3_21 
REMARK       I    between atoms: N3_21  and  C11_23 
REMARK    9  A    between atoms: C11_23  and  C12_25 
ROOT
HETATM    1  C3  UNL     1      32.585 -11.778  25.351  1.00  0.00     0.094 C 
HETATM    2  C4  UNL     1      33.331 -11.723  24.036  1.00  0.00     0.037 C 
HETATM    3  C5  UNL     1      34.779 -11.568  24.524  1.00  0.00    -0.008 C 
HETATM    4  C9  UNL     1      34.557 -10.439  25.542  1.00  0.00     0.032 C 
HETATM    5  C10 UNL     1      33.477 -11.130  26.379  1.00  0.00     0.113 C 
ENDROOT
BRANCH   3   6
HETATM    6  C6  UNL     1      35.695 -11.162  23.437  1.00  0.00     0.048 C 
BRANCH   6   7
HETATM    7  C7  UNL     1      36.487 -12.306  22.895  1.00  0.00     0.283 C 
BRANCH   7   8
HETATM    8  N2  UNL     1      35.508 -13.331  22.464  1.00  0.00    -0.065 N 
ATOM      9  H23 UNL     1      34.817 -12.976  21.802  1.00  0.00     0.275 HD
ATOM     10  H22 UNL     1      35.912 -14.045  21.856  1.00  0.00     0.275 HD
ATOM     11  H21 UNL     1      35.094 -13.712  23.314  1.00  0.00     0.275 HD
ENDBRANCH   7   8
BRANCH   7  12
HETATM   12  C8  UNL     1      37.421 -12.943  23.824  1.00  0.00     0.204 C 
HETATM   13  O2  UNL     1      37.979 -12.368  24.788  1.00  0.00    -0.646 OA
HETATM   14  O3  UNL     1      37.736 -14.297  23.653  1.00  0.00    -0.646 OA
ENDBRANCH   7  12
ENDBRANCH   6   7
ENDBRANCH   3   6
BRANCH   1  15
HETATM   15  C2  UNL     1      31.248 -11.113  25.232  1.00  0.00     0.107 C 
HETATM   16  C1  UNL     1      30.138 -12.036  25.668  1.00  0.00     0.029 C 
HETATM   17 CL1  UNL     1      30.927 -10.800  23.487  1.00  0.00    -0.123 Cl
ENDBRANCH   1  15
BRANCH   1  18
HETATM   18  N1  UNL     1      32.416 -13.153  25.831  1.00  0.00    -0.090 NA
BRANCH  18  19
HETATM   19  O1  UNL     1      32.406 -14.069  24.872  1.00  0.00    -0.295 OA
ATOM     20  H1  UNL     1      31.595 -14.559  24.808  1.00  0.00     0.238 HD
ENDBRANCH  18  19
ENDBRANCH   1  18
BRANCH   5  21
HETATM   21  N3  UNL     1      32.890 -10.210  27.263  1.00  0.00    -0.353 N 
HETATM   22  C11 UNL     1      33.500  -9.956  28.521  1.00  0.00     0.231 C 
HETATM   23  O4  UNL     1      34.568 -10.555  28.847  1.00  0.00    -0.272 OA
ATOM     24  H3  UNL     1      32.031  -9.727  27.003  1.00  0.00     0.163 HD
BRANCH  22  25
HETATM   25  C12 UNL     1      32.916  -8.988  29.500  1.00  0.00     0.217 C 
HETATM   26 CL2  UNL     1      31.861  -7.844  28.690  1.00  0.00    -0.121 Cl
ENDBRANCH  22  25
ENDBRANCH   5  21
TORSDOF 9
ENDMDL
MODEL 5
REMARK VINA RESULT: -6.354281233      1.155      1.356
REMARK  9 active torsions:
REMARK  status: ('A' for Active; 'I' for Inactive)
REMARK    1  A    between atoms: C2_2  and  C3_4 
REMARK    2  A    between atoms: C3_4  and  N1_5 
REMARK    3  A    between atoms: N1_5  and  O1_6 
REMARK    4  A    between atoms: C5_9  and  C6_10 
REMARK    5  A    between atoms: C6_10  and  C7_11 
REMARK    6  A    between atoms: C7_11  and  N2_12 
REMARK    7  A    between atoms: C7_11  and  C8_16 
REMARK    8  A    between atoms: C10_20  and  N3_21 
REMARK       I    between atoms: N3_21  and  C11_23 
REMARK    9  A    between atoms: C11_23  and  C12_25 
ROOT
HETATM    1  C3  UNL     1      32.385 -11.852  25.371  1.00  0.00     0.094 C 
HETATM    2  C4  UNL     1      33.047 -11.822  24.012  1.00  0.00     0.037 C 
HETATM    3  C5  UNL     1      34.516 -11.607  24.404  1.00  0.00    -0.008 C 
HETATM    4  C9  UNL     1      34.321 -10.449  25.394  1.00  0.00     0.032 C 
HETATM    5  C10 UNL     1      33.317 -11.141  26.320  1.00  0.00     0.113 C 
ENDROOT
BRANCH   3   6
HETATM    6  C6  UNL     1      35.351 -11.213  23.248  1.00  0.00     0.048 C 
BRANCH   6   7
HETATM    7  C7  UNL     1      35.856 -12.388  22.476  1.00  0.00     0.283 C 
BRANCH   7   8
HETATM    8  N2  UNL     1      36.925 -11.879  21.586  1.00  0.00    -0.065 N 
ATOM      9  H23 UNL     1      36.571 -11.338  20.797  1.00  0.00     0.275 HD
ATOM     10  H22 UNL     1      37.483 -11.137  22.009  1.00  0.00     0.275 HD
ATOM     11  H21 UNL     1      37.478 -12.689  21.304  1.00  0.00     0.275 HD
ENDBRANCH   7   8
BRANCH   7  12
HETATM   12  C8  UNL     1      34.874 -13.083  21.644  1.00  0.00     0.204 C 
HETATM   13  O2  UNL     1      34.281 -12.581  20.660  1.00  0.00    -0.646 OA
HETATM   14  O3  UNL     1      34.550 -14.414  21.939  1.00  0.00    -0.646 OA
ENDBRANCH   7  12
ENDBRANCH   6   7
ENDBRANCH   3   6
BRANCH   1  15
HETATM   15  C2  UNL     1      31.022 -11.231  25.314  1.00  0.00     0.107 C 
HETATM   16  C1  UNL     1      29.969 -12.177  25.832  1.00  0.00     0.029 C 
HETATM   17 CL1  UNL     1      30.595 -10.970  23.583  1.00  0.00    -0.123 Cl
ENDBRANCH   1  15
BRANCH   1  18
HETATM   18  N1  UNL     1      32.289 -13.213  25.908  1.00  0.00    -0.090 NA
BRANCH  18  19
HETATM   19  O1  UNL     1      32.347 -14.167  24.988  1.00  0.00    -0.295 OA
ATOM     20  H1  UNL     1      33.211 -14.300  24.617  1.00  0.00     0.238 HD
ENDBRANCH  18  19
ENDBRANCH   1  18
BRANCH   5  21
HETATM   21  N3  UNL     1      32.756 -10.208  27.207  1.00  0.00    -0.353 N 
HETATM   22  C11 UNL     1      33.387  -9.957  28.455  1.00  0.00     0.231 C 
HETATM   23  O4  UNL     1      34.451 -10.571  28.769  1.00  0.00    -0.272 OA
ATOM     24  H3  UNL     1      31.900  -9.714  26.956  1.00  0.00     0.163 HD
BRANCH  22  25
HETATM   25  C12 UNL     1      32.831  -8.975  29.436  1.00  0.00     0.217 C 
HETATM   26 CL2  UNL     1      31.597  -7.977  28.689  1.00  0.00    -0.121 Cl
ENDBRANCH  22  25
ENDBRANCH   5  21
TORSDOF 9
ENDMDL
