MODEL 1
REMARK VINA RESULT: -7.208957646      0.000      0.000
REMARK  8 active torsions:
REMARK  status: ('A' for Active; 'I' for Inactive)
REMARK       I    between atoms: C1_4  and  N2_5 
REMARK       I    between atoms: C1_4  and  N5_18 
REMARK    1  A    between atoms: N2_5  and  N3_7 
REMARK    2  A    between atoms: N3_7  and  C2_9 
REMARK    3  A    between atoms: C5_12  and  N4_13 
REMARK    4  A    between atoms: N5_18  and  C8_20 
REMARK    5  A    between atoms: C8_20  and  C9_21 
REMARK    6  A    between atoms: C8_20  and  C10_25 
REMARK    7  A    between atoms: C9_21  and  O3_22 
REMARK    8  A    between atoms: C10_25  and  C11_27 
ROOT
HETATM    1  N1  UNL     1      32.547 -13.246  23.495  1.00  0.00    -0.234 N 
ATOM      2  H11 UNL     1      32.346 -14.233  23.331  1.00  0.00     0.174 HD
ATOM      3  H12 UNL     1      32.120 -12.788  24.300  1.00  0.00     0.174 HD
HETATM    4  C1  UNL     1      33.356 -12.613  22.681  1.00  0.00     0.686 C 
HETATM    5  N2  UNL     1      33.635 -11.237  22.909  1.00  0.00    -0.132 N 
ATOM      6  H2  UNL     1      34.500 -10.817  22.569  1.00  0.00     0.205 HD
HETATM    7  N5  UNL     1      33.948 -13.247  21.566  1.00  0.00    -0.214 N 
ATOM      8  H5  UNL     1      33.390 -13.824  20.937  1.00  0.00     0.178 HD
ENDROOT
BRANCH   5   9
HETATM    9  N3  UNL     1      32.707 -10.484  23.601  1.00  0.00    -0.287 N 
ATOM     10  H3  UNL     1      31.902 -10.096  23.109  1.00  0.00     0.187 HD
BRANCH   9  11
HETATM   11  C2  UNL     1      32.867 -10.246  24.992  1.00  0.00     0.048 A 
HETATM   12  C3  UNL     1      31.776 -10.042  25.816  1.00  0.00     0.033 A 
HETATM   13  C4  UNL     1      31.900  -9.809  27.165  1.00  0.00     0.038 A 
HETATM   14  C5  UNL     1      33.144  -9.773  27.758  1.00  0.00     0.103 A 
HETATM   15  C6  UNL     1      34.251  -9.974  26.959  1.00  0.00     0.038 A 
HETATM   16  C7  UNL     1      34.108 -10.208  25.593  1.00  0.00     0.033 A 
BRANCH  14  17
HETATM   17  N4  UNL     1      33.287  -9.534  29.154  1.00  0.00    -0.116 N 
HETATM   18  O1  UNL     1      34.240 -10.072  29.767  1.00  0.00    -0.532 OA
HETATM   19  O2  UNL     1      32.387  -8.729  29.782  1.00  0.00    -0.532 OA
ENDBRANCH  14  17
ENDBRANCH   9  11
ENDBRANCH   5   9
BRANCH   7  20
HETATM   20  C8  UNL     1      35.385 -13.059  21.332  1.00  0.00     0.186 C 
BRANCH  20  21
HETATM   21  C9  UNL     1      35.436 -12.247  20.015  1.00  0.00     0.329 C 
HETATM   22  F1  UNL     1      34.234 -12.548  19.368  1.00  0.00    -0.218 F 
BRANCH  21  23
HETATM   23  O3  UNL     1      35.518 -10.908  20.175  1.00  0.00    -0.365 OA
ATOM     24  H3  UNL     1      35.712 -10.422  19.382  1.00  0.00     0.213 HD
ENDBRANCH  21  23
ENDBRANCH  20  21
BRANCH  20  25
HETATM   25  C10 UNL     1      36.016 -14.409  21.088  1.00  0.00     0.199 C 
HETATM   26 CL1  UNL     1      36.804 -14.364  19.473  1.00  0.00    -0.113 Cl
BRANCH  25  27
HETATM   27  C11 UNL     1      34.933 -15.442  20.912  1.00  0.00     0.251 C 
HETATM   28  N6  UNL     1      34.383 -16.091  22.052  1.00  0.00    -0.061 NA
HETATM   29  O4  UNL     1      34.553 -15.701  19.753  1.00  0.00    -0.275 OA
ENDBRANCH  25  27
ENDBRANCH  20  25
ENDBRANCH   7  20
TORSDOF 8
ENDMDL
MODEL 2
REMARK VINA RESULT: -7.170995988      3.200      8.132
REMARK  8 active torsions:
REMARK  status: ('A' for Active; 'I' for Inactive)
REMARK       I    between atoms: C1_4  and  N2_5 
REMARK       I    between atoms: C1_4  and  N5_18 
REMARK    1  A    between atoms: N2_5  and  N3_7 
REMARK    2  A    between atoms: N3_7  and  C2_9 
REMARK    3  A    between atoms: C5_12  and  N4_13 
REMARK    4  A    between atoms: N5_18  and  C8_20 
REMARK    5  A    between atoms: C8_20  and  C9_21 
REMARK    6  A    between atoms: C8_20  and  C10_25 
REMARK    7  A    between atoms: C9_21  and  O3_22 
REMARK    8  A    between atoms: C10_25  and  C11_27 
ROOT
HETATM    1  N1  UNL     1      30.837 -13.485  24.754  1.00  0.00    -0.234 N 
ATOM      2  H11 UNL     1      30.318 -13.122  25.555  1.00  0.00     0.174 HD
ATOM      3  H12 UNL     1      30.409 -14.214  24.185  1.00  0.00     0.174 HD
HETATM    4  C1  UNL     1      32.019 -12.988  24.479  1.00  0.00     0.686 C 
HETATM    5  N2  UNL     1      32.742 -13.494  23.364  1.00  0.00    -0.132 N 
ATOM      6  H2  UNL     1      33.444 -12.922  22.895  1.00  0.00     0.205 HD
HETATM    7  N5  UNL     1      32.612 -11.978  25.268  1.00  0.00    -0.214 N 
ATOM      8  H5  UNL     1      32.620 -12.048  26.286  1.00  0.00     0.178 HD
ENDROOT
BRANCH   5   9
HETATM    9  N3  UNL     1      32.472 -14.777  22.932  1.00  0.00    -0.287 N 
ATOM     10  H3  UNL     1      31.684 -15.289  23.329  1.00  0.00     0.187 HD
BRANCH   9  11
HETATM   11  C2  UNL     1      33.283 -15.388  21.939  1.00  0.00     0.048 A 
HETATM   12  C3  UNL     1      32.855 -16.506  21.249  1.00  0.00     0.033 A 
HETATM   13  C4  UNL     1      33.618 -17.118  20.284  1.00  0.00     0.038 A 
HETATM   14  C5  UNL     1      34.865 -16.626  19.960  1.00  0.00     0.103 A 
HETATM   15  C6  UNL     1      35.317 -15.510  20.634  1.00  0.00     0.038 A 
HETATM   16  C7  UNL     1      34.532 -14.902  21.610  1.00  0.00     0.033 A 
BRANCH  14  17
HETATM   17  N4  UNL     1      35.666 -17.250  18.962  1.00  0.00    -0.116 N 
HETATM   18  O1  UNL     1      36.217 -16.533  18.092  1.00  0.00    -0.532 OA
HETATM   19  O2  UNL     1      35.809 -18.603  18.981  1.00  0.00    -0.532 OA
ENDBRANCH  14  17
ENDBRANCH   9  11
ENDBRANCH   5   9
BRANCH   7  20
HETATM   20  C8  UNL     1      33.215 -10.822  24.593  1.00  0.00     0.186 C 
BRANCH  20  21
HETATM   21  C9  UNL     1      34.734 -11.031  24.803  1.00  0.00     0.329 C 
HETATM   22  F1  UNL     1      34.829 -11.774  25.983  1.00  0.00    -0.218 F 
BRANCH  21  23
HETATM   23  O3  UNL     1      35.358 -11.709  23.815  1.00  0.00    -0.365 OA
ATOM     24  H3  UNL     1      35.223 -12.648  23.826  1.00  0.00     0.213 HD
ENDBRANCH  21  23
ENDBRANCH  20  21
BRANCH  20  25
HETATM   25  C10 UNL     1      32.798  -9.566  25.319  1.00  0.00     0.199 C 
HETATM   26 CL1  UNL     1      34.291  -8.713  25.845  1.00  0.00    -0.113 Cl
BRANCH  25  27
HETATM   27  C11 UNL     1      32.139  -9.937  26.622  1.00  0.00     0.251 C 
HETATM   28  N6  UNL     1      32.915 -10.011  27.811  1.00  0.00    -0.061 NA
HETATM   29  O4  UNL     1      30.915 -10.176  26.613  1.00  0.00    -0.275 OA
ENDBRANCH  25  27
ENDBRANCH  20  25
ENDBRANCH   7  20
TORSDOF 8
ENDMDL
MODEL 3
REMARK VINA RESULT: -7.109728244      3.931      5.222
REMARK  8 active torsions:
REMARK  status: ('A' for Active; 'I' for Inactive)
REMARK       I    between atoms: C1_4  and  N2_5 
REMARK       I    between atoms: C1_4  and  N5_18 
REMARK    1  A    between atoms: N2_5  and  N3_7 
REMARK    2  A    between atoms: N3_7  and  C2_9 
REMARK    3  A    between atoms: C5_12  and  N4_13 
REMARK    4  A    between atoms: N5_18  and  C8_20 
REMARK    5  A    between atoms: C8_20  and  C9_21 
REMARK    6  A    between atoms: C8_20  and  C10_25 
REMARK    7  A    between atoms: C9_21  and  O3_22 
REMARK    8  A    between atoms: C10_25  and  C11_27 
ROOT
HETATM    1  N1  UNL     1      33.815 -10.196  24.553  1.00  0.00    -0.234 N 
ATOM      2  H11 UNL     1      33.784 -10.123  23.536  1.00  0.00     0.174 HD
ATOM      3  H12 UNL     1      34.095  -9.378  25.093  1.00  0.00     0.174 HD
HETATM    4  C1  UNL     1      33.477 -11.326  25.125  1.00  0.00     0.686 C 
HETATM    5  N2  UNL     1      33.521 -11.428  26.542  1.00  0.00    -0.132 N 
ATOM      6  H2  UNL     1      32.937 -12.104  27.035  1.00  0.00     0.205 HD
HETATM    7  N5  UNL     1      33.088 -12.460  24.377  1.00  0.00    -0.214 N 
ATOM      8  H5  UNL     1      33.631 -12.762  23.568  1.00  0.00     0.178 HD
ENDROOT
BRANCH   5   9
HETATM    9  N3  UNL     1      34.372 -10.591  27.236  1.00  0.00    -0.287 N 
ATOM     10  H3  UNL     1      35.380 -10.662  27.092  1.00  0.00     0.187 HD
BRANCH   9  11
HETATM   11  C2  UNL     1      33.855  -9.633  28.148  1.00  0.00     0.048 A 
HETATM   12  C3  UNL     1      34.476  -9.384  29.357  1.00  0.00     0.033 A 
HETATM   13  C4  UNL     1      33.999  -8.463  30.259  1.00  0.00     0.038 A 
HETATM   14  C5  UNL     1      32.859  -7.738  29.983  1.00  0.00     0.103 A 
HETATM   15  C6  UNL     1      32.219  -7.967  28.783  1.00  0.00     0.038 A 
HETATM   16  C7  UNL     1      32.715  -8.904  27.879  1.00  0.00     0.033 A 
BRANCH  14  17
HETATM   17  N4  UNL     1      32.354  -6.781  30.908  1.00  0.00    -0.116 N 
HETATM   18  O1  UNL     1      31.139  -6.470  30.856  1.00  0.00    -0.532 OA
HETATM   19  O2  UNL     1      33.202  -6.232  31.820  1.00  0.00    -0.532 OA
ENDBRANCH  14  17
ENDBRANCH   9  11
ENDBRANCH   5   9
BRANCH   7  20
HETATM   20  C8  UNL     1      31.886 -13.195  24.789  1.00  0.00     0.186 C 
BRANCH  20  21
HETATM   21  C9  UNL     1      31.925 -14.474  23.917  1.00  0.00     0.329 C 
HETATM   22  F1  UNL     1      31.743 -15.523  24.821  1.00  0.00    -0.218 F 
BRANCH  21  23
HETATM   23  O3  UNL     1      30.965 -14.547  22.970  1.00  0.00    -0.365 OA
ATOM     24  H3  UNL     1      30.665 -15.425  22.772  1.00  0.00     0.213 HD
ENDBRANCH  21  23
ENDBRANCH  20  21
BRANCH  20  25
HETATM   25  C10 UNL     1      30.670 -12.388  24.403  1.00  0.00     0.199 C 
HETATM   26 CL1  UNL     1      31.229 -10.982  23.431  1.00  0.00    -0.113 Cl
BRANCH  25  27
HETATM   27  C11 UNL     1      30.087 -11.743  25.633  1.00  0.00     0.251 C 
HETATM   28  N6  UNL     1      29.057 -12.405  26.357  1.00  0.00    -0.061 NA
HETATM   29  O4  UNL     1      30.530 -10.630  25.979  1.00  0.00    -0.275 OA
ENDBRANCH  25  27
ENDBRANCH  20  25
ENDBRANCH   7  20
TORSDOF 8
ENDMDL
MODEL 4
REMARK VINA RESULT: -7.050064901      2.274      2.704
REMARK  8 active torsions:
REMARK  status: ('A' for Active; 'I' for Inactive)
REMARK       I    between atoms: C1_4  and  N2_5 
REMARK       I    between atoms: C1_4  and  N5_18 
REMARK    1  A    between atoms: N2_5  and  N3_7 
REMARK    2  A    between atoms: N3_7  and  C2_9 
REMARK    3  A    between atoms: C5_12  and  N4_13 
REMARK    4  A    between atoms: N5_18  and  C8_20 
REMARK    5  A    between atoms: C8_20  and  C9_21 
REMARK    6  A    between atoms: C8_20  and  C10_25 
REMARK    7  A    between atoms: C9_21  and  O3_22 
REMARK    8  A    between atoms: C10_25  and  C11_27 
ROOT
HETATM    1  N1  UNL     1      34.813 -11.651  22.347  1.00  0.00    -0.234 N 
ATOM      2  H11 UNL     1      35.676 -12.135  22.098  1.00  0.00     0.174 HD
ATOM      3  H12 UNL     1      34.808 -10.631  22.349  1.00  0.00     0.174 HD
HETATM    4  C1  UNL     1      33.745 -12.354  22.636  1.00  0.00     0.686 C 
HETATM    5  N2  UNL     1      32.542 -11.680  22.984  1.00  0.00    -0.132 N 
ATOM      6  H2  UNL     1      31.635 -12.126  22.846  1.00  0.00     0.205 HD
HETATM    7  N5  UNL     1      33.752 -13.767  22.633  1.00  0.00    -0.214 N 
ATOM      8  H5  UNL     1      34.502 -14.285  23.090  1.00  0.00     0.178 HD
ENDROOT
BRANCH   5   9
HETATM    9  N3  UNL     1      32.632 -10.408  23.513  1.00  0.00    -0.287 N 
ATOM     10  H3  UNL     1      32.575  -9.597  22.895  1.00  0.00     0.187 HD
BRANCH   9  11
HETATM   11  C2  UNL     1      32.801 -10.220  24.911  1.00  0.00     0.048 A 
HETATM   12  C3  UNL     1      31.716 -10.166  25.765  1.00  0.00     0.033 A 
HETATM   13  C4  UNL     1      31.850  -9.985  27.121  1.00  0.00     0.038 A 
HETATM   14  C5  UNL     1      33.099  -9.850  27.690  1.00  0.00     0.103 A 
HETATM   15  C6  UNL     1      34.200  -9.900  26.860  1.00  0.00     0.038 A 
HETATM   16  C7  UNL     1      34.047 -10.083  25.487  1.00  0.00     0.033 A 
BRANCH  14  17
HETATM   17  N4  UNL     1      33.252  -9.663  29.093  1.00  0.00    -0.116 N 
HETATM   18  O1  UNL     1      34.067 -10.385  29.716  1.00  0.00    -0.532 OA
HETATM   19  O2  UNL     1      32.511  -8.707  29.716  1.00  0.00    -0.532 OA
ENDBRANCH  14  17
ENDBRANCH   9  11
ENDBRANCH   5   9
BRANCH   7  20
HETATM   20  C8  UNL     1      32.656 -14.473  21.958  1.00  0.00     0.186 C 
BRANCH  20  21
HETATM   21  C9  UNL     1      31.776 -14.981  23.126  1.00  0.00     0.329 C 
HETATM   22  F1  UNL     1      32.558 -14.785  24.267  1.00  0.00    -0.218 F 
BRANCH  21  23
HETATM   23  O3  UNL     1      30.606 -14.324  23.284  1.00  0.00    -0.365 OA
ATOM     24  H3  UNL     1      30.178 -14.069  22.476  1.00  0.00     0.213 HD
ENDBRANCH  21  23
ENDBRANCH  20  21
BRANCH  20  25
HETATM   25  C10 UNL     1      33.226 -15.668  21.231  1.00  0.00     0.199 C 
HETATM   26 CL1  UNL     1      34.845 -16.016  21.932  1.00  0.00    -0.113 Cl
BRANCH  25  27
HETATM   27  C11 UNL     1      33.544 -15.284  19.810  1.00  0.00     0.251 C 
HETATM   28  N6  UNL     1      34.530 -14.293  19.549  1.00  0.00    -0.061 NA
HETATM   29  O4  UNL     1      32.918 -15.853  18.894  1.00  0.00    -0.275 OA
ENDBRANCH  25  27
ENDBRANCH  20  25
ENDBRANCH   7  20
TORSDOF 8
ENDMDL
MODEL 5
REMARK VINA RESULT: -7.029222159      3.612      7.989
REMARK  8 active torsions:
REMARK  status: ('A' for Active; 'I' for Inactive)
REMARK       I    between atoms: C1_4  and  N2_5 
REMARK       I    between atoms: C1_4  and  N5_18 
REMARK    1  A    between atoms: N2_5  and  N3_7 
REMARK    2  A    between atoms: N3_7  and  C2_9 
REMARK    3  A    between atoms: C5_12  and  N4_13 
REMARK    4  A    between atoms: N5_18  and  C8_20 
REMARK    5  A    between atoms: C8_20  and  C9_21 
REMARK    6  A    between atoms: C8_20  and  C10_25 
REMARK    7  A    between atoms: C9_21  and  O3_22 
REMARK    8  A    between atoms: C10_25  and  C11_27 
ROOT
HETATM    1  N1  UNL     1      34.375 -12.208  21.589  1.00  0.00    -0.234 N 
ATOM      2  H11 UNL     1      34.385 -11.188  21.552  1.00  0.00     0.174 HD
ATOM      3  H12 UNL     1      35.080 -12.722  21.061  1.00  0.00     0.174 HD
HETATM    4  C1  UNL     1      33.476 -12.813  22.325  1.00  0.00     0.686 C 
HETATM    5  N2  UNL     1      33.462 -14.234  22.377  1.00  0.00    -0.132 N 
ATOM      6  H2  UNL     1      33.067 -14.723  23.181  1.00  0.00     0.205 HD
HETATM    7  N5  UNL     1      32.500 -12.101  23.058  1.00  0.00    -0.214 N 
ATOM      8  H5  UNL     1      31.973 -11.343  22.624  1.00  0.00     0.178 HD
ENDROOT
BRANCH   5   9
HETATM    9  N3  UNL     1      33.995 -14.936  21.314  1.00  0.00    -0.287 N 
ATOM     10  H3  UNL     1      33.645 -14.768  20.371  1.00  0.00     0.187 HD
BRANCH   9  11
HETATM   11  C2  UNL     1      35.027 -15.889  21.526  1.00  0.00     0.048 A 
HETATM   12  C3  UNL     1      36.306 -15.499  21.877  1.00  0.00     0.033 A 
HETATM   13  C4  UNL     1      37.323 -16.398  22.088  1.00  0.00     0.038 A 
HETATM   14  C5  UNL     1      37.099 -17.752  21.957  1.00  0.00     0.103 A 
HETATM   15  C6  UNL     1      35.832 -18.170  21.607  1.00  0.00     0.038 A 
HETATM   16  C7  UNL     1      34.811 -17.245  21.396  1.00  0.00     0.033 A 
BRANCH  14  17
HETATM   17  N4  UNL     1      38.144 -18.695  22.173  1.00  0.00    -0.116 N 
HETATM   18  O1  UNL     1      38.886 -19.009  21.211  1.00  0.00    -0.532 OA
HETATM   19  O2  UNL     1      38.306 -19.227  23.415  1.00  0.00    -0.532 OA
ENDBRANCH  14  17
ENDBRANCH   9  11
ENDBRANCH   5   9
BRANCH   7  20
HETATM   20  C8  UNL     1      32.260 -12.474  24.457  1.00  0.00     0.186 C 
BRANCH  20  21
HETATM   21  C9  UNL     1      30.808 -13.009  24.446  1.00  0.00     0.329 C 
HETATM   22  F1  UNL     1      30.034 -11.926  24.021  1.00  0.00    -0.218 F 
BRANCH  21  23
HETATM   23  O3  UNL     1      30.590 -14.050  23.612  1.00  0.00    -0.365 OA
ATOM     24  H3  UNL     1      30.620 -14.905  24.023  1.00  0.00     0.213 HD
ENDBRANCH  21  23
ENDBRANCH  20  21
BRANCH  20  25
HETATM   25  C10 UNL     1      32.305 -11.225  25.305  1.00  0.00     0.199 C 
HETATM   26 CL1  UNL     1      32.410  -9.813  24.198  1.00  0.00    -0.113 Cl
BRANCH  25  27
HETATM   27  C11 UNL     1      33.614 -11.174  26.049  1.00  0.00     0.251 C 
HETATM   28  N6  UNL     1      34.770 -11.784  25.489  1.00  0.00    -0.061 NA
HETATM   29  O4  UNL     1      33.639 -10.594  27.153  1.00  0.00    -0.275 OA
ENDBRANCH  25  27
ENDBRANCH  20  25
ENDBRANCH   7  20
TORSDOF 8
ENDMDL
