MODEL 1
REMARK VINA RESULT: -8.382626461      0.000      0.000
REMARK  8 active torsions:
REMARK  status: ('A' for Active; 'I' for Inactive)
REMARK    1  A    between atoms: C2_2  and  N1_3 
REMARK    2  A    between atoms: C2_2  and  C5_13 
REMARK       I    between atoms: N1_3  and  C3_5 
REMARK       I    between atoms: C3_5  and  N3_9 
REMARK    3  A    between atoms: C5_13  and  N5_14 
REMARK    4  A    between atoms: C5_13  and  C11_24 
REMARK       I    between atoms: N5_14  and  C6_16 
REMARK    5  A    between atoms: C6_16  and  C7_18 
REMARK    6  A    between atoms: C11_24  and  C12_26 
REMARK    7  A    between atoms: C12_26  and  O2_27 
REMARK    8  A    between atoms: C12_26  and  O3_29 
ROOT
HETATM    1  N1  UNL     1      34.364 -11.100  25.688  1.00  0.00    -0.218 N 
ATOM      2  H1  UNL     1      34.484 -11.114  26.701  1.00  0.00     0.178 HD
HETATM    3  C3  UNL     1      35.485 -11.032  24.816  1.00  0.00     0.698 C 
HETATM    4  N2  UNL     1      36.315 -10.053  24.937  1.00  0.00    -0.131 N 
ATOM      5  H2  UNL     1      37.113 -10.022  24.302  1.00  0.00     0.199 HD
HETATM    6 CL1  UNL     1      36.162  -8.792  26.101  1.00  0.00     0.026 Cl
HETATM    7  N3  UNL     1      35.745 -11.993  23.811  1.00  0.00    -0.125 N 
ATOM      8  H3  UNL     1      35.441 -12.952  23.980  1.00  0.00     0.197 HD
HETATM    9  C4  UNL     1      36.390 -11.717  22.603  1.00  0.00     0.196 C 
HETATM   10  N4  UNL     1      36.941 -11.495  21.610  1.00  0.00    -0.171 NA
ENDROOT
BRANCH   1  11
HETATM   11  C2  UNL     1      33.053 -11.147  25.094  1.00  0.00     0.121 C 
HETATM   12  C1  UNL     1      32.658  -9.759  24.625  1.00  0.00     0.035 C 
BRANCH  11  13
HETATM   13  C5  UNL     1      31.991 -11.577  26.085  1.00  0.00     0.146 C 
BRANCH  13  14
HETATM   14  N5  UNL     1      31.615 -10.372  26.817  1.00  0.00    -0.346 N 
HETATM   15  C6  UNL     1      32.366  -9.877  27.906  1.00  0.00     0.268 C 
HETATM   16  O1  UNL     1      33.394 -10.502  28.257  1.00  0.00    -0.266 OA
ATOM     17  H5  UNL     1      30.777  -9.867  26.530  1.00  0.00     0.163 HD
BRANCH  15  18
HETATM   18  C7  UNL     1      31.932  -8.668  28.591  1.00  0.00     0.100 A 
HETATM   19  C8  UNL     1      32.563  -8.130  29.686  1.00  0.00     0.036 A 
HETATM   20  C9  UNL     1      31.838  -6.988  30.030  1.00  0.00     0.019 A 
HETATM   21  C10 UNL     1      30.794  -6.857  29.150  1.00  0.00     0.088 A 
HETATM   22  N6  UNL     1      30.888  -7.895  28.295  1.00  0.00    -0.361 N 
ATOM     23  H6  UNL     1      30.243  -8.066  27.524  1.00  0.00     0.165 HD
ENDBRANCH  15  18
ENDBRANCH  13  14
BRANCH  13  24
HETATM   24  C11 UNL     1      30.740 -12.065  25.388  1.00  0.00     0.249 C 
HETATM   25  F1  UNL     1      29.622 -11.868  26.170  1.00  0.00    -0.242 F 
BRANCH  24  26
HETATM   26  C12 UNL     1      30.879 -13.547  25.142  1.00  0.00     0.289 C 
BRANCH  26  27
HETATM   27  O2  UNL     1      30.600 -13.884  23.819  1.00  0.00    -0.368 OA
ATOM     28  H2  UNL     1      30.939 -14.742  23.593  1.00  0.00     0.212 HD
ENDBRANCH  26  27
BRANCH  26  29
HETATM   29  O3  UNL     1      32.191 -13.937  25.400  1.00  0.00    -0.368 OA
ATOM     30  H3  UNL     1      32.324 -14.824  25.087  1.00  0.00     0.212 HD
ENDBRANCH  26  29
ENDBRANCH  24  26
ENDBRANCH  13  24
ENDBRANCH  11  13
ENDBRANCH   1  11
TORSDOF 8
ENDMDL
MODEL 2
REMARK VINA RESULT: -8.295415582      2.576      3.037
REMARK  8 active torsions:
REMARK  status: ('A' for Active; 'I' for Inactive)
REMARK    1  A    between atoms: C2_2  and  N1_3 
REMARK    2  A    between atoms: C2_2  and  C5_13 
REMARK       I    between atoms: N1_3  and  C3_5 
REMARK       I    between atoms: C3_5  and  N3_9 
REMARK    3  A    between atoms: C5_13  and  N5_14 
REMARK    4  A    between atoms: C5_13  and  C11_24 
REMARK       I    between atoms: N5_14  and  C6_16 
REMARK    5  A    between atoms: C6_16  and  C7_18 
REMARK    6  A    between atoms: C11_24  and  C12_26 
REMARK    7  A    between atoms: C12_26  and  O2_27 
REMARK    8  A    between atoms: C12_26  and  O3_29 
ROOT
HETATM    1  N1  UNL     1      34.035 -11.716  22.993  1.00  0.00    -0.218 N 
ATOM      2  H1  UNL     1      34.790 -11.129  23.349  1.00  0.00     0.178 HD
HETATM    3  C3  UNL     1      34.293 -12.755  22.056  1.00  0.00     0.698 C 
HETATM    4  N2  UNL     1      34.870 -12.462  20.940  1.00  0.00    -0.131 N 
ATOM      5  H2  UNL     1      35.047 -13.221  20.281  1.00  0.00     0.199 HD
HETATM    6 CL1  UNL     1      35.361 -10.873  20.491  1.00  0.00     0.026 Cl
HETATM    7  N3  UNL     1      33.949 -14.107  22.283  1.00  0.00    -0.125 N 
ATOM      8  H3  UNL     1      33.952 -14.443  23.247  1.00  0.00     0.197 HD
HETATM    9  C4  UNL     1      33.605 -15.014  21.278  1.00  0.00     0.196 C 
HETATM   10  N4  UNL     1      33.340 -15.772  20.445  1.00  0.00    -0.171 NA
ENDROOT
BRANCH   1  11
HETATM   11  C2  UNL     1      32.675 -11.521  23.422  1.00  0.00     0.121 C 
HETATM   12  C1  UNL     1      32.480 -10.077  23.848  1.00  0.00     0.035 C 
BRANCH  11  13
HETATM   13  C5  UNL     1      32.328 -12.369  24.628  1.00  0.00     0.146 C 
BRANCH  13  14
HETATM   14  N5  UNL     1      32.366 -11.468  25.775  1.00  0.00    -0.346 N 
HETATM   15  C6  UNL     1      33.551 -11.210  26.501  1.00  0.00     0.268 C 
HETATM   16  O1  UNL     1      34.608 -11.779  26.144  1.00  0.00    -0.266 OA
ATOM     17  H5  UNL     1      31.504 -11.006  26.065  1.00  0.00     0.163 HD
BRANCH  15  18
HETATM   18  C7  UNL     1      33.517 -10.298  27.636  1.00  0.00     0.100 A 
HETATM   19  C8  UNL     1      34.627  -9.710  28.190  1.00  0.00     0.036 A 
HETATM   20  C9  UNL     1      34.164  -8.920  29.243  1.00  0.00     0.019 A 
HETATM   21  C10 UNL     1      32.800  -9.042  29.308  1.00  0.00     0.088 A 
HETATM   22  N6  UNL     1      32.448  -9.886  28.318  1.00  0.00    -0.361 N 
ATOM     23  H6  UNL     1      31.490 -10.172  28.116  1.00  0.00     0.165 HD
ENDBRANCH  15  18
ENDBRANCH  13  14
BRANCH  13  24
HETATM   24  C11 UNL     1      30.915 -12.904  24.549  1.00  0.00     0.249 C 
HETATM   25  F1  UNL     1      30.226 -12.676  25.722  1.00  0.00    -0.242 F 
BRANCH  24  26
HETATM   26  C12 UNL     1      30.981 -14.395  24.333  1.00  0.00     0.289 C 
BRANCH  26  27
HETATM   27  O2  UNL     1      30.940 -14.727  22.980  1.00  0.00    -0.368 OA
ATOM     28  H2  UNL     1      31.195 -15.630  22.828  1.00  0.00     0.212 HD
ENDBRANCH  26  27
BRANCH  26  29
HETATM   29  O3  UNL     1      32.183 -14.883  24.841  1.00  0.00    -0.368 OA
ATOM     30  H3  UNL     1      32.063 -15.132  25.750  1.00  0.00     0.212 HD
ENDBRANCH  26  29
ENDBRANCH  24  26
ENDBRANCH  13  24
ENDBRANCH  11  13
ENDBRANCH   1  11
TORSDOF 8
ENDMDL
MODEL 3
REMARK VINA RESULT: -8.171321285      2.881      6.669
REMARK  8 active torsions:
REMARK  status: ('A' for Active; 'I' for Inactive)
REMARK    1  A    between atoms: C2_2  and  N1_3 
REMARK    2  A    between atoms: C2_2  and  C5_13 
REMARK       I    between atoms: N1_3  and  C3_5 
REMARK       I    between atoms: C3_5  and  N3_9 
REMARK    3  A    between atoms: C5_13  and  N5_14 
REMARK    4  A    between atoms: C5_13  and  C11_24 
REMARK       I    between atoms: N5_14  and  C6_16 
REMARK    5  A    between atoms: C6_16  and  C7_18 
REMARK    6  A    between atoms: C11_24  and  C12_26 
REMARK    7  A    between atoms: C12_26  and  O2_27 
REMARK    8  A    between atoms: C12_26  and  O3_29 
ROOT
HETATM    1  N1  UNL     1      33.451  -9.932  25.028  1.00  0.00    -0.218 N 
ATOM      2  H1  UNL     1      33.769  -9.493  24.163  1.00  0.00     0.178 HD
HETATM    3  C3  UNL     1      33.345  -9.186  26.234  1.00  0.00     0.698 C 
HETATM    4  N2  UNL     1      34.386  -8.573  26.685  1.00  0.00    -0.131 N 
ATOM      5  H2  UNL     1      34.289  -8.043  27.551  1.00  0.00     0.199 HD
HETATM    6 CL1  UNL     1      35.929  -8.593  25.920  1.00  0.00     0.026 Cl
HETATM    7  N3  UNL     1      32.145  -9.077  26.974  1.00  0.00    -0.125 N 
ATOM      8  H3  UNL     1      31.264  -9.113  26.461  1.00  0.00     0.197 HD
HETATM    9  C4  UNL     1      32.085  -8.921  28.361  1.00  0.00     0.196 C 
HETATM   10  N4  UNL     1      32.033  -8.773  29.507  1.00  0.00    -0.171 NA
ENDROOT
BRANCH   1  11
HETATM   11  C2  UNL     1      33.096 -11.327  25.067  1.00  0.00     0.121 C 
HETATM   12  C1  UNL     1      34.358 -12.171  25.088  1.00  0.00     0.035 C 
BRANCH  11  13
HETATM   13  C5  UNL     1      32.321 -11.755  23.838  1.00  0.00     0.146 C 
BRANCH  13  14
HETATM   14  N5  UNL     1      32.844 -13.067  23.471  1.00  0.00    -0.346 N 
HETATM   15  C6  UNL     1      33.432 -13.327  22.213  1.00  0.00     0.268 C 
HETATM   16  O1  UNL     1      33.504 -12.393  21.382  1.00  0.00    -0.266 OA
ATOM     17  H5  UNL     1      32.782 -13.826  24.149  1.00  0.00     0.163 HD
BRANCH  15  18
HETATM   18  C7  UNL     1      33.934 -14.661  21.914  1.00  0.00     0.100 A 
HETATM   19  C8  UNL     1      33.152 -15.703  21.482  1.00  0.00     0.036 A 
HETATM   20  C9  UNL     1      34.010 -16.791  21.314  1.00  0.00     0.019 A 
HETATM   21  C10 UNL     1      35.280 -16.393  21.645  1.00  0.00     0.088 A 
HETATM   22  N6  UNL     1      35.190 -15.097  22.003  1.00  0.00    -0.361 N 
ATOM     23  H6  UNL     1      35.979 -14.525  22.303  1.00  0.00     0.165 HD
ENDBRANCH  15  18
ENDBRANCH  13  14
BRANCH  13  24
HETATM   24  C11 UNL     1      30.852 -11.948  24.143  1.00  0.00     0.249 C 
HETATM   25  F1  UNL     1      30.121 -10.825  23.815  1.00  0.00    -0.242 F 
BRANCH  24  26
HETATM   26  C12 UNL     1      30.699 -12.183  25.625  1.00  0.00     0.289 C 
BRANCH  26  27
HETATM   27  O2  UNL     1      29.378 -12.035  26.043  1.00  0.00    -0.368 OA
ATOM     28  H2  UNL     1      28.825 -12.740  25.728  1.00  0.00     0.212 HD
ENDBRANCH  26  27
BRANCH  26  29
HETATM   29  O3  UNL     1      31.083 -13.488  25.927  1.00  0.00    -0.368 OA
ATOM     30  H3  UNL     1      31.134 -13.592  26.870  1.00  0.00     0.212 HD
ENDBRANCH  26  29
ENDBRANCH  24  26
ENDBRANCH  13  24
ENDBRANCH  11  13
ENDBRANCH   1  11
TORSDOF 8
ENDMDL
MODEL 4
REMARK VINA RESULT: -8.114126828      3.076      6.672
REMARK  8 active torsions:
REMARK  status: ('A' for Active; 'I' for Inactive)
REMARK    1  A    between atoms: C2_2  and  N1_3 
REMARK    2  A    between atoms: C2_2  and  C5_13 
REMARK       I    between atoms: N1_3  and  C3_5 
REMARK       I    between atoms: C3_5  and  N3_9 
REMARK    3  A    between atoms: C5_13  and  N5_14 
REMARK    4  A    between atoms: C5_13  and  C11_24 
REMARK       I    between atoms: N5_14  and  C6_16 
REMARK    5  A    between atoms: C6_16  and  C7_18 
REMARK    6  A    between atoms: C11_24  and  C12_26 
REMARK    7  A    between atoms: C12_26  and  O2_27 
REMARK    8  A    between atoms: C12_26  and  O3_29 
ROOT
HETATM    1  N1  UNL     1      34.440  -9.812  25.254  1.00  0.00    -0.218 N 
ATOM      2  H1  UNL     1      34.480  -9.119  24.506  1.00  0.00     0.178 HD
HETATM    3  C3  UNL     1      34.517  -9.423  26.620  1.00  0.00     0.698 C 
HETATM    4  N2  UNL     1      35.537  -8.745  27.022  1.00  0.00    -0.131 N 
ATOM      5  H2  UNL     1      35.573  -8.475  28.005  1.00  0.00     0.199 HD
HETATM    6 CL1  UNL     1      36.843  -8.266  26.006  1.00  0.00     0.026 Cl
HETATM    7  N3  UNL     1      33.522  -9.742  27.573  1.00  0.00    -0.125 N 
ATOM      8  H3  UNL     1      32.559  -9.826  27.246  1.00  0.00     0.197 HD
HETATM    9  C4  UNL     1      33.769  -9.948  28.932  1.00  0.00     0.196 C 
HETATM   10  N4  UNL     1      33.968 -10.100  30.062  1.00  0.00    -0.171 NA
ENDROOT
BRANCH   1  11
HETATM   11  C2  UNL     1      34.306 -11.215  24.961  1.00  0.00     0.121 C 
HETATM   12  C1  UNL     1      35.649 -11.773  24.528  1.00  0.00     0.035 C 
BRANCH  11  13
HETATM   13  C5  UNL     1      33.351 -11.471  23.814  1.00  0.00     0.146 C 
BRANCH  13  14
HETATM   14  N5  UNL     1      33.546 -12.866  23.434  1.00  0.00    -0.346 N 
HETATM   15  C6  UNL     1      33.677 -13.278  22.089  1.00  0.00     0.268 C 
HETATM   16  O1  UNL     1      33.622 -12.408  21.189  1.00  0.00    -0.266 OA
ATOM     17  H5  UNL     1      33.588 -13.572  24.169  1.00  0.00     0.163 HD
BRANCH  15  18
HETATM   18  C7  UNL     1      33.870 -14.688  21.782  1.00  0.00     0.100 A 
HETATM   19  C8  UNL     1      32.880 -15.523  21.323  1.00  0.00     0.036 A 
HETATM   20  C9  UNL     1      33.474 -16.775  21.157  1.00  0.00     0.019 A 
HETATM   21  C10 UNL     1      34.794 -16.679  21.515  1.00  0.00     0.088 A 
HETATM   22  N6  UNL     1      34.992 -15.398  21.888  1.00  0.00    -0.361 N 
ATOM     23  H6  UNL     1      35.884 -15.023  22.209  1.00  0.00     0.165 HD
ENDBRANCH  15  18
ENDBRANCH  13  14
BRANCH  13  24
HETATM   24  C11 UNL     1      31.907 -11.341  24.248  1.00  0.00     0.249 C 
HETATM   25  F1  UNL     1      31.483 -10.030  24.190  1.00  0.00    -0.242 F 
BRANCH  24  26
HETATM   26  C12 UNL     1      31.797 -11.802  25.680  1.00  0.00     0.289 C 
BRANCH  26  27
HETATM   27  O2  UNL     1      30.880 -11.040  26.402  1.00  0.00    -0.368 OA
ATOM     28  H2  UNL     1      30.131 -10.791  25.874  1.00  0.00     0.212 HD
ENDBRANCH  26  27
BRANCH  26  29
HETATM   29  O3  UNL     1      31.350 -13.121  25.707  1.00  0.00    -0.368 OA
ATOM     30  H3  UNL     1      30.752 -13.266  24.984  1.00  0.00     0.212 HD
ENDBRANCH  26  29
ENDBRANCH  24  26
ENDBRANCH  13  24
ENDBRANCH  11  13
ENDBRANCH   1  11
TORSDOF 8
ENDMDL
MODEL 5
REMARK VINA RESULT: -7.999980658      3.174      6.081
REMARK  8 active torsions:
REMARK  status: ('A' for Active; 'I' for Inactive)
REMARK    1  A    between atoms: C2_2  and  N1_3 
REMARK    2  A    between atoms: C2_2  and  C5_13 
REMARK       I    between atoms: N1_3  and  C3_5 
REMARK       I    between atoms: C3_5  and  N3_9 
REMARK    3  A    between atoms: C5_13  and  N5_14 
REMARK    4  A    between atoms: C5_13  and  C11_24 
REMARK       I    between atoms: N5_14  and  C6_16 
REMARK    5  A    between atoms: C6_16  and  C7_18 
REMARK    6  A    between atoms: C11_24  and  C12_26 
REMARK    7  A    between atoms: C12_26  and  O2_27 
REMARK    8  A    between atoms: C12_26  and  O3_29 
ROOT
HETATM    1  N1  UNL     1      33.983 -11.331  24.792  1.00  0.00    -0.218 N 
ATOM      2  H1  UNL     1      33.740 -11.341  25.783  1.00  0.00     0.178 HD
HETATM    3  C3  UNL     1      35.339 -11.402  24.368  1.00  0.00     0.698 C 
HETATM    4  N2  UNL     1      36.176 -10.518  24.794  1.00  0.00    -0.131 N 
ATOM      5  H2  UNL     1      37.144 -10.587  24.479  1.00  0.00     0.199 HD
HETATM    6 CL1  UNL     1      35.764  -9.229  25.860  1.00  0.00     0.026 Cl
HETATM    7  N3  UNL     1      35.826 -12.402  23.495  1.00  0.00    -0.125 N 
ATOM      8  H3  UNL     1      35.379 -13.319  23.525  1.00  0.00     0.197 HD
HETATM    9  C4  UNL     1      36.878 -12.220  22.595  1.00  0.00     0.196 C 
HETATM   10  N4  UNL     1      37.762 -12.076  21.862  1.00  0.00    -0.171 NA
ENDROOT
BRANCH   1  11
HETATM   11  C2  UNL     1      32.965 -11.243  23.777  1.00  0.00     0.121 C 
HETATM   12  C1  UNL     1      32.287  -9.887  23.856  1.00  0.00     0.035 C 
BRANCH  11  13
HETATM   13  C5  UNL     1      31.874 -12.275  23.972  1.00  0.00     0.146 C 
BRANCH  13  14
HETATM   14  N5  UNL     1      32.431 -13.540  23.505  1.00  0.00    -0.346 N 
HETATM   15  C6  UNL     1      33.169 -13.651  22.306  1.00  0.00     0.268 C 
HETATM   16  O1  UNL     1      33.349 -12.620  21.617  1.00  0.00    -0.266 OA
ATOM     17  H5  UNL     1      32.281 -14.378  24.067  1.00  0.00     0.163 HD
BRANCH  15  18
HETATM   18  C7  UNL     1      33.697 -14.946  21.901  1.00  0.00     0.100 A 
HETATM   19  C8  UNL     1      32.944 -15.948  21.341  1.00  0.00     0.036 A 
HETATM   20  C9  UNL     1      33.820 -17.008  21.104  1.00  0.00     0.019 A 
HETATM   21  C10 UNL     1      35.072 -16.634  21.521  1.00  0.00     0.088 A 
HETATM   22  N6  UNL     1      34.954 -15.379  21.997  1.00  0.00    -0.361 N 
ATOM     23  H6  UNL     1      35.724 -14.832  22.380  1.00  0.00     0.165 HD
ENDBRANCH  15  18
ENDBRANCH  13  14
BRANCH  13  24
HETATM   24  C11 UNL     1      31.539 -12.466  25.435  1.00  0.00     0.249 C 
HETATM   25  F1  UNL     1      31.218 -13.779  25.708  1.00  0.00    -0.242 F 
BRANCH  24  26
HETATM   26  C12 UNL     1      30.336 -11.616  25.764  1.00  0.00     0.289 C 
BRANCH  26  27
HETATM   27  O2  UNL     1      29.287 -12.376  26.276  1.00  0.00    -0.368 OA
ATOM     28  H2  UNL     1      28.440 -12.018  26.038  1.00  0.00     0.212 HD
ENDBRANCH  26  27
BRANCH  26  29
HETATM   29  O3  UNL     1      30.683 -10.682  26.737  1.00  0.00    -0.368 OA
ATOM     30  H3  UNL     1      30.230 -10.887  27.546  1.00  0.00     0.212 HD
ENDBRANCH  26  29
ENDBRANCH  24  26
ENDBRANCH  13  24
ENDBRANCH  11  13
ENDBRANCH   1  11
TORSDOF 8
ENDMDL
