MODEL 1
REMARK VINA RESULT: -6.892624504      0.000      0.000
REMARK  9 active torsions:
REMARK  status: ('A' for Active; 'I' for Inactive)
REMARK    1  A    between atoms: C1_4  and  C2_5 
REMARK    2  A    between atoms: C1_4  and  N2_8 
REMARK    3  A    between atoms: C2_5  and  C3_6 
REMARK    4  A    between atoms: N2_8  and  N3_10 
REMARK    5  A    between atoms: C6_13  and  N4_14 
REMARK    6  A    between atoms: C7_18  and  N5_19 
REMARK       I    between atoms: N5_19  and  C8_21 
REMARK       I    between atoms: C8_21  and  N6_23 
REMARK    7  A    between atoms: N6_23  and  C9_25 
REMARK    8  A    between atoms: C9_25  and  C10_26 
REMARK    9  A    between atoms: C11_28  and  O2_29 
ROOT
HETATM    1  N3  UNL     1      32.968 -12.147  24.102  1.00  0.00    -0.199 NA
HETATM    2  C4  UNL     1      32.501 -13.393  24.671  1.00  0.00     0.119 C 
HETATM    3  C5  UNL     1      30.998 -13.357  24.767  1.00  0.00     0.051 C 
HETATM    4  C6  UNL     1      30.483 -12.089  25.379  1.00  0.00     0.211 C 
HETATM    5  C7  UNL     1      31.656 -11.350  25.993  1.00  0.00     0.161 C 
HETATM    6  C11 UNL     1      32.572 -10.991  24.840  1.00  0.00     0.236 C 
ENDROOT
BRANCH   1   7
HETATM    7  N2  UNL     1      34.314 -12.174  23.849  1.00  0.00    -0.306 N 
ATOM      8  H2  UNL     1      34.974 -12.277  24.620  1.00  0.00     0.182 HD
BRANCH   7   9
HETATM    9  C1  UNL     1      34.792 -12.060  22.522  1.00  0.00     0.086 C 
HETATM   10  N1  UNL     1      33.984 -12.253  21.538  1.00  0.00    -0.388 N 
ATOM     11  H12 UNL     1      34.328 -12.171  20.581  1.00  0.00     0.157 HD
ATOM     12  H11 UNL     1      33.001 -12.489  21.673  1.00  0.00     0.157 HD
BRANCH   9  13
HETATM   13  C2  UNL     1      36.220 -11.716  22.326  1.00  0.00     0.092 C 
BRANCH  13  14
HETATM   14  C3  UNL     1      37.081 -12.919  22.601  1.00  0.00     0.122 C 
HETATM   15 CL1  UNL     1      37.728 -12.845  24.257  1.00  0.00    -0.130 Cl
ENDBRANCH  13  14
ENDBRANCH   9  13
ENDBRANCH   7   9
ENDBRANCH   1   7
BRANCH   6  16
HETATM   16  O2  UNL     1      31.802 -10.188  23.971  1.00  0.00    -0.377 OA
ATOM     17  H2  UNL     1      31.323  -9.571  24.511  1.00  0.00     0.211 HD
ENDBRANCH   6  16
BRANCH   5  18
HETATM   18  N5  UNL     1      31.250 -10.180  26.714  1.00  0.00    -0.333 N 
HETATM   19  C8  UNL     1      31.988  -9.618  27.792  1.00  0.00     0.316 C 
HETATM   20  O1  UNL     1      33.055 -10.201  28.114  1.00  0.00    -0.247 OA
HETATM   21  N6  UNL     1      31.585  -8.472  28.495  1.00  0.00    -0.342 N 
ATOM     22  H6  UNL     1      30.713  -8.032  28.201  1.00  0.00     0.164 HD
ATOM     23  H5  UNL     1      30.381  -9.723  26.437  1.00  0.00     0.164 HD
BRANCH  21  24
HETATM   24  C9  UNL     1      32.280  -7.867  29.580  1.00  0.00     0.139 C 
BRANCH  24  25
HETATM   25  C10 UNL     1      31.564  -6.693  30.186  1.00  0.00     0.134 C 
HETATM   26 CL2  UNL     1      30.065  -6.437  29.260  1.00  0.00    -0.129 Cl
ENDBRANCH  24  25
ENDBRANCH  21  24
ENDBRANCH   5  18
BRANCH   4  27
HETATM   27  N4  UNL     1      29.453 -12.371  26.352  1.00  0.00    -0.073 N 
ATOM     28  H43 UNL     1      28.591 -12.688  25.908  1.00  0.00     0.274 HD
ATOM     29  H42 UNL     1      29.665 -13.209  26.894  1.00  0.00     0.274 HD
ATOM     30  H41 UNL     1      29.293 -11.563  26.954  1.00  0.00     0.274 HD
ENDBRANCH   4  27
TORSDOF 9
ENDMDL
MODEL 2
REMARK VINA RESULT: -6.766473412      1.189      1.227
REMARK  9 active torsions:
REMARK  status: ('A' for Active; 'I' for Inactive)
REMARK    1  A    between atoms: C1_4  and  C2_5 
REMARK    2  A    between atoms: C1_4  and  N2_8 
REMARK    3  A    between atoms: C2_5  and  C3_6 
REMARK    4  A    between atoms: N2_8  and  N3_10 
REMARK    5  A    between atoms: C6_13  and  N4_14 
REMARK    6  A    between atoms: C7_18  and  N5_19 
REMARK       I    between atoms: N5_19  and  C8_21 
REMARK       I    between atoms: C8_21  and  N6_23 
REMARK    7  A    between atoms: N6_23  and  C9_25 
REMARK    8  A    between atoms: C9_25  and  C10_26 
REMARK    9  A    between atoms: C11_28  and  O2_29 
ROOT
HETATM    1  N3  UNL     1      32.972 -12.094  24.059  1.00  0.00    -0.199 NA
HETATM    2  C4  UNL     1      32.507 -13.353  24.599  1.00  0.00     0.119 C 
HETATM    3  C5  UNL     1      31.004 -13.316  24.708  1.00  0.00     0.051 C 
HETATM    4  C6  UNL     1      30.498 -12.063  25.358  1.00  0.00     0.211 C 
HETATM    5  C7  UNL     1      31.679 -11.343  25.981  1.00  0.00     0.161 C 
HETATM    6  C11 UNL     1      32.585 -10.957  24.830  1.00  0.00     0.236 C 
ENDROOT
BRANCH   1   7
HETATM    7  N2  UNL     1      34.316 -12.118  23.794  1.00  0.00    -0.306 N 
ATOM      8  H2  UNL     1      34.985 -12.162  24.563  1.00  0.00     0.182 HD
BRANCH   7   9
HETATM    9  C1  UNL     1      34.779 -12.081  22.457  1.00  0.00     0.086 C 
HETATM   10  N1  UNL     1      33.975 -12.384  21.498  1.00  0.00    -0.388 N 
ATOM     11  H12 UNL     1      34.309 -12.358  20.535  1.00  0.00     0.157 HD
ATOM     12  H11 UNL     1      33.004 -12.654  21.661  1.00  0.00     0.157 HD
BRANCH   9  13
HETATM   13  C2  UNL     1      36.190 -11.690  22.222  1.00  0.00     0.092 C 
BRANCH  13  14
HETATM   14  C3  UNL     1      36.564 -11.952  20.789  1.00  0.00     0.122 C 
HETATM   15 CL1  UNL     1      36.412 -10.459  19.832  1.00  0.00    -0.130 Cl
ENDBRANCH  13  14
ENDBRANCH   9  13
ENDBRANCH   7   9
ENDBRANCH   1   7
BRANCH   6  16
HETATM   16  O2  UNL     1      31.810 -10.130  23.989  1.00  0.00    -0.377 OA
ATOM     17  H2  UNL     1      31.399 -10.694  23.344  1.00  0.00     0.211 HD
ENDBRANCH   6  16
BRANCH   5  18
HETATM   18  N5  UNL     1      31.282 -10.191  26.736  1.00  0.00    -0.333 N 
HETATM   19  C8  UNL     1      32.050  -9.635  27.795  1.00  0.00     0.316 C 
HETATM   20  O1  UNL     1      33.138 -10.205  28.067  1.00  0.00    -0.247 OA
HETATM   21  N6  UNL     1      31.656  -8.507  28.531  1.00  0.00    -0.342 N 
ATOM     22  H6  UNL     1      30.767  -8.076  28.276  1.00  0.00     0.164 HD
ATOM     23  H5  UNL     1      30.396  -9.744  26.499  1.00  0.00     0.164 HD
BRANCH  21  24
HETATM   24  C9  UNL     1      32.382  -7.908  29.599  1.00  0.00     0.139 C 
BRANCH  24  25
HETATM   25  C10 UNL     1      31.649  -6.788  30.284  1.00  0.00     0.134 C 
HETATM   26 CL2  UNL     1      30.172  -6.457  29.347  1.00  0.00    -0.129 Cl
ENDBRANCH  24  25
ENDBRANCH  21  24
ENDBRANCH   5  18
BRANCH   4  27
HETATM   27  N4  UNL     1      29.476 -12.368  26.332  1.00  0.00    -0.073 N 
ATOM     28  H43 UNL     1      29.166 -11.532  26.828  1.00  0.00     0.274 HD
ATOM     29  H42 UNL     1      28.593 -12.619  25.887  1.00  0.00     0.274 HD
ATOM     30  H41 UNL     1      29.794 -13.093  26.975  1.00  0.00     0.274 HD
ENDBRANCH   4  27
TORSDOF 9
ENDMDL
MODEL 3
REMARK VINA RESULT: -6.714110141      1.583      1.739
REMARK  9 active torsions:
REMARK  status: ('A' for Active; 'I' for Inactive)
REMARK    1  A    between atoms: C1_4  and  C2_5 
REMARK    2  A    between atoms: C1_4  and  N2_8 
REMARK    3  A    between atoms: C2_5  and  C3_6 
REMARK    4  A    between atoms: N2_8  and  N3_10 
REMARK    5  A    between atoms: C6_13  and  N4_14 
REMARK    6  A    between atoms: C7_18  and  N5_19 
REMARK       I    between atoms: N5_19  and  C8_21 
REMARK       I    between atoms: C8_21  and  N6_23 
REMARK    7  A    between atoms: N6_23  and  C9_25 
REMARK    8  A    between atoms: C9_25  and  C10_26 
REMARK    9  A    between atoms: C11_28  and  O2_29 
ROOT
HETATM    1  N3  UNL     1      32.552 -11.596  23.385  1.00  0.00    -0.199 NA
HETATM    2  C4  UNL     1      32.374 -12.925  23.926  1.00  0.00     0.119 C 
HETATM    3  C5  UNL     1      30.931 -13.106  24.323  1.00  0.00     0.051 C 
HETATM    4  C6  UNL     1      30.402 -11.960  25.132  1.00  0.00     0.211 C 
HETATM    5  C7  UNL     1      31.576 -11.101  25.561  1.00  0.00     0.161 C 
HETATM    6  C11 UNL     1      32.178 -10.552  24.283  1.00  0.00     0.236 C 
ENDROOT
BRANCH   1   7
HETATM    7  N2  UNL     1      33.808 -11.420  22.867  1.00  0.00    -0.306 N 
ATOM      8  H2  UNL     1      33.921 -11.055  21.921  1.00  0.00     0.182 HD
BRANCH   7   9
HETATM    9  C1  UNL     1      34.949 -11.742  23.639  1.00  0.00     0.086 C 
HETATM   10  N1  UNL     1      35.881 -12.466  23.122  1.00  0.00    -0.388 N 
ATOM     11  H12 UNL     1      36.704 -12.699  23.679  1.00  0.00     0.157 HD
ATOM     12  H11 UNL     1      35.833 -12.823  22.168  1.00  0.00     0.157 HD
BRANCH   9  13
HETATM   13  C2  UNL     1      35.018 -11.222  25.025  1.00  0.00     0.092 C 
BRANCH  13  14
HETATM   14  C3  UNL     1      36.038 -10.119  25.110  1.00  0.00     0.122 C 
HETATM   15 CL1  UNL     1      35.327  -8.687  25.892  1.00  0.00    -0.130 Cl
ENDBRANCH  13  14
ENDBRANCH   9  13
ENDBRANCH   7   9
ENDBRANCH   1   7
BRANCH   6  16
HETATM   16  O2  UNL     1      31.150  -9.815  23.657  1.00  0.00    -0.377 OA
ATOM     17  H2  UNL     1      31.567  -9.193  23.073  1.00  0.00     0.211 HD
ENDBRANCH   6  16
BRANCH   5  18
HETATM   18  N5  UNL     1      31.188 -10.043  26.446  1.00  0.00    -0.333 N 
HETATM   19  C8  UNL     1      31.971  -9.605  27.549  1.00  0.00     0.316 C 
HETATM   20  O1  UNL     1      33.066 -10.197  27.738  1.00  0.00    -0.247 OA
HETATM   21  N6  UNL     1      31.585  -8.569  28.413  1.00  0.00    -0.342 N 
ATOM     22  H6  UNL     1      30.691  -8.117  28.222  1.00  0.00     0.164 HD
ATOM     23  H5  UNL     1      30.297  -9.577  26.274  1.00  0.00     0.164 HD
BRANCH  21  24
HETATM   24  C9  UNL     1      32.326  -8.089  29.530  1.00  0.00     0.139 C 
BRANCH  24  25
HETATM   25  C10 UNL     1      31.687  -6.925  30.233  1.00  0.00     0.134 C 
HETATM   26 CL2  UNL     1      30.245  -6.455  29.299  1.00  0.00    -0.129 Cl
ENDBRANCH  24  25
ENDBRANCH  21  24
ENDBRANCH   5  18
BRANCH   4  27
HETATM   27  N4  UNL     1      29.642 -12.439  26.263  1.00  0.00    -0.073 N 
ATOM     28  H43 UNL     1      29.742 -13.446  26.386  1.00  0.00     0.274 HD
ATOM     29  H42 UNL     1      30.049 -12.135  27.148  1.00  0.00     0.274 HD
ATOM     30  H41 UNL     1      28.663 -12.163  26.184  1.00  0.00     0.274 HD
ENDBRANCH   4  27
TORSDOF 9
ENDMDL
MODEL 4
REMARK VINA RESULT: -6.678011714      1.505      1.629
REMARK  9 active torsions:
REMARK  status: ('A' for Active; 'I' for Inactive)
REMARK    1  A    between atoms: C1_4  and  C2_5 
REMARK    2  A    between atoms: C1_4  and  N2_8 
REMARK    3  A    between atoms: C2_5  and  C3_6 
REMARK    4  A    between atoms: N2_8  and  N3_10 
REMARK    5  A    between atoms: C6_13  and  N4_14 
REMARK    6  A    between atoms: C7_18  and  N5_19 
REMARK       I    between atoms: N5_19  and  C8_21 
REMARK       I    between atoms: C8_21  and  N6_23 
REMARK    7  A    between atoms: N6_23  and  C9_25 
REMARK    8  A    between atoms: C9_25  and  C10_26 
REMARK    9  A    between atoms: C11_28  and  O2_29 
ROOT
HETATM    1  N3  UNL     1      33.023 -12.090  24.123  1.00  0.00    -0.199 NA
HETATM    2  C4  UNL     1      32.551 -13.346  24.664  1.00  0.00     0.119 C 
HETATM    3  C5  UNL     1      31.046 -13.312  24.747  1.00  0.00     0.051 C 
HETATM    4  C6  UNL     1      30.526 -12.056  25.378  1.00  0.00     0.211 C 
HETATM    5  C7  UNL     1      31.694 -11.329  26.017  1.00  0.00     0.161 C 
HETATM    6  C11 UNL     1      32.620 -10.948  24.879  1.00  0.00     0.236 C 
ENDROOT
BRANCH   1   7
HETATM    7  N2  UNL     1      34.371 -12.112  23.882  1.00  0.00    -0.306 N 
ATOM      8  H2  UNL     1      35.028 -12.076  24.661  1.00  0.00     0.182 HD
BRANCH   7   9
HETATM    9  C1  UNL     1      34.856 -12.187  22.554  1.00  0.00     0.086 C 
HETATM   10  N1  UNL     1      35.982 -11.636  22.258  1.00  0.00    -0.388 N 
ATOM     11  H12 UNL     1      36.332 -11.689  21.302  1.00  0.00     0.157 HD
ATOM     12  H11 UNL     1      36.548 -11.140  22.947  1.00  0.00     0.157 HD
BRANCH   9  13
HETATM   13  C2  UNL     1      34.033 -12.908  21.554  1.00  0.00     0.092 C 
BRANCH  13  14
HETATM   14  C3  UNL     1      34.503 -14.331  21.431  1.00  0.00     0.122 C 
HETATM   15 CL1  UNL     1      33.160 -15.452  21.759  1.00  0.00    -0.130 Cl
ENDBRANCH  13  14
ENDBRANCH   9  13
ENDBRANCH   7   9
ENDBRANCH   1   7
BRANCH   6  16
HETATM   16  O2  UNL     1      31.858 -10.129  24.018  1.00  0.00    -0.377 OA
ATOM     17  H2  UNL     1      31.822  -9.266  24.413  1.00  0.00     0.211 HD
ENDBRANCH   6  16
BRANCH   5  18
HETATM   18  N5  UNL     1      31.281 -10.172  26.756  1.00  0.00    -0.333 N 
HETATM   19  C8  UNL     1      32.033  -9.602  27.820  1.00  0.00     0.316 C 
HETATM   20  O1  UNL     1      33.121 -10.164  28.110  1.00  0.00    -0.247 OA
HETATM   21  N6  UNL     1      31.624  -8.470  28.540  1.00  0.00    -0.342 N 
ATOM     22  H6  UNL     1      30.736  -8.046  28.271  1.00  0.00     0.164 HD
ATOM     23  H5  UNL     1      30.396  -9.732  26.504  1.00  0.00     0.164 HD
BRANCH  21  24
HETATM   24  C9  UNL     1      32.333  -7.857  29.612  1.00  0.00     0.139 C 
BRANCH  24  25
HETATM   25  C10 UNL     1      31.586  -6.736  30.278  1.00  0.00     0.134 C 
HETATM   26 CL2  UNL     1      30.115  -6.426  29.323  1.00  0.00    -0.129 Cl
ENDBRANCH  24  25
ENDBRANCH  21  24
ENDBRANCH   5  18
BRANCH   4  27
HETATM   27  N4  UNL     1      29.488 -12.356  26.336  1.00  0.00    -0.073 N 
ATOM     28  H43 UNL     1      29.856 -12.414  27.286  1.00  0.00     0.274 HD
ATOM     29  H42 UNL     1      28.854 -11.567  26.465  1.00  0.00     0.274 HD
ATOM     30  H41 UNL     1      28.986 -13.203  26.073  1.00  0.00     0.274 HD
ENDBRANCH   4  27
TORSDOF 9
ENDMDL
MODEL 5
REMARK VINA RESULT: -6.608265016      2.071      2.179
REMARK  9 active torsions:
REMARK  status: ('A' for Active; 'I' for Inactive)
REMARK    1  A    between atoms: C1_4  and  C2_5 
REMARK    2  A    between atoms: C1_4  and  N2_8 
REMARK    3  A    between atoms: C2_5  and  C3_6 
REMARK    4  A    between atoms: N2_8  and  N3_10 
REMARK    5  A    between atoms: C6_13  and  N4_14 
REMARK    6  A    between atoms: C7_18  and  N5_19 
REMARK       I    between atoms: N5_19  and  C8_21 
REMARK       I    between atoms: C8_21  and  N6_23 
REMARK    7  A    between atoms: N6_23  and  C9_25 
REMARK    8  A    between atoms: C9_25  and  C10_26 
REMARK    9  A    between atoms: C11_28  and  O2_29 
ROOT
HETATM    1  N3  UNL     1      32.720 -12.751  23.405  1.00  0.00    -0.199 NA
HETATM    2  C4  UNL     1      32.355 -13.870  24.247  1.00  0.00     0.119 C 
HETATM    3  C5  UNL     1      30.881 -13.794  24.553  1.00  0.00     0.051 C 
HETATM    4  C6  UNL     1      30.449 -12.430  25.001  1.00  0.00     0.211 C 
HETATM    5  C7  UNL     1      31.692 -11.613  25.297  1.00  0.00     0.161 C 
HETATM    6  C11 UNL     1      32.425 -11.478  23.977  1.00  0.00     0.236 C 
ENDROOT
BRANCH   1   7
HETATM    7  N2  UNL     1      34.015 -12.844  22.967  1.00  0.00    -0.306 N 
ATOM      8  H2  UNL     1      34.783 -12.630  23.603  1.00  0.00     0.182 HD
BRANCH   7   9
HETATM    9  C1  UNL     1      34.290 -13.236  21.635  1.00  0.00     0.086 C 
HETATM   10  N1  UNL     1      34.181 -12.374  20.684  1.00  0.00    -0.388 N 
ATOM     11  H12 UNL     1      34.379 -12.657  19.724  1.00  0.00     0.157 HD
ATOM     12  H11 UNL     1      33.901 -11.407  20.850  1.00  0.00     0.157 HD
BRANCH   9  13
HETATM   13  C2  UNL     1      34.697 -14.641  21.396  1.00  0.00     0.092 C 
BRANCH  13  14
HETATM   14  C3  UNL     1      33.669 -15.337  20.546  1.00  0.00     0.122 C 
HETATM   15 CL1  UNL     1      32.573 -16.294  21.571  1.00  0.00    -0.130 Cl
ENDBRANCH  13  14
ENDBRANCH   9  13
ENDBRANCH   7   9
ENDBRANCH   1   7
BRANCH   6  16
HETATM   16  O2  UNL     1      31.528 -10.828  23.102  1.00  0.00    -0.377 OA
ATOM     17  H2  UNL     1      31.382  -9.955  23.450  1.00  0.00     0.211 HD
ENDBRANCH   6  16
BRANCH   5  18
HETATM   18  N5  UNL     1      31.385 -10.328  25.852  1.00  0.00    -0.333 N 
HETATM   19  C8  UNL     1      31.987  -9.810  27.031  1.00  0.00     0.316 C 
HETATM   20  O1  UNL     1      32.837 -10.541  27.603  1.00  0.00    -0.247 OA
HETATM   21  N6  UNL     1      31.682  -8.551  27.570  1.00  0.00    -0.342 N 
ATOM     22  H6  UNL     1      30.988  -7.992  27.074  1.00  0.00     0.164 HD
ATOM     23  H5  UNL     1      30.693  -9.752  25.373  1.00  0.00     0.164 HD
BRANCH  21  24
HETATM   24  C9  UNL     1      32.251  -7.982  28.745  1.00  0.00     0.139 C 
BRANCH  24  25
HETATM   25  C10 UNL     1      31.373  -6.965  29.419  1.00  0.00     0.134 C 
HETATM   26 CL2  UNL     1      32.125  -6.553  30.980  1.00  0.00    -0.129 Cl
ENDBRANCH  24  25
ENDBRANCH  21  24
ENDBRANCH   5  18
BRANCH   4  27
HETATM   27  N4  UNL     1      29.576 -12.519  26.148  1.00  0.00    -0.073 N 
ATOM     28  H43 UNL     1      29.084 -11.642  26.318  1.00  0.00     0.274 HD
ATOM     29  H42 UNL     1      28.769 -13.115  25.963  1.00  0.00     0.274 HD
ATOM     30  H41 UNL     1      30.092 -12.829  26.972  1.00  0.00     0.274 HD
ENDBRANCH   4  27
TORSDOF 9
ENDMDL
