MODEL 1
REMARK VINA RESULT: -7.427866081      0.000      0.000
REMARK  7 active torsions:
REMARK  status: ('A' for Active; 'I' for Inactive)
REMARK    1  A    between atoms: C3_3  and  O1_4 
REMARK    2  A    between atoms: N1_8  and  N2_9 
REMARK    3  A    between atoms: C16_21  and  C17_22 
REMARK    4  A    between atoms: C17_22  and  C18_24 
REMARK    5  A    between atoms: C18_24  and  C19_25 
REMARK    6  A    between atoms: C19_25  and  C20_26 
REMARK    7  A    between atoms: C20_26  and  C21_27 
ROOT
HETATM    1  N2  UNL     1       5.324  14.097  27.843  1.00  0.00    -0.301 N 
ATOM      2  H2  UNL     1       4.359  14.358  27.638  1.00  0.00     0.187 HD
HETATM    3  C6  UNL     1       5.727  14.198  29.066  1.00  0.00     0.004 C 
HETATM    4  C7  UNL     1       7.094  13.832  29.385  1.00  0.00     0.055 C 
HETATM    5  C8  UNL     1       7.370  13.433  30.802  1.00  0.00     0.016 C 
HETATM    6  C9  UNL     1       6.306  13.795  31.785  1.00  0.00    -0.032 C 
HETATM    7  C10 UNL     1       5.320  12.613  31.801  1.00  0.00     0.016 C 
HETATM    8  C11 UNL     1       5.471  14.979  31.333  1.00  0.00    -0.000 C 
HETATM    9  C12 UNL     1       6.257  16.238  31.252  1.00  0.00     0.006 C 
HETATM   10  C13 UNL     1       7.389  16.313  32.271  1.00  0.00     0.011 C 
HETATM   11  C14 UNL     1       7.102  15.498  33.495  1.00  0.00    -0.026 C 
HETATM   12  C15 UNL     1       6.001  16.154  34.309  1.00  0.00     0.016 C 
HETATM   13  C16 UNL     1       8.288  15.460  34.401  1.00  0.00     0.064 C 
HETATM   14  C22 UNL     1       9.132  14.375  33.735  1.00  0.00     0.013 C 
HETATM   15  C23 UNL     1       8.074  13.329  33.499  1.00  0.00     0.011 C 
HETATM   16  C24 UNL     1       6.799  14.054  33.171  1.00  0.00    -0.028 C 
HETATM   17  C25 UNL     1       5.775  13.572  34.179  1.00  0.00     0.016 C 
HETATM   18  C26 UNL     1       4.743  14.687  30.039  1.00  0.00     0.059 C 
ENDROOT
BRANCH   1  19
HETATM   19  N1  UNL     1       6.114  13.658  26.786  1.00  0.00    -0.246 N 
HETATM   20  C4  UNL     1       6.629  14.445  25.841  1.00  0.00     0.065 A 
HETATM   21  C3  UNL     1       7.364  13.707  24.934  1.00  0.00     0.099 A 
HETATM   22  C5  UNL     1       6.461  15.907  25.743  1.00  0.00     0.073 C 
HETATM   23  C2  UNL     1       7.286  12.405  25.355  1.00  0.00     0.014 A 
HETATM   24  C1  UNL     1       7.938  11.257  24.666  1.00  0.00     0.054 C 
HETATM   25  C27 UNL     1       6.510  12.410  26.497  1.00  0.00     0.134 A 
HETATM   26 CL1  UNL     1       6.125  10.970  27.400  1.00  0.00    -0.062 Cl
BRANCH  21  27
HETATM   27  O1  UNL     1       8.051  14.158  23.817  1.00  0.00    -0.358 OA
ATOM     28  H1  UNL     1       7.841  14.936  23.314  1.00  0.00     0.217 HD
ENDBRANCH  21  27
ENDBRANCH   1  19
BRANCH  13  29
HETATM   29  C17 UNL     1       9.033  16.649  34.704  1.00  0.00     0.131 C 
HETATM   30  O2  UNL     1       8.441  17.488  35.429  1.00  0.00    -0.298 OA
BRANCH  29  31
HETATM   31  C18 UNL     1      10.389  17.052  34.303  1.00  0.00     0.079 C 
BRANCH  31  32
HETATM   32  C19 UNL     1      10.387  18.080  33.205  1.00  0.00     0.016 C 
BRANCH  32  33
HETATM   33  C20 UNL     1      11.244  17.828  32.036  1.00  0.00     0.118 C 
BRANCH  33  34
HETATM   34  C21 UNL     1      12.612  18.404  32.155  1.00  0.00     0.387 C 
HETATM   35  F1  UNL     1      12.845  19.222  31.064  1.00  0.00    -0.171 F 
HETATM   36  F2  UNL     1      13.575  17.365  32.040  1.00  0.00    -0.171 F 
HETATM   37  F3  UNL     1      12.806  19.080  33.306  1.00  0.00    -0.171 F 
ENDBRANCH  33  34
ENDBRANCH  32  33
ENDBRANCH  31  32
ENDBRANCH  29  31
ENDBRANCH  13  29
TORSDOF 7
ENDMDL
MODEL 2
REMARK VINA RESULT: -7.405681531      1.761      2.328
REMARK  7 active torsions:
REMARK  status: ('A' for Active; 'I' for Inactive)
REMARK    1  A    between atoms: C3_3  and  O1_4 
REMARK    2  A    between atoms: N1_8  and  N2_9 
REMARK    3  A    between atoms: C16_21  and  C17_22 
REMARK    4  A    between atoms: C17_22  and  C18_24 
REMARK    5  A    between atoms: C18_24  and  C19_25 
REMARK    6  A    between atoms: C19_25  and  C20_26 
REMARK    7  A    between atoms: C20_26  and  C21_27 
ROOT
HETATM    1  N2  UNL     1       4.994  14.588  28.360  1.00  0.00    -0.301 N 
ATOM      2  H2  UNL     1       3.977  14.544  28.282  1.00  0.00     0.187 HD
HETATM    3  C6  UNL     1       5.493  15.033  29.466  1.00  0.00     0.004 C 
HETATM    4  C7  UNL     1       6.935  15.103  29.605  1.00  0.00     0.055 C 
HETATM    5  C8  UNL     1       7.478  15.081  31.001  1.00  0.00     0.016 C 
HETATM    6  C9  UNL     1       6.479  15.346  32.078  1.00  0.00    -0.032 C 
HETATM    7  C10 UNL     1       5.879  13.978  32.448  1.00  0.00     0.016 C 
HETATM    8  C11 UNL     1       5.294  16.159  31.588  1.00  0.00    -0.000 C 
HETATM    9  C12 UNL     1       5.674  17.535  31.175  1.00  0.00     0.006 C 
HETATM   10  C13 UNL     1       6.850  18.103  31.963  1.00  0.00     0.011 C 
HETATM   11  C14 UNL     1       6.953  17.504  33.333  1.00  0.00    -0.026 C 
HETATM   12  C15 UNL     1       5.815  18.003  34.205  1.00  0.00     0.016 C 
HETATM   13  C16 UNL     1       8.199  17.956  34.020  1.00  0.00     0.064 C 
HETATM   14  C22 UNL     1       9.232  17.015  33.405  1.00  0.00     0.013 C 
HETATM   15  C23 UNL     1       8.496  15.706  33.522  1.00  0.00     0.011 C 
HETATM   16  C24 UNL     1       7.038  15.996  33.301  1.00  0.00    -0.028 C 
HETATM   17  C25 UNL     1       6.319  15.479  34.531  1.00  0.00     0.016 C 
HETATM   18  C26 UNL     1       4.532  15.436  30.500  1.00  0.00     0.059 C 
ENDROOT
BRANCH   1  19
HETATM   19  N1  UNL     1       5.746  14.164  27.269  1.00  0.00    -0.246 N 
HETATM   20  C4  UNL     1       6.149  12.910  27.062  1.00  0.00     0.065 A 
HETATM   21  C3  UNL     1       6.878  12.817  25.893  1.00  0.00     0.099 A 
HETATM   22  C5  UNL     1       5.875  11.756  27.936  1.00  0.00     0.073 C 
HETATM   23  C2  UNL     1       6.917  14.082  25.368  1.00  0.00     0.014 A 
HETATM   24  C1  UNL     1       7.606  14.447  24.100  1.00  0.00     0.054 C 
HETATM   25  C27 UNL     1       6.211  14.888  26.240  1.00  0.00     0.134 A 
HETATM   26 CL1  UNL     1       5.984  16.598  25.995  1.00  0.00    -0.062 Cl
BRANCH  21  27
HETATM   27  O1  UNL     1       7.464  11.691  25.336  1.00  0.00    -0.358 OA
ATOM     28  H1  UNL     1       6.999  10.944  24.977  1.00  0.00     0.217 HD
ENDBRANCH  21  27
ENDBRANCH   1  19
BRANCH  13  29
HETATM   29  C17 UNL     1       8.605  19.333  33.999  1.00  0.00     0.131 C 
HETATM   30  O2  UNL     1       8.153  20.044  34.931  1.00  0.00    -0.298 OA
BRANCH  29  31
HETATM   31  C18 UNL     1       9.472  20.056  33.057  1.00  0.00     0.079 C 
BRANCH  31  32
HETATM   32  C19 UNL     1      10.897  20.145  33.532  1.00  0.00     0.016 C 
BRANCH  32  33
HETATM   33  C20 UNL     1      11.958  20.055  32.517  1.00  0.00     0.118 C 
BRANCH  33  34
HETATM   34  C21 UNL     1      12.406  18.664  32.233  1.00  0.00     0.387 C 
HETATM   35  F1  UNL     1      13.645  18.714  31.618  1.00  0.00    -0.171 F 
HETATM   36  F2  UNL     1      11.546  18.078  31.265  1.00  0.00    -0.171 F 
HETATM   37  F3  UNL     1      12.452  17.885  33.333  1.00  0.00    -0.171 F 
ENDBRANCH  33  34
ENDBRANCH  32  33
ENDBRANCH  31  32
ENDBRANCH  29  31
ENDBRANCH  13  29
TORSDOF 7
ENDMDL
MODEL 3
REMARK VINA RESULT: -7.397349410      1.315      1.730
REMARK  7 active torsions:
REMARK  status: ('A' for Active; 'I' for Inactive)
REMARK    1  A    between atoms: C3_3  and  O1_4 
REMARK    2  A    between atoms: N1_8  and  N2_9 
REMARK    3  A    between atoms: C16_21  and  C17_22 
REMARK    4  A    between atoms: C17_22  and  C18_24 
REMARK    5  A    between atoms: C18_24  and  C19_25 
REMARK    6  A    between atoms: C19_25  and  C20_26 
REMARK    7  A    between atoms: C20_26  and  C21_27 
ROOT
HETATM    1  N2  UNL     1       5.052  14.569  28.124  1.00  0.00    -0.301 N 
ATOM      2  H2  UNL     1       4.043  14.584  27.971  1.00  0.00     0.187 HD
HETATM    3  C6  UNL     1       5.495  15.013  29.254  1.00  0.00     0.004 C 
HETATM    4  C7  UNL     1       6.925  15.001  29.499  1.00  0.00     0.055 C 
HETATM    5  C8  UNL     1       7.362  14.984  30.931  1.00  0.00     0.016 C 
HETATM    6  C9  UNL     1       6.305  15.337  31.925  1.00  0.00    -0.032 C 
HETATM    7  C10 UNL     1       5.596  14.017  32.279  1.00  0.00     0.016 C 
HETATM    8  C11 UNL     1       5.210  16.206  31.330  1.00  0.00    -0.000 C 
HETATM    9  C12 UNL     1       5.704  17.545  30.916  1.00  0.00     0.006 C 
HETATM   10  C13 UNL     1       6.851  18.062  31.777  1.00  0.00     0.011 C 
HETATM   11  C14 UNL     1       6.817  17.496  33.164  1.00  0.00    -0.026 C 
HETATM   12  C15 UNL     1       5.651  18.084  33.937  1.00  0.00     0.016 C 
HETATM   13  C16 UNL     1       8.034  17.890  33.932  1.00  0.00     0.064 C 
HETATM   14  C22 UNL     1       9.050  16.873  33.416  1.00  0.00     0.013 C 
HETATM   15  C23 UNL     1       8.229  15.614  33.507  1.00  0.00     0.011 C 
HETATM   16  C24 UNL     1       6.811  15.984  33.171  1.00  0.00    -0.028 C 
HETATM   17  C25 UNL     1       5.974  15.544  34.355  1.00  0.00     0.016 C 
HETATM   18  C26 UNL     1       4.488  15.500  30.204  1.00  0.00     0.059 C 
ENDROOT
BRANCH   1  19
HETATM   19  N1  UNL     1       5.855  14.073  27.102  1.00  0.00    -0.246 N 
HETATM   20  C4  UNL     1       6.368  14.805  26.112  1.00  0.00     0.065 A 
HETATM   21  C3  UNL     1       7.117  14.019  25.260  1.00  0.00     0.099 A 
HETATM   22  C5  UNL     1       6.183  16.254  25.920  1.00  0.00     0.073 C 
HETATM   23  C2  UNL     1       7.052  12.746  25.762  1.00  0.00     0.014 A 
HETATM   24  C1  UNL     1       7.722  11.564  25.152  1.00  0.00     0.054 C 
HETATM   25  C27 UNL     1       6.267  12.814  26.897  1.00  0.00     0.134 A 
HETATM   26 CL1  UNL     1       5.893  11.430  27.887  1.00  0.00    -0.062 Cl
BRANCH  21  27
HETATM   27  O1  UNL     1       7.806  14.405  24.120  1.00  0.00    -0.358 OA
ATOM     28  H1  UNL     1       8.092  13.828  23.423  1.00  0.00     0.217 HD
ENDBRANCH  21  27
ENDBRANCH   1  19
BRANCH  13  29
HETATM   29  C17 UNL     1       8.525  19.239  33.911  1.00  0.00     0.131 C 
HETATM   30  O2  UNL     1       8.132  19.972  34.854  1.00  0.00    -0.298 OA
BRANCH  29  31
HETATM   31  C18 UNL     1       9.419  19.913  32.958  1.00  0.00     0.079 C 
BRANCH  31  32
HETATM   32  C19 UNL     1      10.832  20.019  33.465  1.00  0.00     0.016 C 
BRANCH  32  33
HETATM   33  C20 UNL     1      11.919  19.828  32.492  1.00  0.00     0.118 C 
BRANCH  33  34
HETATM   34  C21 UNL     1      12.267  18.401  32.247  1.00  0.00     0.387 C 
HETATM   35  F1  UNL     1      12.198  17.716  33.447  1.00  0.00    -0.171 F 
HETATM   36  F2  UNL     1      13.630  18.307  31.856  1.00  0.00    -0.171 F 
HETATM   37  F3  UNL     1      11.485  17.815  31.318  1.00  0.00    -0.171 F 
ENDBRANCH  33  34
ENDBRANCH  32  33
ENDBRANCH  31  32
ENDBRANCH  29  31
ENDBRANCH  13  29
TORSDOF 7
ENDMDL
MODEL 4
REMARK VINA RESULT: -7.100602260      1.708      2.344
REMARK  7 active torsions:
REMARK  status: ('A' for Active; 'I' for Inactive)
REMARK    1  A    between atoms: C3_3  and  O1_4 
REMARK    2  A    between atoms: N1_8  and  N2_9 
REMARK    3  A    between atoms: C16_21  and  C17_22 
REMARK    4  A    between atoms: C17_22  and  C18_24 
REMARK    5  A    between atoms: C18_24  and  C19_25 
REMARK    6  A    between atoms: C19_25  and  C20_26 
REMARK    7  A    between atoms: C20_26  and  C21_27 
ROOT
HETATM    1  N2  UNL     1       4.966  14.408  29.170  1.00  0.00    -0.301 N 
ATOM      2  H2  UNL     1       3.966  14.504  28.995  1.00  0.00     0.187 HD
HETATM    3  C6  UNL     1       5.464  15.041  30.180  1.00  0.00     0.004 C 
HETATM    4  C7  UNL     1       6.883  14.918  30.453  1.00  0.00     0.055 C 
HETATM    5  C8  UNL     1       7.322  15.175  31.862  1.00  0.00     0.016 C 
HETATM    6  C9  UNL     1       6.319  15.863  32.727  1.00  0.00    -0.032 C 
HETATM    7  C10 UNL     1       5.461  14.749  33.354  1.00  0.00     0.016 C 
HETATM    8  C11 UNL     1       5.332  16.696  31.928  1.00  0.00    -0.000 C 
HETATM    9  C12 UNL     1       5.977  17.841  31.235  1.00  0.00     0.006 C 
HETATM   10  C13 UNL     1       7.182  18.403  31.983  1.00  0.00     0.011 C 
HETATM   11  C14 UNL     1       7.087  18.172  33.460  1.00  0.00    -0.026 C 
HETATM   12  C15 UNL     1       6.003  19.051  34.055  1.00  0.00     0.016 C 
HETATM   13  C16 UNL     1       8.347  18.586  34.146  1.00  0.00     0.064 C 
HETATM   14  C22 UNL     1       9.233  17.368  33.895  1.00  0.00     0.013 C 
HETATM   15  C23 UNL     1       8.269  16.265  34.248  1.00  0.00     0.011 C 
HETATM   16  C24 UNL     1       6.904  16.712  33.807  1.00  0.00    -0.028 C 
HETATM   17  C25 UNL     1       6.026  16.651  35.041  1.00  0.00     0.016 C 
HETATM   18  C26 UNL     1       4.526  15.843  30.974  1.00  0.00     0.059 C 
ENDROOT
BRANCH   1  19
HETATM   19  N1  UNL     1       5.701  13.604  28.303  1.00  0.00    -0.246 N 
HETATM   20  C4  UNL     1       6.147  13.983  27.105  1.00  0.00     0.065 A 
HETATM   21  C3  UNL     1       6.839  12.957  26.493  1.00  0.00     0.099 A 
HETATM   22  C5  UNL     1       5.950  15.306  26.486  1.00  0.00     0.073 C 
HETATM   23  C2  UNL     1       6.807  11.903  27.368  1.00  0.00     0.014 A 
HETATM   24  C1  UNL     1       7.435  10.578  27.113  1.00  0.00     0.054 C 
HETATM   25  C27 UNL     1       6.099  12.335  28.473  1.00  0.00     0.134 A 
HETATM   26 CL1  UNL     1       5.790  11.333  29.864  1.00  0.00    -0.062 Cl
BRANCH  21  27
HETATM   27  O1  UNL     1       7.452  12.959  25.249  1.00  0.00    -0.358 OA
ATOM     28  H1  UNL     1       7.006  12.908  24.412  1.00  0.00     0.217 HD
ENDBRANCH  21  27
ENDBRANCH   1  19
BRANCH  13  29
HETATM   29  C17 UNL     1       8.993  19.829  33.833  1.00  0.00     0.131 C 
HETATM   30  O2  UNL     1       8.677  20.801  34.565  1.00  0.00    -0.298 OA
BRANCH  29  31
HETATM   31  C18 UNL     1       9.972  20.157  32.787  1.00  0.00     0.079 C 
BRANCH  31  32
HETATM   32  C19 UNL     1      11.388  20.149  33.295  1.00  0.00     0.016 C 
BRANCH  32  33
HETATM   33  C20 UNL     1      12.435  19.666  32.382  1.00  0.00     0.118 C 
BRANCH  33  34
HETATM   34  C21 UNL     1      12.521  18.182  32.291  1.00  0.00     0.387 C 
HETATM   35  F1  UNL     1      12.423  17.654  33.566  1.00  0.00    -0.171 F 
HETATM   36  F2  UNL     1      13.817  17.809  31.844  1.00  0.00    -0.171 F 
HETATM   37  F3  UNL     1      11.587  17.644  31.480  1.00  0.00    -0.171 F 
ENDBRANCH  33  34
ENDBRANCH  32  33
ENDBRANCH  31  32
ENDBRANCH  29  31
ENDBRANCH  13  29
TORSDOF 7
ENDMDL
MODEL 5
REMARK VINA RESULT: -7.028324494      5.557      8.829
REMARK  7 active torsions:
REMARK  status: ('A' for Active; 'I' for Inactive)
REMARK    1  A    between atoms: C3_3  and  O1_4 
REMARK    2  A    between atoms: N1_8  and  N2_9 
REMARK    3  A    between atoms: C16_21  and  C17_22 
REMARK    4  A    between atoms: C17_22  and  C18_24 
REMARK    5  A    between atoms: C18_24  and  C19_25 
REMARK    6  A    between atoms: C19_25  and  C20_26 
REMARK    7  A    between atoms: C20_26  and  C21_27 
ROOT
HETATM    1  N2  UNL     1       1.921  16.391  34.704  1.00  0.00    -0.301 N 
ATOM      2  H2  UNL     1       1.690  17.372  34.869  1.00  0.00     0.187 HD
HETATM    3  C6  UNL     1       2.905  16.132  33.908  1.00  0.00     0.004 C 
HETATM    4  C7  UNL     1       3.256  14.747  33.658  1.00  0.00     0.055 C 
HETATM    5  C8  UNL     1       4.662  14.479  33.216  1.00  0.00     0.016 C 
HETATM    6  C9  UNL     1       5.422  15.675  32.747  1.00  0.00    -0.032 C 
HETATM    7  C10 UNL     1       6.087  16.276  33.999  1.00  0.00     0.016 C 
HETATM    8  C11 UNL     1       4.515  16.779  32.234  1.00  0.00    -0.000 C 
HETATM    9  C12 UNL     1       3.771  16.387  31.009  1.00  0.00     0.006 C 
HETATM   10  C13 UNL     1       4.533  15.408  30.122  1.00  0.00     0.011 C 
HETATM   11  C14 UNL     1       6.017  15.542  30.280  1.00  0.00    -0.026 C 
HETATM   12  C15 UNL     1       6.490  16.845  29.662  1.00  0.00     0.016 C 
HETATM   13  C16 UNL     1       6.733  14.470  29.526  1.00  0.00     0.064 C 
HETATM   14  C22 UNL     1       6.618  13.300  30.500  1.00  0.00     0.013 C 
HETATM   15  C23 UNL     1       7.004  13.987  31.783  1.00  0.00     0.011 C 
HETATM   16  C24 UNL     1       6.463  15.387  31.715  1.00  0.00    -0.028 C 
HETATM   17  C25 UNL     1       7.653  16.305  31.918  1.00  0.00     0.016 C 
HETATM   18  C26 UNL     1       3.588  17.288  33.316  1.00  0.00     0.059 C 
ENDROOT
BRANCH   1  19
HETATM   19  N1  UNL     1       1.155  15.427  35.352  1.00  0.00    -0.246 N 
HETATM   20  C4  UNL     1      -0.096  15.101  35.025  1.00  0.00     0.065 A 
HETATM   21  C3  UNL     1      -0.578  14.112  35.859  1.00  0.00     0.099 A 
HETATM   22  C5  UNL     1      -0.887  15.691  33.931  1.00  0.00     0.073 C 
HETATM   23  C2  UNL     1       0.436  13.828  36.736  1.00  0.00     0.014 A 
HETATM   24  C1  UNL     1       0.351  12.813  37.822  1.00  0.00     0.054 C 
HETATM   25  C27 UNL     1       1.489  14.655  36.397  1.00  0.00     0.134 A 
HETATM   26 CL1  UNL     1       3.014  14.660  37.239  1.00  0.00    -0.062 Cl
BRANCH  21  27
HETATM   27  O1  UNL     1      -1.826  13.509  35.842  1.00  0.00    -0.358 OA
ATOM     28  H1  UNL     1      -2.647  13.927  36.071  1.00  0.00     0.217 HD
ENDBRANCH  21  27
ENDBRANCH   1  19
BRANCH  13  29
HETATM   29  C17 UNL     1       6.360  14.127  28.183  1.00  0.00     0.131 C 
HETATM   30  O2  UNL     1       6.728  14.938  27.296  1.00  0.00    -0.298 OA
BRANCH  29  31
HETATM   31  C18 UNL     1       5.610  12.972  27.668  1.00  0.00     0.079 C 
BRANCH  31  32
HETATM   32  C19 UNL     1       6.257  12.354  26.459  1.00  0.00     0.016 C 
BRANCH  32  33
HETATM   33  C20 UNL     1       7.152  11.207  26.678  1.00  0.00     0.118 C 
BRANCH  33  34
HETATM   34  C21 UNL     1       7.682  10.606  25.422  1.00  0.00     0.387 C 
HETATM   35  F1  UNL     1       6.621  10.113  24.685  1.00  0.00    -0.171 F 
HETATM   36  F2  UNL     1       8.465   9.463  25.738  1.00  0.00    -0.171 F 
HETATM   37  F3  UNL     1       8.413  11.470  24.687  1.00  0.00    -0.171 F 
ENDBRANCH  33  34
ENDBRANCH  32  33
ENDBRANCH  31  32
ENDBRANCH  29  31
ENDBRANCH  13  29
TORSDOF 7
ENDMDL
