MODEL 1
REMARK VINA RESULT: -6.873981047      0.000      0.000
REMARK  6 active torsions:
REMARK  status: ('A' for Active; 'I' for Inactive)
REMARK    1  A    between atoms: C3_3  and  C4_4 
REMARK    2  A    between atoms: C4_4  and  C5_5 
REMARK    3  A    between atoms: C5_5  and  C6_6 
REMARK    4  A    between atoms: N1_16  and  C11_17 
REMARK    5  A    between atoms: C11_17  and  C12_18 
REMARK    6  A    between atoms: C14_20  and  C15_21 
ROOT
HETATM    1  C1  UNL     1       6.499  15.641  25.203  1.00  0.00     0.069 C 
HETATM    2  C2  UNL     1       6.445  14.840  26.467  1.00  0.00     0.016 A 
HETATM    3  C3  UNL     1       5.919  15.357  27.662  1.00  0.00    -0.021 A 
HETATM    4  C7  UNL     1       6.032  14.322  28.591  1.00  0.00     0.030 A 
HETATM    5  C8  UNL     1       5.683  14.180  29.912  1.00  0.00     0.089 A 
HETATM    6 CL1  UNL     1       4.936  15.287  31.045  1.00  0.00    -0.075 Cl
HETATM    7  S1  UNL     1       6.137  12.586  30.275  1.00  0.00    -0.062 SA
HETATM    8  C9  UNL     1       6.761  12.124  28.746  1.00  0.00     0.103 A 
HETATM    9 CL2  UNL     1       7.414  10.544  28.334  1.00  0.00    -0.074 Cl
HETATM   10  C10 UNL     1       6.590  13.258  27.993  1.00  0.00     0.077 A 
HETATM   11  N1  UNL     1       6.845  13.581  26.678  1.00  0.00    -0.343 N 
ENDROOT
BRANCH  11  12
HETATM   12  C11 UNL     1       7.423  12.774  25.633  1.00  0.00     0.175 C 
BRANCH  12  13
HETATM   13  C12 UNL     1       6.362  11.914  24.978  1.00  0.00     0.003 A 
HETATM   14  C13 UNL     1       5.770  12.147  23.761  1.00  0.00     0.028 A 
HETATM   15  C14 UNL     1       4.848  11.257  23.341  1.00  0.00     0.006 A 
HETATM   16  C18 UNL     1       4.584  10.202  24.168  1.00  0.00     0.061 A 
HETATM   17 BR1  UNL     1       3.343   8.746  23.913  1.00  0.00    -0.042 Br
HETATM   18  S2  UNL     1       5.613  10.474  25.488  1.00  0.00    -0.085 SA
BRANCH  15  19
HETATM   19  C15 UNL     1       4.097  11.364  22.018  1.00  0.00     0.125 C 
HETATM   20  C16 UNL     1       4.637  12.529  21.221  1.00  0.00     0.057 C 
HETATM   21  C17 UNL     1       2.617  11.499  22.238  1.00  0.00     0.057 C 
HETATM   22  F1  UNL     1       4.305  10.227  21.265  1.00  0.00    -0.238 F 
ENDBRANCH  15  19
ENDBRANCH  12  13
ENDBRANCH  11  12
BRANCH   3  23
HETATM   23  C4  UNL     1       5.338  16.699  27.835  1.00  0.00     0.052 C 
BRANCH  23  24
HETATM   24  C5  UNL     1       3.875  16.821  27.647  1.00  0.00     0.118 C 
BRANCH  24  25
HETATM   25  C6  UNL     1       3.346  17.714  26.655  1.00  0.00     0.172 C 
HETATM   26  O1  UNL     1       2.144  17.884  26.428  1.00  0.00    -0.648 OA
HETATM   27  O2  UNL     1       4.246  18.454  25.883  1.00  0.00    -0.648 OA
ENDBRANCH  24  25
ENDBRANCH  23  24
ENDBRANCH   3  23
TORSDOF 6
ENDMDL
MODEL 2
REMARK VINA RESULT: -6.546266802      5.646      8.784
REMARK  6 active torsions:
REMARK  status: ('A' for Active; 'I' for Inactive)
REMARK    1  A    between atoms: C3_3  and  C4_4 
REMARK    2  A    between atoms: C4_4  and  C5_5 
REMARK    3  A    between atoms: C5_5  and  C6_6 
REMARK    4  A    between atoms: N1_16  and  C11_17 
REMARK    5  A    between atoms: C11_17  and  C12_18 
REMARK    6  A    between atoms: C14_20  and  C15_21 
ROOT
HETATM    1  C1  UNL     1       5.954  11.803  30.132  1.00  0.00     0.069 C 
HETATM    2  C2  UNL     1       5.992  12.954  29.175  1.00  0.00     0.016 A 
HETATM    3  C3  UNL     1       6.443  12.817  27.852  1.00  0.00    -0.021 A 
HETATM    4  C7  UNL     1       6.317  14.085  27.287  1.00  0.00     0.030 A 
HETATM    5  C8  UNL     1       6.561  14.606  26.039  1.00  0.00     0.089 A 
HETATM    6 CL1  UNL     1       7.177  13.874  24.572  1.00  0.00    -0.075 Cl
HETATM    7  S1  UNL     1       6.100  16.232  26.189  1.00  0.00    -0.062 SA
HETATM    8  C9  UNL     1       5.605  16.227  27.830  1.00  0.00     0.103 A 
HETATM    9 CL2  UNL     1       4.957  17.602  28.715  1.00  0.00    -0.074 Cl
HETATM   10  C10 UNL     1       5.824  14.927  28.210  1.00  0.00     0.077 A 
HETATM   11  N1  UNL     1       5.625  14.225  29.378  1.00  0.00    -0.343 N 
ENDROOT
BRANCH  11  12
HETATM   12  C11 UNL     1       5.105  14.681  30.642  1.00  0.00     0.175 C 
BRANCH  12  13
HETATM   13  C12 UNL     1       6.237  15.031  31.586  1.00  0.00     0.003 A 
HETATM   14  C13 UNL     1       6.642  14.295  32.673  1.00  0.00     0.028 A 
HETATM   15  C14 UNL     1       7.682  14.768  33.389  1.00  0.00     0.006 A 
HETATM   16  C18 UNL     1       8.240  15.942  32.968  1.00  0.00     0.061 A 
HETATM   17 BR1  UNL     1       9.721  16.919  33.727  1.00  0.00    -0.042 Br
HETATM   18  S2  UNL     1       7.314  16.348  31.605  1.00  0.00    -0.085 SA
BRANCH  15  19
HETATM   19  C15 UNL     1       8.257  14.078  34.620  1.00  0.00     0.125 C 
HETATM   20  C16 UNL     1       7.651  12.699  34.759  1.00  0.00     0.057 C 
HETATM   21  C17 UNL     1       8.030  14.895  35.861  1.00  0.00     0.057 C 
HETATM   22  F1  UNL     1       9.618  13.909  34.474  1.00  0.00    -0.238 F 
ENDBRANCH  15  19
ENDBRANCH  12  13
ENDBRANCH  11  12
BRANCH   3  23
HETATM   23  C4  UNL     1       6.899  11.564  27.227  1.00  0.00     0.052 C 
BRANCH  23  24
HETATM   24  C5  UNL     1       5.966  10.914  26.280  1.00  0.00     0.118 C 
BRANCH  24  25
HETATM   25  C6  UNL     1       6.407   9.810  25.474  1.00  0.00     0.172 C 
HETATM   26  O1  UNL     1       5.700   8.853  25.141  1.00  0.00    -0.648 OA
HETATM   27  O2  UNL     1       7.730   9.804  25.025  1.00  0.00    -0.648 OA
ENDBRANCH  24  25
ENDBRANCH  23  24
ENDBRANCH   3  23
TORSDOF 6
ENDMDL
MODEL 3
REMARK VINA RESULT: -6.518127220      3.278      4.198
REMARK  6 active torsions:
REMARK  status: ('A' for Active; 'I' for Inactive)
REMARK    1  A    between atoms: C3_3  and  C4_4 
REMARK    2  A    between atoms: C4_4  and  C5_5 
REMARK    3  A    between atoms: C5_5  and  C6_6 
REMARK    4  A    between atoms: N1_16  and  C11_17 
REMARK    5  A    between atoms: C11_17  and  C12_18 
REMARK    6  A    between atoms: C14_20  and  C15_21 
ROOT
HETATM    1  C1  UNL     1       6.867  11.639  28.362  1.00  0.00     0.069 C 
HETATM    2  C2  UNL     1       6.650  12.918  27.613  1.00  0.00     0.016 A 
HETATM    3  C3  UNL     1       5.990  14.019  28.183  1.00  0.00    -0.021 A 
HETATM    4  C7  UNL     1       5.996  15.004  27.195  1.00  0.00     0.030 A 
HETATM    5  C8  UNL     1       5.541  16.298  27.131  1.00  0.00     0.089 A 
HETATM    6 CL1  UNL     1       4.707  17.299  28.301  1.00  0.00    -0.075 Cl
HETATM    7  S1  UNL     1       5.988  16.800  25.573  1.00  0.00    -0.062 SA
HETATM    8  C9  UNL     1       6.746  15.363  25.028  1.00  0.00     0.103 A 
HETATM    9 CL2  UNL     1       7.503  15.128  23.458  1.00  0.00    -0.074 Cl
HETATM   10  C10 UNL     1       6.617  14.524  26.106  1.00  0.00     0.077 A 
HETATM   11  N1  UNL     1       7.020  13.233  26.367  1.00  0.00    -0.343 N 
ENDROOT
BRANCH  11  12
HETATM   12  C11 UNL     1       7.731  12.307  25.521  1.00  0.00     0.175 C 
BRANCH  12  13
HETATM   13  C12 UNL     1       6.916  11.048  25.310  1.00  0.00     0.003 A 
HETATM   14  C13 UNL     1       5.726  10.960  24.630  1.00  0.00     0.028 A 
HETATM   15  C14 UNL     1       5.153   9.742  24.540  1.00  0.00     0.006 A 
HETATM   16  C18 UNL     1       5.810   8.704  25.138  1.00  0.00     0.061 A 
HETATM   17 BR1  UNL     1       5.307   6.842  25.223  1.00  0.00    -0.042 Br
HETATM   18  S2  UNL     1       7.188   9.441  25.798  1.00  0.00    -0.085 SA
BRANCH  15  19
HETATM   19  C15 UNL     1       3.837   9.467  23.822  1.00  0.00     0.125 C 
HETATM   20  C16 UNL     1       3.247  10.768  23.327  1.00  0.00     0.057 C 
HETATM   21  C17 UNL     1       2.869   8.740  24.714  1.00  0.00     0.057 C 
HETATM   22  F1  UNL     1       4.059   8.675  22.715  1.00  0.00    -0.238 F 
ENDBRANCH  15  19
ENDBRANCH  12  13
ENDBRANCH  11  12
BRANCH   3  23
HETATM   23  C4  UNL     1       5.462  14.087  29.556  1.00  0.00     0.052 C 
BRANCH  23  24
HETATM   24  C5  UNL     1       6.399  14.542  30.608  1.00  0.00     0.118 C 
BRANCH  24  25
HETATM   25  C6  UNL     1       6.836  13.632  31.629  1.00  0.00     0.172 C 
HETATM   26  O1  UNL     1       7.765  13.846  32.414  1.00  0.00    -0.648 OA
HETATM   27  O2  UNL     1       6.169  12.411  31.758  1.00  0.00    -0.648 OA
ENDBRANCH  24  25
ENDBRANCH  23  24
ENDBRANCH   3  23
TORSDOF 6
ENDMDL
MODEL 4
REMARK VINA RESULT: -6.495282054      5.265      8.256
REMARK  6 active torsions:
REMARK  status: ('A' for Active; 'I' for Inactive)
REMARK    1  A    between atoms: C3_3  and  C4_4 
REMARK    2  A    between atoms: C4_4  and  C5_5 
REMARK    3  A    between atoms: C5_5  and  C6_6 
REMARK    4  A    between atoms: N1_16  and  C11_17 
REMARK    5  A    between atoms: C11_17  and  C12_18 
REMARK    6  A    between atoms: C14_20  and  C15_21 
ROOT
HETATM    1  C1  UNL     1       6.202  12.143  28.581  1.00  0.00     0.069 C 
HETATM    2  C2  UNL     1       6.103  13.482  27.916  1.00  0.00     0.016 A 
HETATM    3  C3  UNL     1       6.594  13.715  26.621  1.00  0.00    -0.021 A 
HETATM    4  C7  UNL     1       6.310  15.054  26.356  1.00  0.00     0.030 A 
HETATM    5  C8  UNL     1       6.505  15.879  25.275  1.00  0.00     0.089 A 
HETATM    6 CL1  UNL     1       7.242  15.593  23.712  1.00  0.00    -0.075 Cl
HETATM    7  S1  UNL     1       5.827  17.353  25.769  1.00  0.00    -0.062 SA
HETATM    8  C9  UNL     1       5.306  16.902  27.339  1.00  0.00     0.103 A 
HETATM    9 CL2  UNL     1       4.462  17.939  28.482  1.00  0.00    -0.074 Cl
HETATM   10  C10 UNL     1       5.690  15.588  27.421  1.00  0.00     0.077 A 
HETATM   11  N1  UNL     1       5.564  14.613  28.386  1.00  0.00    -0.343 N 
ENDROOT
BRANCH  11  12
HETATM   12  C11 UNL     1       4.964  14.691  29.694  1.00  0.00     0.175 C 
BRANCH  12  13
HETATM   13  C12 UNL     1       6.005  15.047  30.735  1.00  0.00     0.003 A 
HETATM   14  C13 UNL     1       6.471  14.221  31.728  1.00  0.00     0.028 A 
HETATM   15  C14 UNL     1       7.411  14.719  32.557  1.00  0.00     0.006 A 
HETATM   16  C18 UNL     1       7.815  16.005  32.333  1.00  0.00     0.061 A 
HETATM   17 BR1  UNL     1       9.121  17.048  33.299  1.00  0.00    -0.042 Br
HETATM   18  S2  UNL     1       6.888  16.478  30.994  1.00  0.00    -0.085 SA
BRANCH  15  19
HETATM   19  C15 UNL     1       8.036  13.939  33.709  1.00  0.00     0.125 C 
HETATM   20  C16 UNL     1       7.586  12.497  33.647  1.00  0.00     0.057 C 
HETATM   21  C17 UNL     1       7.694  14.556  35.036  1.00  0.00     0.057 C 
HETATM   22  F1  UNL     1       9.410  13.940  33.590  1.00  0.00    -0.238 F 
ENDBRANCH  15  19
ENDBRANCH  12  13
ENDBRANCH  11  12
BRANCH   3  23
HETATM   23  C4  UNL     1       7.226  12.711  25.749  1.00  0.00     0.052 C 
BRANCH  23  24
HETATM   24  C5  UNL     1       6.358  12.063  24.741  1.00  0.00     0.118 C 
BRANCH  24  25
HETATM   25  C6  UNL     1       5.560  10.924  25.100  1.00  0.00     0.172 C 
HETATM   26  O1  UNL     1       4.360  10.968  25.391  1.00  0.00    -0.648 OA
HETATM   27  O2  UNL     1       6.171   9.668  25.124  1.00  0.00    -0.648 OA
ENDBRANCH  24  25
ENDBRANCH  23  24
ENDBRANCH   3  23
TORSDOF 6
ENDMDL
MODEL 5
REMARK VINA RESULT: -6.452833583      1.364      1.695
REMARK  6 active torsions:
REMARK  status: ('A' for Active; 'I' for Inactive)
REMARK    1  A    between atoms: C3_3  and  C4_4 
REMARK    2  A    between atoms: C4_4  and  C5_5 
REMARK    3  A    between atoms: C5_5  and  C6_6 
REMARK    4  A    between atoms: N1_16  and  C11_17 
REMARK    5  A    between atoms: C11_17  and  C12_18 
REMARK    6  A    between atoms: C14_20  and  C15_21 
ROOT
HETATM    1  C1  UNL     1       6.852  14.882  24.840  1.00  0.00     0.069 C 
HETATM    2  C2  UNL     1       6.704  14.262  26.195  1.00  0.00     0.016 A 
HETATM    3  C3  UNL     1       6.047  14.914  27.252  1.00  0.00    -0.021 A 
HETATM    4  C7  UNL     1       6.106  14.026  28.325  1.00  0.00     0.030 A 
HETATM    5  C8  UNL     1       5.637  14.052  29.616  1.00  0.00     0.089 A 
HETATM    6 CL1  UNL     1       4.745  15.268  30.506  1.00  0.00    -0.075 Cl
HETATM    7  S1  UNL     1       6.109  12.548  30.242  1.00  0.00    -0.062 SA
HETATM    8  C9  UNL     1       6.894  11.909  28.859  1.00  0.00     0.103 A 
HETATM    9 CL2  UNL     1       7.639  10.320  28.738  1.00  0.00    -0.074 Cl
HETATM   10  C10 UNL     1       6.756  12.917  27.938  1.00  0.00     0.077 A 
HETATM   11  N1  UNL     1       7.126  13.066  26.620  1.00  0.00    -0.343 N 
ENDROOT
BRANCH  11  12
HETATM   12  C11 UNL     1       7.831  12.150  25.758  1.00  0.00     0.175 C 
BRANCH  12  13
HETATM   13  C12 UNL     1       6.988  10.921  25.488  1.00  0.00     0.003 A 
HETATM   14  C13 UNL     1       5.804  10.889  24.792  1.00  0.00     0.028 A 
HETATM   15  C14 UNL     1       5.203   9.690  24.648  1.00  0.00     0.006 A 
HETATM   16  C18 UNL     1       5.828   8.613  25.209  1.00  0.00     0.061 A 
HETATM   17 BR1  UNL     1       5.279   6.762  25.214  1.00  0.00    -0.042 Br
HETATM   18  S2  UNL     1       7.216   9.289  25.912  1.00  0.00    -0.085 SA
BRANCH  15  19
HETATM   19  C15 UNL     1       3.888   9.477  23.906  1.00  0.00     0.125 C 
HETATM   20  C16 UNL     1       3.322  10.813  23.481  1.00  0.00     0.057 C 
HETATM   21  C17 UNL     1       2.903   8.716  24.748  1.00  0.00     0.057 C 
HETATM   22  F1  UNL     1       4.108   8.746  22.757  1.00  0.00    -0.238 F 
ENDBRANCH  15  19
ENDBRANCH  12  13
ENDBRANCH  11  12
BRANCH   3  23
HETATM   23  C4  UNL     1       5.405  16.237  27.177  1.00  0.00     0.052 C 
BRANCH  23  24
HETATM   24  C5  UNL     1       3.957  16.293  27.472  1.00  0.00     0.118 C 
BRANCH  24  25
HETATM   25  C6  UNL     1       3.265  17.551  27.462  1.00  0.00     0.172 C 
HETATM   26  O1  UNL     1       3.363  18.417  28.337  1.00  0.00    -0.648 OA
HETATM   27  O2  UNL     1       2.415  17.831  26.389  1.00  0.00    -0.648 OA
ENDBRANCH  24  25
ENDBRANCH  23  24
ENDBRANCH   3  23
TORSDOF 6
ENDMDL
