MODEL 1
REMARK VINA RESULT: -7.252920327      0.000      0.000
REMARK  9 active torsions:
REMARK  status: ('A' for Active; 'I' for Inactive)
REMARK    1  A    between atoms: C3_5  and  O1_6 
REMARK    2  A    between atoms: C4_8  and  C5_9 
REMARK    3  A    between atoms: C5_9  and  C6_10 
REMARK    4  A    between atoms: C6_10  and  N2_11 
REMARK    5  A    between atoms: C6_10  and  C7_16 
REMARK    6  A    between atoms: N2_11  and  N3_13 
REMARK       I    between atoms: C7_16  and  N4_18 
REMARK    7  A    between atoms: N4_18  and  C8_20 
REMARK    8  A    between atoms: C8_20  and  C9_21 
REMARK    9  A    between atoms: C9_21  and  N5_22 
ROOT
HETATM    1  C6  UNL     1      -6.555  15.300  19.111  1.00  0.00     0.116 C 
ENDROOT
BRANCH   1   2
HETATM    2  C5  UNL     1      -6.939  14.262  20.021  1.00  0.00     0.060 C 
BRANCH   2   3
HETATM    3  C4  UNL     1      -8.011  14.164  20.775  1.00  0.00     0.060 A 
HETATM    4  C3  UNL     1      -8.421  14.584  21.992  1.00  0.00     0.158 A 
HETATM    5  N1  UNL     1      -9.625  14.266  22.415  1.00  0.00    -0.331 N 
HETATM    6  C2  UNL     1     -10.411  13.543  21.645  1.00  0.00     0.067 A 
ATOM      7  H1  UNL     1      -9.946  14.576  23.332  1.00  0.00     0.168 HD
HETATM    8  C1  UNL     1     -11.668  13.116  21.895  1.00  0.00     0.051 C 
HETATM    9  S1  UNL     1      -9.461  13.279  20.265  1.00  0.00    -0.069 SA
BRANCH   4  10
HETATM   10  O1  UNL     1      -7.659  15.302  22.771  1.00  0.00    -0.345 OA
ATOM     11  H1  UNL     1      -6.717  15.221  22.681  1.00  0.00     0.219 HD
ENDBRANCH   4  10
ENDBRANCH   2   3
ENDBRANCH   1   2
BRANCH   1  12
HETATM   12  N2  UNL     1      -5.896  15.133  18.092  1.00  0.00    -0.302 N 
ATOM     13  H2  UNL     1      -6.515  14.856  17.330  1.00  0.00     0.186 HD
BRANCH  12  14
HETATM   14  N3  UNL     1      -4.638  15.192  17.642  1.00  0.00    -0.345 N 
ATOM     15  H32 UNL     1      -4.070  15.633  18.365  1.00  0.00     0.176 HD
ATOM     16  H31 UNL     1      -4.071  14.945  16.831  1.00  0.00     0.176 HD
ENDBRANCH  12  14
ENDBRANCH   1  12
BRANCH   1  17
HETATM   17  C7  UNL     1      -7.021  16.665  19.487  1.00  0.00     0.269 C 
HETATM   18  O2  UNL     1      -7.392  17.445  18.535  1.00  0.00    -0.266 OA
HETATM   19  N4  UNL     1      -7.099  17.193  20.774  1.00  0.00    -0.354 N 
ATOM     20  H4  UNL     1      -6.819  16.606  21.559  1.00  0.00     0.162 HD
BRANCH  19  21
HETATM   21  C8  UNL     1      -7.558  18.537  21.049  1.00  0.00     0.142 C 
BRANCH  21  22
HETATM   22  C9  UNL     1      -8.969  18.821  20.677  1.00  0.00     0.141 C 
BRANCH  22  23
HETATM   23  N5  UNL     1      -9.916  18.179  21.576  1.00  0.00    -0.365 N 
HETATM   24  C10 UNL     1     -10.703  17.296  21.096  1.00  0.00     0.197 C 
HETATM   25  N6  UNL     1     -10.639  16.966  19.724  1.00  0.00    -0.067 NA
HETATM   26  N7  UNL     1     -11.639  16.650  21.942  1.00  0.00    -0.067 NA
ATOM     27  H5  UNL     1      -9.951  18.428  22.564  1.00  0.00     0.161 HD
ENDBRANCH  22  23
ENDBRANCH  21  22
ENDBRANCH  19  21
ENDBRANCH   1  17
TORSDOF 9
ENDMDL
MODEL 2
REMARK VINA RESULT: -7.156478335      1.431      1.505
REMARK  9 active torsions:
REMARK  status: ('A' for Active; 'I' for Inactive)
REMARK    1  A    between atoms: C3_5  and  O1_6 
REMARK    2  A    between atoms: C4_8  and  C5_9 
REMARK    3  A    between atoms: C5_9  and  C6_10 
REMARK    4  A    between atoms: C6_10  and  N2_11 
REMARK    5  A    between atoms: C6_10  and  C7_16 
REMARK    6  A    between atoms: N2_11  and  N3_13 
REMARK       I    between atoms: C7_16  and  N4_18 
REMARK    7  A    between atoms: N4_18  and  C8_20 
REMARK    8  A    between atoms: C8_20  and  C9_21 
REMARK    9  A    between atoms: C9_21  and  N5_22 
ROOT
HETATM    1  C6  UNL     1      -6.547  15.219  19.148  1.00  0.00     0.116 C 
ENDROOT
BRANCH   1   2
HETATM    2  C5  UNL     1      -6.879  14.210  20.109  1.00  0.00     0.060 C 
BRANCH   2   3
HETATM    3  C4  UNL     1      -8.046  13.676  20.393  1.00  0.00     0.060 A 
HETATM    4  C3  UNL     1      -8.777  12.605  20.013  1.00  0.00     0.158 A 
HETATM    5  N1  UNL     1      -9.957  12.401  20.555  1.00  0.00    -0.331 N 
HETATM    6  C2  UNL     1     -10.407  13.245  21.460  1.00  0.00     0.067 A 
ATOM      7  H1  UNL     1     -10.519  11.597  20.277  1.00  0.00     0.168 HD
HETATM    8  C1  UNL     1     -11.582  13.211  22.128  1.00  0.00     0.051 C 
HETATM    9  S1  UNL     1      -9.156  14.382  21.583  1.00  0.00    -0.069 SA
BRANCH   4  10
HETATM   10  O1  UNL     1      -8.350  11.756  19.119  1.00  0.00    -0.345 OA
ATOM     11  H1  UNL     1      -8.985  11.195  18.689  1.00  0.00     0.219 HD
ENDBRANCH   4  10
ENDBRANCH   2   3
ENDBRANCH   1   2
BRANCH   1  12
HETATM   12  N2  UNL     1      -5.944  15.022  18.100  1.00  0.00    -0.302 N 
ATOM     13  H2  UNL     1      -6.606  15.020  17.324  1.00  0.00     0.186 HD
BRANCH  12  14
HETATM   14  N3  UNL     1      -4.711  14.807  17.630  1.00  0.00    -0.345 N 
ATOM     15  H32 UNL     1      -4.762  14.800  16.612  1.00  0.00     0.176 HD
ATOM     16  H31 UNL     1      -3.754  14.651  17.949  1.00  0.00     0.176 HD
ENDBRANCH  12  14
ENDBRANCH   1  12
BRANCH   1  17
HETATM   17  C7  UNL     1      -6.993  16.595  19.508  1.00  0.00     0.269 C 
HETATM   18  O2  UNL     1      -7.303  17.387  18.544  1.00  0.00    -0.266 OA
HETATM   19  N4  UNL     1      -7.111  17.123  20.792  1.00  0.00    -0.354 N 
ATOM     20  H4  UNL     1      -6.880  16.527  21.587  1.00  0.00     0.162 HD
BRANCH  19  21
HETATM   21  C8  UNL     1      -7.547  18.478  21.051  1.00  0.00     0.142 C 
BRANCH  21  22
HETATM   22  C9  UNL     1      -8.955  18.781  20.683  1.00  0.00     0.141 C 
BRANCH  22  23
HETATM   23  N5  UNL     1      -9.908  18.162  21.592  1.00  0.00    -0.365 N 
HETATM   24  C10 UNL     1     -10.777  17.363  21.106  1.00  0.00     0.197 C 
HETATM   25  N6  UNL     1     -10.795  17.101  19.718  1.00  0.00    -0.067 NA
HETATM   26  N7  UNL     1     -11.722  16.742  21.962  1.00  0.00    -0.067 NA
ATOM     27  H5  UNL     1      -9.883  18.361  22.592  1.00  0.00     0.161 HD
ENDBRANCH  22  23
ENDBRANCH  21  22
ENDBRANCH  19  21
ENDBRANCH   1  17
TORSDOF 9
ENDMDL
MODEL 3
REMARK VINA RESULT: -6.982382032      2.191      4.293
REMARK  9 active torsions:
REMARK  status: ('A' for Active; 'I' for Inactive)
REMARK    1  A    between atoms: C3_5  and  O1_6 
REMARK    2  A    between atoms: C4_8  and  C5_9 
REMARK    3  A    between atoms: C5_9  and  C6_10 
REMARK    4  A    between atoms: C6_10  and  N2_11 
REMARK    5  A    between atoms: C6_10  and  C7_16 
REMARK    6  A    between atoms: N2_11  and  N3_13 
REMARK       I    between atoms: C7_16  and  N4_18 
REMARK    7  A    between atoms: N4_18  and  C8_20 
REMARK    8  A    between atoms: C8_20  and  C9_21 
REMARK    9  A    between atoms: C9_21  and  N5_22 
ROOT
HETATM    1  C6  UNL     1      -9.623  13.386  20.612  1.00  0.00     0.116 C 
ENDROOT
BRANCH   1   2
HETATM    2  C5  UNL     1      -8.325  13.751  21.096  1.00  0.00     0.060 C 
BRANCH   2   3
HETATM    3  C4  UNL     1      -7.408  14.512  20.543  1.00  0.00     0.060 A 
HETATM    4  C3  UNL     1      -6.864  15.732  20.744  1.00  0.00     0.158 A 
HETATM    5  N1  UNL     1      -5.922  16.162  19.934  1.00  0.00    -0.331 N 
HETATM    6  C2  UNL     1      -5.523  15.396  18.941  1.00  0.00     0.067 A 
ATOM      7  H1  UNL     1      -5.504  17.082  20.075  1.00  0.00     0.168 HD
HETATM    8  C1  UNL     1      -4.578  15.654  18.010  1.00  0.00     0.051 C 
HETATM    9  S1  UNL     1      -6.483  14.009  19.114  1.00  0.00    -0.069 SA
BRANCH   4  10
HETATM   10  O1  UNL     1      -7.244  16.508  21.722  1.00  0.00    -0.345 OA
ATOM     11  H1  UNL     1      -6.965  16.292  22.604  1.00  0.00     0.219 HD
ENDBRANCH   4  10
ENDBRANCH   2   3
ENDBRANCH   1   2
BRANCH   1  12
HETATM   12  N2  UNL     1      -9.849  12.480  19.818  1.00  0.00    -0.302 N 
ATOM     13  H2  UNL     1     -10.784  12.597  19.428  1.00  0.00     0.186 HD
BRANCH  12  14
HETATM   14  N3  UNL     1      -9.282  11.389  19.293  1.00  0.00    -0.345 N 
ATOM     15  H32 UNL     1      -9.193  10.696  20.036  1.00  0.00     0.176 HD
ATOM     16  H31 UNL     1      -8.917  11.029  18.411  1.00  0.00     0.176 HD
ENDBRANCH  12  14
ENDBRANCH   1  12
BRANCH   1  17
HETATM   17  C7  UNL     1     -10.744  14.209  21.149  1.00  0.00     0.269 C 
HETATM   18  O2  UNL     1     -11.828  14.253  20.459  1.00  0.00    -0.266 OA
HETATM   19  N4  UNL     1     -10.744  14.945  22.332  1.00  0.00    -0.354 N 
ATOM     20  H4  UNL     1      -9.905  14.934  22.912  1.00  0.00     0.162 HD
BRANCH  19  21
HETATM   21  C8  UNL     1     -11.879  15.725  22.776  1.00  0.00     0.142 C 
BRANCH  21  22
HETATM   22  C9  UNL     1     -12.104  17.001  22.046  1.00  0.00     0.141 C 
BRANCH  22  23
HETATM   23  N5  UNL     1     -10.972  17.908  22.158  1.00  0.00    -0.365 N 
HETATM   24  C10 UNL     1     -10.200  18.039  21.150  1.00  0.00     0.197 C 
HETATM   25  N6  UNL     1     -10.456  17.313  19.967  1.00  0.00    -0.067 NA
HETATM   26  N7  UNL     1      -9.086  18.914  21.223  1.00  0.00    -0.067 NA
ATOM     27  H5  UNL     1     -10.800  18.427  23.019  1.00  0.00     0.161 HD
ENDBRANCH  22  23
ENDBRANCH  21  22
ENDBRANCH  19  21
ENDBRANCH   1  17
TORSDOF 9
ENDMDL
MODEL 4
REMARK VINA RESULT: -6.635133215      2.223      4.308
REMARK  9 active torsions:
REMARK  status: ('A' for Active; 'I' for Inactive)
REMARK    1  A    between atoms: C3_5  and  O1_6 
REMARK    2  A    between atoms: C4_8  and  C5_9 
REMARK    3  A    between atoms: C5_9  and  C6_10 
REMARK    4  A    between atoms: C6_10  and  N2_11 
REMARK    5  A    between atoms: C6_10  and  C7_16 
REMARK    6  A    between atoms: N2_11  and  N3_13 
REMARK       I    between atoms: C7_16  and  N4_18 
REMARK    7  A    between atoms: N4_18  and  C8_20 
REMARK    8  A    between atoms: C8_20  and  C9_21 
REMARK    9  A    between atoms: C9_21  and  N5_22 
ROOT
HETATM    1  C6  UNL     1      -8.561  12.693  20.050  1.00  0.00     0.116 C 
ENDROOT
BRANCH   1   2
HETATM    2  C5  UNL     1      -7.384  13.492  20.220  1.00  0.00     0.060 C 
BRANCH   2   3
HETATM    3  C4  UNL     1      -7.216  14.783  20.046  1.00  0.00     0.060 A 
HETATM    4  C3  UNL     1      -6.748  15.612  19.087  1.00  0.00     0.158 A 
HETATM    5  N1  UNL     1      -6.744  16.910  19.298  1.00  0.00    -0.331 N 
HETATM    6  C2  UNL     1      -7.196  17.380  20.441  1.00  0.00     0.067 A 
ATOM      7  H1  UNL     1      -6.392  17.546  18.582  1.00  0.00     0.168 HD
HETATM    8  C1  UNL     1      -7.275  18.667  20.846  1.00  0.00     0.051 C 
HETATM    9  S1  UNL     1      -7.655  15.980  21.280  1.00  0.00    -0.069 SA
BRANCH   4  10
HETATM   10  O1  UNL     1      -6.295  15.167  17.947  1.00  0.00    -0.345 OA
ATOM     11  H1  UNL     1      -6.652  15.533  17.145  1.00  0.00     0.219 HD
ENDBRANCH   4  10
ENDBRANCH   2   3
ENDBRANCH   1   2
BRANCH   1  12
HETATM   12  N2  UNL     1      -8.599  11.607  19.484  1.00  0.00    -0.302 N 
ATOM     13  H2  UNL     1      -7.652  11.323  19.234  1.00  0.00     0.186 HD
BRANCH  12  14
HETATM   14  N3  UNL     1      -9.464  10.669  19.084  1.00  0.00    -0.345 N 
ATOM     15  H32 UNL     1      -9.845  10.961  18.185  1.00  0.00     0.176 HD
ATOM     16  H31 UNL     1      -9.860   9.776  19.377  1.00  0.00     0.176 HD
ENDBRANCH  12  14
ENDBRANCH   1  12
BRANCH   1  17
HETATM   17  C7  UNL     1      -9.804  13.281  20.627  1.00  0.00     0.269 C 
HETATM   18  O2  UNL     1     -10.795  13.468  19.829  1.00  0.00    -0.266 OA
HETATM   19  N4  UNL     1     -10.010  13.657  21.953  1.00  0.00    -0.354 N 
ATOM     20  H4  UNL     1      -9.251  13.521  22.621  1.00  0.00     0.162 HD
BRANCH  19  21
HETATM   21  C8  UNL     1     -11.251  14.230  22.427  1.00  0.00     0.142 C 
BRANCH  21  22
HETATM   22  C9  UNL     1     -11.810  15.327  21.592  1.00  0.00     0.141 C 
BRANCH  22  23
HETATM   23  N5  UNL     1     -11.353  16.638  22.027  1.00  0.00    -0.365 N 
HETATM   24  C10 UNL     1     -10.866  17.429  21.152  1.00  0.00     0.197 C 
HETATM   25  N6  UNL     1     -10.781  17.022  19.802  1.00  0.00    -0.067 NA
HETATM   26  N7  UNL     1     -10.410  18.715  21.539  1.00  0.00    -0.067 NA
ATOM     27  H5  UNL     1     -11.421  16.919  23.005  1.00  0.00     0.161 HD
ENDBRANCH  22  23
ENDBRANCH  21  22
ENDBRANCH  19  21
ENDBRANCH   1  17
TORSDOF 9
ENDMDL
MODEL 5
REMARK VINA RESULT: -6.630716768      2.415      4.614
REMARK  9 active torsions:
REMARK  status: ('A' for Active; 'I' for Inactive)
REMARK    1  A    between atoms: C3_5  and  O1_6 
REMARK    2  A    between atoms: C4_8  and  C5_9 
REMARK    3  A    between atoms: C5_9  and  C6_10 
REMARK    4  A    between atoms: C6_10  and  N2_11 
REMARK    5  A    between atoms: C6_10  and  C7_16 
REMARK    6  A    between atoms: N2_11  and  N3_13 
REMARK       I    between atoms: C7_16  and  N4_18 
REMARK    7  A    between atoms: N4_18  and  C8_20 
REMARK    8  A    between atoms: C8_20  and  C9_21 
REMARK    9  A    between atoms: C9_21  and  N5_22 
ROOT
HETATM    1  C6  UNL     1      -9.519  13.216  20.948  1.00  0.00     0.116 C 
ENDROOT
BRANCH   1   2
HETATM    2  C5  UNL     1      -8.252  13.874  21.063  1.00  0.00     0.060 C 
BRANCH   2   3
HETATM    3  C4  UNL     1      -7.338  14.097  20.145  1.00  0.00     0.060 A 
HETATM    4  C3  UNL     1      -6.818  13.459  19.074  1.00  0.00     0.158 A 
HETATM    5  N1  UNL     1      -5.870  14.039  18.372  1.00  0.00    -0.331 N 
HETATM    6  C2  UNL     1      -5.444  15.234  18.724  1.00  0.00     0.067 A 
ATOM      7  H1  UNL     1      -5.468  13.567  17.562  1.00  0.00     0.168 HD
HETATM    8  C1  UNL     1      -4.489  15.990  18.138  1.00  0.00     0.051 C 
HETATM    9  S1  UNL     1      -6.384  15.592  20.089  1.00  0.00    -0.069 SA
BRANCH   4  10
HETATM   10  O1  UNL     1      -7.225  12.274  18.707  1.00  0.00    -0.345 OA
ATOM     11  H1  UNL     1      -6.780  11.847  17.985  1.00  0.00     0.219 HD
ENDBRANCH   4  10
ENDBRANCH   2   3
ENDBRANCH   1   2
BRANCH   1  12
HETATM   12  N2  UNL     1      -9.684  12.071  20.543  1.00  0.00    -0.302 N 
ATOM     13  H2  UNL     1      -9.986  11.479  21.316  1.00  0.00     0.186 HD
BRANCH  12  14
HETATM   14  N3  UNL     1      -9.600  11.338  19.429  1.00  0.00    -0.345 N 
ATOM     15  H32 UNL     1     -10.322  11.664  18.787  1.00  0.00     0.176 HD
ATOM     16  H31 UNL     1      -9.062  10.575  19.017  1.00  0.00     0.176 HD
ENDBRANCH  12  14
ENDBRANCH   1  12
BRANCH   1  17
HETATM   17  C7  UNL     1     -10.690  14.038  21.368  1.00  0.00     0.269 C 
HETATM   18  O2  UNL     1     -11.769  13.925  20.679  1.00  0.00    -0.266 OA
HETATM   19  N4  UNL     1     -10.741  14.928  22.440  1.00  0.00    -0.354 N 
ATOM     20  H4  UNL     1      -9.908  15.044  23.017  1.00  0.00     0.162 HD
BRANCH  19  21
HETATM   21  C8  UNL     1     -11.922  15.694  22.773  1.00  0.00     0.142 C 
BRANCH  21  22
HETATM   22  C9  UNL     1     -12.043  17.012  22.095  1.00  0.00     0.141 C 
BRANCH  22  23
HETATM   23  N5  UNL     1     -10.765  17.701  21.997  1.00  0.00    -0.365 N 
HETATM   24  C10 UNL     1     -10.165  17.704  20.871  1.00  0.00     0.197 C 
HETATM   25  N6  UNL     1     -10.743  17.049  19.761  1.00  0.00    -0.067 NA
HETATM   26  N7  UNL     1      -8.917  18.365  20.737  1.00  0.00    -0.067 NA
ATOM     27  H5  UNL     1     -10.360  18.170  22.806  1.00  0.00     0.161 HD
ENDBRANCH  22  23
ENDBRANCH  21  22
ENDBRANCH  19  21
ENDBRANCH   1  17
TORSDOF 9
ENDMDL
