MODEL 1
REMARK VINA RESULT: -5.118595239      0.000      0.000
REMARK  9 active torsions:
REMARK  status: ('A' for Active; 'I' for Inactive)
REMARK    1  A    between atoms: N1_1  and  C1_5 
REMARK    2  A    between atoms: C1_5  and  C2_6 
REMARK       I    between atoms: C2_6  and  N2_8 
REMARK    3  A    between atoms: N2_8  and  C3_10 
REMARK    4  A    between atoms: C3_10  and  C4_11 
REMARK    5  A    between atoms: C4_11  and  N5_17 
REMARK    6  A    between atoms: N3_12  and  N4_14 
REMARK    7  A    between atoms: N5_17  and  C5_19 
REMARK    8  A    between atoms: C8_22  and  S1_23 
REMARK    9  A    between atoms: S1_23  and  N6_24 
ROOT
HETATM    1  C4  UNL     1     -11.382  15.638  22.445  1.00  0.00     0.115 C 
HETATM    2  N3  UNL     1     -12.251  16.579  22.384  1.00  0.00    -0.294 N 
ATOM      3  H3  UNL     1     -13.230  16.335  22.231  1.00  0.00     0.187 HD
ENDROOT
BRANCH   1   4
HETATM    4  C3  UNL     1     -11.833  14.239  22.290  1.00  0.00     0.200 C 
BRANCH   4   5
HETATM    5  N2  UNL     1     -10.721  13.365  22.011  1.00  0.00    -0.353 N 
HETATM    6  C2  UNL     1     -10.298  13.068  20.691  1.00  0.00     0.243 C 
HETATM    7  O1  UNL     1     -10.885  13.556  19.666  1.00  0.00    -0.272 OA
ATOM      8  H2  UNL     1     -10.219  12.945  22.793  1.00  0.00     0.162 HD
BRANCH   6   9
HETATM    9  C1  UNL     1      -9.127  12.157  20.498  1.00  0.00     0.332 C 
BRANCH   9  10
HETATM   10  N1  UNL     1      -9.333  11.365  19.328  1.00  0.00    -0.071 N 
ATOM     11  H13 UNL     1     -10.192  10.817  19.378  1.00  0.00     0.274 HD
ATOM     12  H12 UNL     1      -9.571  11.933  18.515  1.00  0.00     0.274 HD
ATOM     13  H11 UNL     1      -8.511  10.783  19.166  1.00  0.00     0.274 HD
ENDBRANCH   9  10
ENDBRANCH   6   9
ENDBRANCH   4   5
ENDBRANCH   1   4
BRANCH   1  14
HETATM   14  N5  UNL     1     -10.025  16.004  22.639  1.00  0.00    -0.330 N 
ATOM     15  H5  UNL     1      -9.749  16.346  23.560  1.00  0.00     0.168 HD
BRANCH  14  16
HETATM   16  C5  UNL     1      -9.126  15.932  21.733  1.00  0.00     0.106 A 
HETATM   17  C6  UNL     1      -7.878  15.471  22.085  1.00  0.00     0.050 A 
HETATM   18  C7  UNL     1      -6.880  15.377  21.140  1.00  0.00     0.030 A 
HETATM   19  C8  UNL     1      -7.141  15.748  19.843  1.00  0.00     0.094 A 
HETATM   20  C9  UNL     1      -8.401  16.210  19.503  1.00  0.00     0.115 A 
HETATM   21  N7  UNL     1      -9.366  16.296  20.438  1.00  0.00    -0.351 N 
ATOM     22  H7  UNL     1     -10.291  16.638  20.176  1.00  0.00     0.166 HD
BRANCH  19  23
HETATM   23  S1  UNL     1      -5.930  15.661  18.580  1.00  0.00     0.258 S 
HETATM   24  O2  UNL     1      -6.351  16.569  17.457  1.00  0.00    -0.201 OA
HETATM   25  O3  UNL     1      -4.597  16.150  19.085  1.00  0.00    -0.201 OA
BRANCH  23  26
HETATM   26  N6  UNL     1      -5.827  14.069  17.930  1.00  0.00    -0.324 N 
ATOM     27  H62 UNL     1      -6.466  13.315  18.181  1.00  0.00     0.169 HD
ATOM     28  H61 UNL     1      -5.052  13.991  17.272  1.00  0.00     0.169 HD
ENDBRANCH  23  26
ENDBRANCH  19  23
ENDBRANCH  14  16
ENDBRANCH   1  14
BRANCH   2  29
HETATM   29  N4  UNL     1     -11.907  17.926  22.521  1.00  0.00    -0.344 N 
ATOM     30  H42 UNL     1     -10.922  18.175  22.437  1.00  0.00     0.176 HD
ATOM     31  H41 UNL     1     -12.601  18.652  22.697  1.00  0.00     0.176 HD
ENDBRANCH   2  29
TORSDOF 9
ENDMDL
MODEL 2
REMARK VINA RESULT: -4.960194597      2.248      4.466
REMARK  9 active torsions:
REMARK  status: ('A' for Active; 'I' for Inactive)
REMARK    1  A    between atoms: N1_1  and  C1_5 
REMARK    2  A    between atoms: C1_5  and  C2_6 
REMARK       I    between atoms: C2_6  and  N2_8 
REMARK    3  A    between atoms: N2_8  and  C3_10 
REMARK    4  A    between atoms: C3_10  and  C4_11 
REMARK    5  A    between atoms: C4_11  and  N5_17 
REMARK    6  A    between atoms: N3_12  and  N4_14 
REMARK    7  A    between atoms: N5_17  and  C5_19 
REMARK    8  A    between atoms: C8_22  and  S1_23 
REMARK    9  A    between atoms: S1_23  and  N6_24 
ROOT
HETATM    1  C4  UNL     1      -9.459  17.783  21.472  1.00  0.00     0.115 C 
HETATM    2  N3  UNL     1     -10.555  18.449  21.475  1.00  0.00    -0.294 N 
ATOM      3  H3  UNL     1     -10.584  19.349  20.995  1.00  0.00     0.187 HD
ENDROOT
BRANCH   1   4
HETATM    4  C3  UNL     1      -8.284  18.345  20.775  1.00  0.00     0.200 C 
BRANCH   4   5
HETATM    5  N2  UNL     1      -7.262  17.344  20.592  1.00  0.00    -0.353 N 
HETATM    6  C2  UNL     1      -6.892  16.858  19.313  1.00  0.00     0.243 C 
HETATM    7  O1  UNL     1      -7.449  17.278  18.242  1.00  0.00    -0.272 OA
ATOM      8  H2  UNL     1      -6.788  16.971  21.415  1.00  0.00     0.162 HD
BRANCH   6   9
HETATM    9  C1  UNL     1      -5.815  15.825  19.220  1.00  0.00     0.332 C 
BRANCH   9  10
HETATM   10  N1  UNL     1      -6.080  14.965  18.112  1.00  0.00    -0.071 N 
ATOM     11  H13 UNL     1      -6.499  15.465  17.327  1.00  0.00     0.274 HD
ATOM     12  H12 UNL     1      -5.225  14.658  17.648  1.00  0.00     0.274 HD
ATOM     13  H11 UNL     1      -6.654  14.181  18.422  1.00  0.00     0.274 HD
ENDBRANCH   9  10
ENDBRANCH   6   9
ENDBRANCH   4   5
ENDBRANCH   1   4
BRANCH   1  14
HETATM   14  N5  UNL     1      -9.438  16.544  22.163  1.00  0.00    -0.330 N 
ATOM     15  H5  UNL     1      -9.430  16.566  23.184  1.00  0.00     0.168 HD
BRANCH  14  16
HETATM   16  C5  UNL     1      -9.427  15.402  21.589  1.00  0.00     0.106 A 
HETATM   17  C6  UNL     1     -10.542  15.017  20.879  1.00  0.00     0.050 A 
HETATM   18  C7  UNL     1     -10.573  13.794  20.244  1.00  0.00     0.030 A 
HETATM   19  C8  UNL     1      -9.482  12.962  20.326  1.00  0.00     0.094 A 
HETATM   20  C9  UNL     1      -8.367  13.363  21.044  1.00  0.00     0.115 A 
HETATM   21  N7  UNL     1      -8.352  14.561  21.659  1.00  0.00    -0.351 N 
ATOM     22  H7  UNL     1      -7.526  14.846  22.185  1.00  0.00     0.166 HD
BRANCH  19  23
HETATM   23  S1  UNL     1      -9.438  11.393  19.550  1.00  0.00     0.258 S 
HETATM   24  O2  UNL     1      -8.084  11.215  18.919  1.00  0.00    -0.201 OA
HETATM   25  O3  UNL     1      -9.615  10.292  20.563  1.00  0.00    -0.201 OA
BRANCH  23  26
HETATM   26  N6  UNL     1     -10.601  11.296  18.283  1.00  0.00    -0.324 N 
ATOM     27  H62 UNL     1     -11.525  11.726  18.330  1.00  0.00     0.169 HD
ATOM     28  H61 UNL     1     -10.241  10.757  17.496  1.00  0.00     0.169 HD
ENDBRANCH  23  26
ENDBRANCH  19  23
ENDBRANCH  14  16
ENDBRANCH   1  14
BRANCH   2  29
HETATM   29  N4  UNL     1     -11.710  17.988  22.111  1.00  0.00    -0.344 N 
ATOM     30  H42 UNL     1     -12.169  17.164  21.724  1.00  0.00     0.176 HD
ATOM     31  H41 UNL     1     -12.098  18.443  22.937  1.00  0.00     0.176 HD
ENDBRANCH   2  29
TORSDOF 9
ENDMDL
MODEL 3
REMARK VINA RESULT: -4.959193497      2.205      4.364
REMARK  9 active torsions:
REMARK  status: ('A' for Active; 'I' for Inactive)
REMARK    1  A    between atoms: N1_1  and  C1_5 
REMARK    2  A    between atoms: C1_5  and  C2_6 
REMARK       I    between atoms: C2_6  and  N2_8 
REMARK    3  A    between atoms: N2_8  and  C3_10 
REMARK    4  A    between atoms: C3_10  and  C4_11 
REMARK    5  A    between atoms: C4_11  and  N5_17 
REMARK    6  A    between atoms: N3_12  and  N4_14 
REMARK    7  A    between atoms: N5_17  and  C5_19 
REMARK    8  A    between atoms: C8_22  and  S1_23 
REMARK    9  A    between atoms: S1_23  and  N6_24 
ROOT
HETATM    1  C4  UNL     1      -9.423  17.803  21.443  1.00  0.00     0.115 C 
HETATM    2  N3  UNL     1     -10.525  18.461  21.430  1.00  0.00    -0.294 N 
ATOM      3  H3  UNL     1     -10.554  19.361  20.952  1.00  0.00     0.187 HD
ENDROOT
BRANCH   1   4
HETATM    4  C3  UNL     1      -8.241  18.377  20.765  1.00  0.00     0.200 C 
BRANCH   4   5
HETATM    5  N2  UNL     1      -7.217  17.380  20.580  1.00  0.00    -0.353 N 
HETATM    6  C2  UNL     1      -6.871  16.872  19.303  1.00  0.00     0.243 C 
HETATM    7  O1  UNL     1      -7.455  17.266  18.237  1.00  0.00    -0.272 OA
ATOM      8  H2  UNL     1      -6.722  17.026  21.399  1.00  0.00     0.162 HD
BRANCH   6   9
HETATM    9  C1  UNL     1      -5.789  15.844  19.206  1.00  0.00     0.332 C 
BRANCH   9  10
HETATM   10  N1  UNL     1      -6.046  14.990  18.091  1.00  0.00    -0.071 N 
ATOM     11  H13 UNL     1      -6.435  14.091  18.375  1.00  0.00     0.274 HD
ATOM     12  H12 UNL     1      -6.832  15.316  17.528  1.00  0.00     0.274 HD
ATOM     13  H11 UNL     1      -5.193  14.887  17.541  1.00  0.00     0.274 HD
ENDBRANCH   9  10
ENDBRANCH   6   9
ENDBRANCH   4   5
ENDBRANCH   1   4
BRANCH   1  14
HETATM   14  N5  UNL     1      -9.402  16.564  22.133  1.00  0.00    -0.330 N 
ATOM     15  H5  UNL     1      -9.372  16.584  23.152  1.00  0.00     0.168 HD
BRANCH  14  16
HETATM   16  C5  UNL     1      -9.419  15.422  21.557  1.00  0.00     0.106 A 
HETATM   17  C6  UNL     1      -8.346  14.580  21.743  1.00  0.00     0.050 A 
HETATM   18  C7  UNL     1      -8.323  13.341  21.142  1.00  0.00     0.030 A 
HETATM   19  C8  UNL     1      -9.381  12.952  20.354  1.00  0.00     0.094 A 
HETATM   20  C9  UNL     1     -10.454  13.810  20.176  1.00  0.00     0.115 A 
HETATM   21  N7  UNL     1     -10.461  15.018  20.771  1.00  0.00    -0.351 N 
ATOM     22  H7  UNL     1     -11.257  15.641  20.633  1.00  0.00     0.166 HD
BRANCH  19  23
HETATM   23  S1  UNL     1      -9.432  11.396  19.554  1.00  0.00     0.258 S 
HETATM   24  O2  UNL     1      -8.107  11.167  18.879  1.00  0.00    -0.201 OA
HETATM   25  O3  UNL     1      -9.629  10.288  20.555  1.00  0.00    -0.201 OA
BRANCH  23  26
HETATM   26  N6  UNL     1     -10.636  11.371  18.322  1.00  0.00    -0.324 N 
ATOM     27  H62 UNL     1     -10.470  11.677  17.364  1.00  0.00     0.169 HD
ATOM     28  H61 UNL     1     -11.521  11.015  18.683  1.00  0.00     0.169 HD
ENDBRANCH  23  26
ENDBRANCH  19  23
ENDBRANCH  14  16
ENDBRANCH   1  14
BRANCH   2  29
HETATM   29  N4  UNL     1     -11.685  17.989  22.048  1.00  0.00    -0.344 N 
ATOM     30  H42 UNL     1     -11.697  17.944  23.066  1.00  0.00     0.176 HD
ATOM     31  H41 UNL     1     -12.505  17.695  21.518  1.00  0.00     0.176 HD
ENDBRANCH   2  29
TORSDOF 9
ENDMDL
MODEL 4
REMARK VINA RESULT: -4.957443543      2.659      5.398
REMARK  9 active torsions:
REMARK  status: ('A' for Active; 'I' for Inactive)
REMARK    1  A    between atoms: N1_1  and  C1_5 
REMARK    2  A    between atoms: C1_5  and  C2_6 
REMARK       I    between atoms: C2_6  and  N2_8 
REMARK    3  A    between atoms: N2_8  and  C3_10 
REMARK    4  A    between atoms: C3_10  and  C4_11 
REMARK    5  A    between atoms: C4_11  and  N5_17 
REMARK    6  A    between atoms: N3_12  and  N4_14 
REMARK    7  A    between atoms: N5_17  and  C5_19 
REMARK    8  A    between atoms: C8_22  and  S1_23 
REMARK    9  A    between atoms: S1_23  and  N6_24 
ROOT
HETATM    1  C4  UNL     1      -8.247  11.837  19.685  1.00  0.00     0.115 C 
HETATM    2  N3  UNL     1      -8.822  10.782  19.234  1.00  0.00    -0.294 N 
ATOM      3  H3  UNL     1      -8.467  10.357  18.377  1.00  0.00     0.187 HD
ENDROOT
BRANCH   1   4
HETATM    4  C3  UNL     1      -7.096  12.394  18.944  1.00  0.00     0.200 C 
BRANCH   4   5
HETATM    5  N2  UNL     1      -6.876  13.775  19.294  1.00  0.00    -0.353 N 
HETATM    6  C2  UNL     1      -5.974  14.607  18.584  1.00  0.00     0.243 C 
HETATM    7  O1  UNL     1      -5.296  14.176  17.590  1.00  0.00    -0.272 OA
ATOM      8  H2  UNL     1      -7.389  14.169  20.083  1.00  0.00     0.162 HD
BRANCH   6   9
HETATM    9  C1  UNL     1      -5.817  16.030  19.014  1.00  0.00     0.332 C 
BRANCH   9  10
HETATM   10  N1  UNL     1      -7.008  16.753  18.701  1.00  0.00    -0.071 N 
ATOM     11  H13 UNL     1      -7.674  16.189  18.170  1.00  0.00     0.274 HD
ATOM     12  H12 UNL     1      -7.585  16.921  19.524  1.00  0.00     0.274 HD
ATOM     13  H11 UNL     1      -6.762  17.617  18.217  1.00  0.00     0.274 HD
ENDBRANCH   9  10
ENDBRANCH   6   9
ENDBRANCH   4   5
ENDBRANCH   1   4
BRANCH   1  14
HETATM   14  N5  UNL     1      -8.772  12.420  20.867  1.00  0.00    -0.330 N 
ATOM     15  H5  UNL     1      -8.813  11.842  21.707  1.00  0.00     0.168 HD
BRANCH  14  16
HETATM   16  C5  UNL     1      -9.196  13.624  20.946  1.00  0.00     0.106 A 
HETATM   17  C6  UNL     1      -8.619  14.461  21.875  1.00  0.00     0.050 A 
HETATM   18  C7  UNL     1      -9.046  15.765  21.993  1.00  0.00     0.030 A 
HETATM   19  C8  UNL     1     -10.052  16.224  21.177  1.00  0.00     0.094 A 
HETATM   20  C9  UNL     1     -10.623  15.370  20.247  1.00  0.00     0.115 A 
HETATM   21  N7  UNL     1     -10.195  14.098  20.143  1.00  0.00    -0.351 N 
ATOM     22  H7  UNL     1     -10.622  13.478  19.455  1.00  0.00     0.166 HD
BRANCH  19  23
HETATM   23  S1  UNL     1     -10.654  17.866  21.262  1.00  0.00     0.258 S 
HETATM   24  O2  UNL     1      -9.488  18.785  21.509  1.00  0.00    -0.201 OA
HETATM   25  O3  UNL     1     -11.282  18.272  19.954  1.00  0.00    -0.201 OA
BRANCH  23  26
HETATM   26  N6  UNL     1     -11.739  18.061  22.585  1.00  0.00    -0.324 N 
ATOM     27  H62 UNL     1     -11.813  17.399  23.357  1.00  0.00     0.169 HD
ATOM     28  H61 UNL     1     -12.285  18.917  22.487  1.00  0.00     0.169 HD
ENDBRANCH  23  26
ENDBRANCH  19  23
ENDBRANCH  14  16
ENDBRANCH   1  14
BRANCH   2  29
HETATM   29  N4  UNL     1      -9.915  10.194  19.874  1.00  0.00    -0.344 N 
ATOM     30  H42 UNL     1      -9.727   9.566  20.655  1.00  0.00     0.176 HD
ATOM     31  H41 UNL     1     -10.877  10.372  19.587  1.00  0.00     0.176 HD
ENDBRANCH   2  29
TORSDOF 9
ENDMDL
MODEL 5
REMARK VINA RESULT: -4.824468719      1.657      3.312
REMARK  9 active torsions:
REMARK  status: ('A' for Active; 'I' for Inactive)
REMARK    1  A    between atoms: N1_1  and  C1_5 
REMARK    2  A    between atoms: C1_5  and  C2_6 
REMARK       I    between atoms: C2_6  and  N2_8 
REMARK    3  A    between atoms: N2_8  and  C3_10 
REMARK    4  A    between atoms: C3_10  and  C4_11 
REMARK    5  A    between atoms: C4_11  and  N5_17 
REMARK    6  A    between atoms: N3_12  and  N4_14 
REMARK    7  A    between atoms: N5_17  and  C5_19 
REMARK    8  A    between atoms: C8_22  and  S1_23 
REMARK    9  A    between atoms: S1_23  and  N6_24 
ROOT
HETATM    1  C4  UNL     1     -11.391  13.370  21.806  1.00  0.00     0.115 C 
HETATM    2  N3  UNL     1     -12.218  12.542  22.332  1.00  0.00    -0.294 N 
ATOM      3  H3  UNL     1     -13.218  12.698  22.203  1.00  0.00     0.187 HD
ENDROOT
BRANCH   1   4
HETATM    4  C3  UNL     1     -11.920  14.515  21.036  1.00  0.00     0.200 C 
BRANCH   4   5
HETATM    5  N2  UNL     1     -11.474  15.766  21.597  1.00  0.00    -0.353 N 
HETATM    6  C2  UNL     1     -10.898  16.792  20.807  1.00  0.00     0.243 C 
HETATM    7  O1  UNL     1     -10.733  16.664  19.546  1.00  0.00    -0.272 OA
ATOM      8  H2  UNL     1     -11.578  15.919  22.600  1.00  0.00     0.162 HD
BRANCH   6   9
HETATM    9  C1  UNL     1     -10.472  18.061  21.475  1.00  0.00     0.332 C 
BRANCH   9  10
HETATM   10  N1  UNL     1      -9.133  18.372  21.089  1.00  0.00    -0.071 N 
ATOM     11  H13 UNL     1      -8.862  19.317  21.363  1.00  0.00     0.274 HD
ATOM     12  H12 UNL     1      -8.444  17.859  21.638  1.00  0.00     0.274 HD
ATOM     13  H11 UNL     1      -9.025  18.214  20.087  1.00  0.00     0.274 HD
ENDBRANCH   9  10
ENDBRANCH   6   9
ENDBRANCH   4   5
ENDBRANCH   1   4
BRANCH   1  14
HETATM   14  N5  UNL     1     -10.007  13.144  22.018  1.00  0.00    -0.330 N 
ATOM     15  H5  UNL     1      -9.736  12.480  22.743  1.00  0.00     0.168 HD
BRANCH  14  16
HETATM   16  C5  UNL     1      -9.076  13.720  21.356  1.00  0.00     0.106 A 
HETATM   17  C6  UNL     1      -8.422  14.783  21.938  1.00  0.00     0.050 A 
HETATM   18  C7  UNL     1      -7.413  15.432  21.260  1.00  0.00     0.030 A 
HETATM   19  C8  UNL     1      -7.066  15.011  19.999  1.00  0.00     0.094 A 
HETATM   20  C9  UNL     1      -7.733  13.940  19.427  1.00  0.00     0.115 A 
HETATM   21  N7  UNL     1      -8.717  13.316  20.102  1.00  0.00    -0.351 N 
ATOM     22  H7  UNL     1      -9.201  12.528  19.670  1.00  0.00     0.166 HD
BRANCH  19  23
HETATM   23  S1  UNL     1      -5.796  15.779  19.070  1.00  0.00     0.258 S 
HETATM   24  O2  UNL     1      -6.406  16.899  18.271  1.00  0.00    -0.201 OA
HETATM   25  O3  UNL     1      -4.760  16.384  19.981  1.00  0.00    -0.201 OA
BRANCH  23  26
HETATM   26  N6  UNL     1      -5.099  14.678  17.944  1.00  0.00    -0.324 N 
ATOM     27  H62 UNL     1      -5.291  14.698  16.942  1.00  0.00     0.169 HD
ATOM     28  H61 UNL     1      -4.481  14.017  18.413  1.00  0.00     0.169 HD
ENDBRANCH  23  26
ENDBRANCH  19  23
ENDBRANCH  14  16
ENDBRANCH   1  14
BRANCH   2  29
HETATM   29  N4  UNL     1     -11.799  11.436  23.076  1.00  0.00    -0.344 N 
ATOM     30  H42 UNL     1     -12.120  11.364  24.041  1.00  0.00     0.176 HD
ATOM     31  H41 UNL     1     -11.195  10.713  22.686  1.00  0.00     0.176 HD
ENDBRANCH   2  29
TORSDOF 9
ENDMDL
