MODEL 1
REMARK VINA RESULT: -6.149282318      0.000      0.000
REMARK  9 active torsions:
REMARK  status: ('A' for Active; 'I' for Inactive)
REMARK    1  A    between atoms: C4_4  and  C5_5 
REMARK       I    between atoms: C5_5  and  N1_7 
REMARK    2  A    between atoms: N1_7  and  C6_9 
REMARK    3  A    between atoms: C6_9  and  C7_10 
REMARK    4  A    between atoms: C7_10  and  C8_11 
REMARK    5  A    between atoms: C8_11  and  N2_12 
REMARK    6  A    between atoms: N2_12  and  C9_14 
REMARK    7  A    between atoms: C10_17  and  N4_18 
REMARK    8  A    between atoms: C11_23  and  N6_24 
REMARK    9  A    between atoms: N7_27  and  O2_28 
ROOT
HETATM    1  C1  UNL     1      -4.333  14.769  17.726  1.00  0.00     0.017 C 
HETATM    2  C2  UNL     1      -4.922  15.353  18.600  1.00  0.00    -0.089 C 
HETATM    3  C3  UNL     1      -5.633  16.037  19.672  1.00  0.00     0.069 C 
HETATM    4  C4  UNL     1      -6.843  16.471  19.481  1.00  0.00     0.083 C 
ENDROOT
BRANCH   4   5
HETATM    5  C5  UNL     1      -7.551  17.154  20.551  1.00  0.00     0.241 C 
HETATM    6  O1  UNL     1      -7.184  17.035  21.746  1.00  0.00    -0.269 OA
HETATM    7  N1  UNL     1      -8.682  17.978  20.275  1.00  0.00    -0.358 N 
ATOM      8  H1  UNL     1      -8.989  18.082  19.308  1.00  0.00     0.162 HD
BRANCH   7   9
HETATM    9  C6  UNL     1      -9.407  18.669  21.309  1.00  0.00     0.124 C 
BRANCH   9  10
HETATM   10  C7  UNL     1     -10.899  18.527  21.097  1.00  0.00     0.040 C 
BRANCH  10  11
HETATM   11  C8  UNL     1     -11.602  18.008  22.340  1.00  0.00     0.139 C 
BRANCH  11  12
HETATM   12  N2  UNL     1     -11.797  16.597  22.206  1.00  0.00    -0.224 N 
ATOM     13  H2  UNL     1     -12.714  16.241  22.476  1.00  0.00     0.177 HD
BRANCH  12  14
HETATM   14  C9  UNL     1     -10.963  15.737  21.790  1.00  0.00     0.709 C 
HETATM   15  N3  UNL     1      -9.873  15.553  22.577  1.00  0.00    -0.021 N 
HETATM   16  C10 UNL     1      -9.036  14.500  22.667  1.00  0.00     0.705 C 
ATOM     17  H3  UNL     1      -9.652  16.333  23.196  1.00  0.00     0.203 HD
HETATM   18  N5  UNL     1      -9.117  13.362  21.949  1.00  0.00    -0.019 N 
HETATM   19  C11 UNL     1      -9.807  13.149  20.803  1.00  0.00     0.734 C 
ATOM     20  H5  UNL     1      -8.595  12.564  22.313  1.00  0.00     0.203 HD
HETATM   21  N7  UNL     1     -10.780  13.907  20.249  1.00  0.00     0.031 N 
HETATM   22  N8  UNL     1     -11.225  15.093  20.626  1.00  0.00    -0.090 N 
ATOM     23  H8  UNL     1     -11.835  15.578  19.968  1.00  0.00     0.209 HD
BRANCH  16  24
HETATM   24  N4  UNL     1      -8.055  14.569  23.518  1.00  0.00    -0.234 N 
ATOM     25  H42 UNL     1      -7.243  13.987  23.311  1.00  0.00     0.174 HD
ATOM     26  H41 UNL     1      -8.159  15.188  24.321  1.00  0.00     0.174 HD
ENDBRANCH  16  24
BRANCH  19  27
HETATM   27  N6  UNL     1      -9.480  12.081  20.172  1.00  0.00    -0.227 N 
HETATM   28  C12 UNL     1      -8.115  11.856  19.771  1.00  0.00     0.165 C 
ATOM     29  H6  UNL     1     -10.192  11.385  19.951  1.00  0.00     0.177 HD
ENDBRANCH  19  27
BRANCH  21  30
HETATM   30  O2  UNL     1     -11.330  13.421  19.245  1.00  0.00    -0.254 OA
ATOM     31  H2  UNL     1     -11.529  12.493  19.297  1.00  0.00     0.247 HD
ENDBRANCH  21  30
ENDBRANCH  12  14
ENDBRANCH  11  12
ENDBRANCH  10  11
ENDBRANCH   9  10
ENDBRANCH   7   9
ENDBRANCH   4   5
TORSDOF 9
ENDMDL
MODEL 2
REMARK VINA RESULT: -5.698739554      4.098      7.319
REMARK  9 active torsions:
REMARK  status: ('A' for Active; 'I' for Inactive)
REMARK    1  A    between atoms: C4_4  and  C5_5 
REMARK       I    between atoms: C5_5  and  N1_7 
REMARK    2  A    between atoms: N1_7  and  C6_9 
REMARK    3  A    between atoms: C6_9  and  C7_10 
REMARK    4  A    between atoms: C7_10  and  C8_11 
REMARK    5  A    between atoms: C8_11  and  N2_12 
REMARK    6  A    between atoms: N2_12  and  C9_14 
REMARK    7  A    between atoms: C10_17  and  N4_18 
REMARK    8  A    between atoms: C11_23  and  N6_24 
REMARK    9  A    between atoms: N7_27  and  O2_28 
ROOT
HETATM    1  C1  UNL     1     -14.968   8.685  27.117  1.00  0.00     0.017 C 
HETATM    2  C2  UNL     1     -14.172   9.067  26.297  1.00  0.00    -0.089 C 
HETATM    3  C3  UNL     1     -13.202   9.545  25.321  1.00  0.00     0.069 C 
HETATM    4  C4  UNL     1     -13.602  10.023  24.181  1.00  0.00     0.083 C 
ENDROOT
BRANCH   4   5
HETATM    5  C5  UNL     1     -12.632  10.500  23.209  1.00  0.00     0.241 C 
HETATM    6  O1  UNL     1     -11.970   9.695  22.510  1.00  0.00    -0.269 OA
HETATM    7  N1  UNL     1     -12.406  11.896  23.021  1.00  0.00    -0.358 N 
ATOM      8  H1  UNL     1     -12.939  12.559  23.584  1.00  0.00     0.162 HD
BRANCH   7   9
HETATM    9  C6  UNL     1     -11.454  12.405  22.069  1.00  0.00     0.124 C 
BRANCH   9  10
HETATM   10  C7  UNL     1     -11.623  13.899  21.897  1.00  0.00     0.040 C 
BRANCH  10  11
HETATM   11  C8  UNL     1     -11.424  14.331  20.453  1.00  0.00     0.139 C 
BRANCH  11  12
HETATM   12  N2  UNL     1     -10.434  15.363  20.412  1.00  0.00    -0.224 N 
ATOM     13  H2  UNL     1     -10.772  16.317  20.537  1.00  0.00     0.177 HD
BRANCH  12  14
HETATM   14  C9  UNL     1      -9.184  15.230  20.239  1.00  0.00     0.709 C 
HETATM   15  N3  UNL     1      -8.737  13.951  20.173  1.00  0.00    -0.021 N 
HETATM   16  C10 UNL     1      -7.613  13.453  19.619  1.00  0.00     0.705 C 
ATOM     17  H3  UNL     1      -9.346  13.258  20.609  1.00  0.00     0.203 HD
HETATM   18  N5  UNL     1      -6.655  14.167  18.995  1.00  0.00    -0.019 N 
HETATM   19  C11 UNL     1      -6.437  15.502  19.063  1.00  0.00     0.734 C 
ATOM     20  H5  UNL     1      -6.017  13.638  18.400  1.00  0.00     0.203 HD
HETATM   21  N7  UNL     1      -7.256  16.470  19.532  1.00  0.00     0.031 N 
HETATM   22  N8  UNL     1      -8.425  16.348  20.138  1.00  0.00    -0.090 N 
ATOM     23  H8  UNL     1      -8.795  17.190  20.580  1.00  0.00     0.209 HD
BRANCH  16  24
HETATM   24  N4  UNL     1      -7.416  12.169  19.684  1.00  0.00    -0.234 N 
ATOM     25  H42 UNL     1      -7.561  11.650  18.817  1.00  0.00     0.174 HD
ATOM     26  H41 UNL     1      -7.134  11.771  20.580  1.00  0.00     0.174 HD
ENDBRANCH  16  24
BRANCH  19  27
HETATM   27  N6  UNL     1      -5.294  15.881  18.618  1.00  0.00    -0.227 N 
HETATM   28  C12 UNL     1      -4.409  14.941  17.978  1.00  0.00     0.165 C 
ATOM     29  H6  UNL     1      -5.010  16.855  18.718  1.00  0.00     0.177 HD
ENDBRANCH  19  27
BRANCH  21  30
HETATM   30  O2  UNL     1      -6.853  17.636  19.372  1.00  0.00    -0.254 OA
ATOM     31  H2  UNL     1      -6.255  17.957  20.037  1.00  0.00     0.247 HD
ENDBRANCH  21  30
ENDBRANCH  12  14
ENDBRANCH  11  12
ENDBRANCH  10  11
ENDBRANCH   9  10
ENDBRANCH   7   9
ENDBRANCH   4   5
TORSDOF 9
ENDMDL
MODEL 3
REMARK VINA RESULT: -5.694740242      2.326      4.217
REMARK  9 active torsions:
REMARK  status: ('A' for Active; 'I' for Inactive)
REMARK    1  A    between atoms: C4_4  and  C5_5 
REMARK       I    between atoms: C5_5  and  N1_7 
REMARK    2  A    between atoms: N1_7  and  C6_9 
REMARK    3  A    between atoms: C6_9  and  C7_10 
REMARK    4  A    between atoms: C7_10  and  C8_11 
REMARK    5  A    between atoms: C8_11  and  N2_12 
REMARK    6  A    between atoms: N2_12  and  C9_14 
REMARK    7  A    between atoms: C10_17  and  N4_18 
REMARK    8  A    between atoms: C11_23  and  N6_24 
REMARK    9  A    between atoms: N7_27  and  O2_28 
ROOT
HETATM    1  C1  UNL     1     -11.840  12.489  22.195  1.00  0.00     0.017 C 
HETATM    2  C2  UNL     1     -11.629  13.662  22.015  1.00  0.00    -0.089 C 
HETATM    3  C3  UNL     1     -11.398  15.085  21.803  1.00  0.00     0.069 C 
HETATM    4  C4  UNL     1     -10.960  15.513  20.657  1.00  0.00     0.083 C 
ENDROOT
BRANCH   4   5
HETATM    5  C5  UNL     1     -10.730  16.932  20.447  1.00  0.00     0.241 C 
HETATM    6  O1  UNL     1     -11.075  17.490  19.376  1.00  0.00    -0.269 OA
HETATM    7  N1  UNL     1     -10.109  17.732  21.451  1.00  0.00    -0.358 N 
ATOM      8  H1  UNL     1      -9.825  17.289  22.325  1.00  0.00     0.162 HD
BRANCH   7   9
HETATM    9  C6  UNL     1      -9.866  19.141  21.278  1.00  0.00     0.124 C 
BRANCH   9  10
HETATM   10  C7  UNL     1      -8.482  19.376  20.713  1.00  0.00     0.040 C 
BRANCH  10  11
HETATM   11  C8  UNL     1      -7.424  18.564  21.443  1.00  0.00     0.139 C 
BRANCH  11  12
HETATM   12  N2  UNL     1      -6.885  17.592  20.543  1.00  0.00    -0.224 N 
ATOM     13  H2  UNL     1      -6.417  17.957  19.713  1.00  0.00     0.177 HD
BRANCH  12  14
HETATM   14  C9  UNL     1      -6.920  16.329  20.655  1.00  0.00     0.709 C 
HETATM   15  N3  UNL     1      -7.418  15.862  21.827  1.00  0.00    -0.021 N 
HETATM   16  C10 UNL     1      -7.959  14.663  22.123  1.00  0.00     0.705 C 
ATOM     17  H3  UNL     1      -7.377  16.519  22.606  1.00  0.00     0.203 HD
HETATM   18  N5  UNL     1      -8.114  13.632  21.268  1.00  0.00    -0.019 N 
HETATM   19  C11 UNL     1      -7.501  13.443  20.075  1.00  0.00     0.734 C 
ATOM     20  H5  UNL     1      -8.773  12.908  21.553  1.00  0.00     0.203 HD
HETATM   21  N7  UNL     1      -6.809  14.333  19.328  1.00  0.00     0.031 N 
HETATM   22  N8  UNL     1      -6.469  15.576  19.622  1.00  0.00    -0.090 N 
ATOM     23  H8  UNL     1      -5.790  16.018  19.002  1.00  0.00     0.209 HD
BRANCH  16  24
HETATM   24  N4  UNL     1      -8.375  14.462  23.338  1.00  0.00    -0.234 N 
ATOM     25  H42 UNL     1      -9.335  14.746  23.536  1.00  0.00     0.174 HD
ATOM     26  H41 UNL     1      -7.727  14.040  24.004  1.00  0.00     0.174 HD
ENDBRANCH  16  24
BRANCH  19  27
HETATM   27  N6  UNL     1      -7.598  12.252  19.607  1.00  0.00    -0.227 N 
HETATM   28  C12 UNL     1      -8.778  11.463  19.850  1.00  0.00     0.165 C 
ATOM     29  H6  UNL     1      -6.833  11.860  19.058  1.00  0.00     0.177 HD
ENDBRANCH  19  27
BRANCH  21  30
HETATM   30  O2  UNL     1      -6.443  13.925  18.212  1.00  0.00    -0.254 OA
ATOM     31  H2  UNL     1      -7.023  13.299  17.795  1.00  0.00     0.247 HD
ENDBRANCH  21  30
ENDBRANCH  12  14
ENDBRANCH  11  12
ENDBRANCH  10  11
ENDBRANCH   9  10
ENDBRANCH   7   9
ENDBRANCH   4   5
TORSDOF 9
ENDMDL
MODEL 4
REMARK VINA RESULT: -5.640438940      2.624      4.789
REMARK  9 active torsions:
REMARK  status: ('A' for Active; 'I' for Inactive)
REMARK    1  A    between atoms: C4_4  and  C5_5 
REMARK       I    between atoms: C5_5  and  N1_7 
REMARK    2  A    between atoms: N1_7  and  C6_9 
REMARK    3  A    between atoms: C6_9  and  C7_10 
REMARK    4  A    between atoms: C7_10  and  C8_11 
REMARK    5  A    between atoms: C8_11  and  N2_12 
REMARK    6  A    between atoms: N2_12  and  C9_14 
REMARK    7  A    between atoms: C10_17  and  N4_18 
REMARK    8  A    between atoms: C11_23  and  N6_24 
REMARK    9  A    between atoms: N7_27  and  O2_28 
ROOT
HETATM    1  C1  UNL     1      -5.385  13.382  27.004  1.00  0.00     0.017 C 
HETATM    2  C2  UNL     1      -6.026  14.043  26.226  1.00  0.00    -0.089 C 
HETATM    3  C3  UNL     1      -6.817  14.849  25.305  1.00  0.00     0.069 C 
HETATM    4  C4  UNL     1      -7.366  14.300  24.263  1.00  0.00     0.083 C 
ENDROOT
BRANCH   4   5
HETATM    5  C5  UNL     1      -8.155  15.106  23.345  1.00  0.00     0.241 C 
HETATM    6  O1  UNL     1      -7.601  15.820  22.474  1.00  0.00    -0.269 OA
HETATM    7  N1  UNL     1      -9.580  15.107  23.407  1.00  0.00    -0.358 N 
ATOM      8  H1  UNL     1     -10.040  14.530  24.111  1.00  0.00     0.162 HD
BRANCH   7   9
HETATM    9  C6  UNL     1     -10.393  15.892  22.515  1.00  0.00     0.124 C 
BRANCH   9  10
HETATM   10  C7  UNL     1     -11.606  15.104  22.072  1.00  0.00     0.040 C 
BRANCH  10  11
HETATM   11  C8  UNL     1     -11.437  14.540  20.671  1.00  0.00     0.139 C 
BRANCH  11  12
HETATM   12  N2  UNL     1     -10.509  15.358  19.952  1.00  0.00    -0.224 N 
ATOM     13  H2  UNL     1     -10.908  16.131  19.420  1.00  0.00     0.177 HD
BRANCH  12  14
HETATM   14  C9  UNL     1      -9.247  15.234  19.900  1.00  0.00     0.709 C 
HETATM   15  N3  UNL     1      -8.780  13.967  20.023  1.00  0.00    -0.021 N 
HETATM   16  C10 UNL     1      -7.606  13.433  19.627  1.00  0.00     0.705 C 
ATOM     17  H3  UNL     1      -9.415  13.316  20.486  1.00  0.00     0.203 HD
HETATM   18  N5  UNL     1      -6.608  14.092  19.005  1.00  0.00    -0.019 N 
HETATM   19  C11 UNL     1      -6.414  15.430  18.932  1.00  0.00     0.734 C 
ATOM     20  H5  UNL     1      -5.916  13.512  18.531  1.00  0.00     0.203 HD
HETATM   21  N7  UNL     1      -7.282  16.427  19.214  1.00  0.00     0.031 N 
HETATM   22  N8  UNL     1      -8.497  16.350  19.731  1.00  0.00    -0.090 N 
ATOM     23  H8  UNL     1      -8.915  17.228  20.038  1.00  0.00     0.209 HD
BRANCH  16  24
HETATM   24  N4  UNL     1      -7.399  12.171  19.859  1.00  0.00    -0.234 N 
ATOM     25  H42 UNL     1      -7.120  11.931  20.811  1.00  0.00     0.174 HD
ATOM     26  H41 UNL     1      -7.526  11.514  19.090  1.00  0.00     0.174 HD
ENDBRANCH  16  24
BRANCH  19  27
HETATM   27  N6  UNL     1      -5.243  15.780  18.541  1.00  0.00    -0.227 N 
HETATM   28  C12 UNL     1      -4.383  14.840  17.871  1.00  0.00     0.165 C 
ATOM     29  H6  UNL     1      -4.918  16.732  18.708  1.00  0.00     0.177 HD
ENDBRANCH  19  27
BRANCH  21  30
HETATM   30  O2  UNL     1      -6.883  17.575  18.951  1.00  0.00    -0.254 OA
ATOM     31  H2  UNL     1      -6.312  17.968  19.601  1.00  0.00     0.247 HD
ENDBRANCH  21  30
ENDBRANCH  12  14
ENDBRANCH  11  12
ENDBRANCH  10  11
ENDBRANCH   9  10
ENDBRANCH   7   9
ENDBRANCH   4   5
TORSDOF 9
ENDMDL
MODEL 5
REMARK VINA RESULT: -5.607599566      4.098      7.166
REMARK  9 active torsions:
REMARK  status: ('A' for Active; 'I' for Inactive)
REMARK    1  A    between atoms: C4_4  and  C5_5 
REMARK       I    between atoms: C5_5  and  N1_7 
REMARK    2  A    between atoms: N1_7  and  C6_9 
REMARK    3  A    between atoms: C6_9  and  C7_10 
REMARK    4  A    between atoms: C7_10  and  C8_11 
REMARK    5  A    between atoms: C8_11  and  N2_12 
REMARK    6  A    between atoms: N2_12  and  C9_14 
REMARK    7  A    between atoms: C10_17  and  N4_18 
REMARK    8  A    between atoms: C11_23  and  N6_24 
REMARK    9  A    between atoms: N7_27  and  O2_28 
ROOT
HETATM    1  C1  UNL     1     -14.960   8.651  26.962  1.00  0.00     0.017 C 
HETATM    2  C2  UNL     1     -14.183   8.996  26.107  1.00  0.00    -0.089 C 
HETATM    3  C3  UNL     1     -13.229   9.421  25.092  1.00  0.00     0.069 C 
HETATM    4  C4  UNL     1     -13.582  10.278  24.181  1.00  0.00     0.083 C 
ENDROOT
BRANCH   4   5
HETATM    5  C5  UNL     1     -12.629  10.702  23.170  1.00  0.00     0.241 C 
HETATM    6  O1  UNL     1     -12.072   9.865  22.417  1.00  0.00    -0.269 OA
HETATM    7  N1  UNL     1     -12.298  12.079  23.002  1.00  0.00    -0.358 N 
ATOM      8  H1  UNL     1     -12.744  12.767  23.608  1.00  0.00     0.162 HD
BRANCH   7   9
HETATM    9  C6  UNL     1     -11.359  12.535  22.011  1.00  0.00     0.124 C 
BRANCH   9  10
HETATM   10  C7  UNL     1     -11.628  13.980  21.649  1.00  0.00     0.040 C 
BRANCH  10  11
HETATM   11  C8  UNL     1     -10.718  14.934  22.406  1.00  0.00     0.139 C 
BRANCH  11  12
HETATM   12  N2  UNL     1      -9.358  14.596  22.124  1.00  0.00    -0.224 N 
ATOM     13  H2  UNL     1      -8.873  14.048  22.836  1.00  0.00     0.177 HD
BRANCH  12  14
HETATM   14  C9  UNL     1      -8.683  14.897  21.093  1.00  0.00     0.709 C 
HETATM   15  N3  UNL     1      -8.420  16.219  20.934  1.00  0.00    -0.021 N 
HETATM   16  C10 UNL     1      -7.446  16.830  20.231  1.00  0.00     0.705 C 
ATOM     17  H3  UNL     1      -9.059  16.847  21.422  1.00  0.00     0.203 HD
HETATM   18  N5  UNL     1      -6.492  16.217  19.502  1.00  0.00    -0.019 N 
HETATM   19  C11 UNL     1      -6.483  14.939  19.053  1.00  0.00     0.734 C 
ATOM     20  H5  UNL     1      -5.680  16.784  19.258  1.00  0.00     0.203 HD
HETATM   21  N7  UNL     1      -7.261  13.902  19.436  1.00  0.00     0.031 N 
HETATM   22  N8  UNL     1      -8.294  13.899  20.262  1.00  0.00    -0.090 N 
ATOM     23  H8  UNL     1      -8.861  13.052  20.275  1.00  0.00     0.209 HD
BRANCH  16  24
HETATM   24  N4  UNL     1      -7.405  18.130  20.244  1.00  0.00    -0.234 N 
ATOM     25  H42 UNL     1      -6.840  18.552  20.982  1.00  0.00     0.174 HD
ATOM     26  H41 UNL     1      -7.930  18.634  19.530  1.00  0.00     0.174 HD
ENDBRANCH  16  24
BRANCH  19  27
HETATM   27  N6  UNL     1      -5.612  14.698  18.141  1.00  0.00    -0.227 N 
HETATM   28  C12 UNL     1      -4.351  15.394  18.132  1.00  0.00     0.165 C 
ATOM     29  H6  UNL     1      -5.814  14.009  17.418  1.00  0.00     0.177 HD
ENDBRANCH  19  27
BRANCH  21  30
HETATM   30  O2  UNL     1      -6.966  12.800  18.942  1.00  0.00    -0.254 OA
ATOM     31  H2  UNL     1      -7.436  12.054  19.296  1.00  0.00     0.247 HD
ENDBRANCH  21  30
ENDBRANCH  12  14
ENDBRANCH  11  12
ENDBRANCH  10  11
ENDBRANCH   9  10
ENDBRANCH   7   9
ENDBRANCH   4   5
TORSDOF 9
ENDMDL
