MODEL 1
REMARK VINA RESULT: -7.053346364      0.000      0.000
REMARK  7 active torsions:
REMARK  status: ('A' for Active; 'I' for Inactive)
REMARK    1  A    between atoms: C2_2  and  N1_3 
REMARK    2  A    between atoms: C7_8  and  C8_9 
REMARK    3  A    between atoms: C8_9  and  N2_10 
REMARK    4  A    between atoms: C8_9  and  N4_14 
REMARK    5  A    between atoms: N2_10  and  N3_11 
REMARK    6  A    between atoms: C9_16  and  C10_17 
REMARK    7  A    between atoms: C10_17  and  C11_18 
ROOT
HETATM    1  N4  UNL     1      -9.417  13.048  21.544  1.00  0.00    -0.378 N 
ATOM      2  H4  UNL     1      -9.000  12.458  22.265  1.00  0.00     0.160 HD
HETATM    3  C9  UNL     1     -10.627  13.401  21.665  1.00  0.00     0.062 C 
ENDROOT
BRANCH   1   4
HETATM    4  C8  UNL     1      -8.601  13.458  20.405  1.00  0.00     0.246 C 
BRANCH   4   5
HETATM    5  C7  UNL     1      -7.745  14.587  20.772  1.00  0.00     0.051 A 
HETATM    6  N1  UNL     1      -6.795  15.025  19.975  1.00  0.00    -0.358 N 
HETATM    7  C3  UNL     1      -6.036  16.093  20.384  1.00  0.00     0.091 A 
HETATM    8  C4  UNL     1      -6.241  16.710  21.596  1.00  0.00     0.017 A 
HETATM    9  C5  UNL     1      -7.238  16.259  22.446  1.00  0.00     0.003 A 
HETATM   10  C6  UNL     1      -7.985  15.189  22.015  1.00  0.00     0.029 A 
BRANCH   6  11
HETATM   11  C2  UNL     1      -6.510  14.434  18.691  1.00  0.00     0.124 C 
HETATM   12  C1  UNL     1      -5.145  14.982  18.254  1.00  0.00     0.027 C 
ENDBRANCH   6  11
ENDBRANCH   4   5
BRANCH   4  13
HETATM   13  N2  UNL     1      -7.821  12.259  20.069  1.00  0.00    -0.116 NA
BRANCH  13  14
HETATM   14  N3  UNL     1      -8.635  11.384  19.359  1.00  0.00    -0.346 N 
ATOM     15  H32 UNL     1      -9.365  10.801  19.771  1.00  0.00     0.172 HD
ATOM     16  H31 UNL     1      -8.378  11.426  18.373  1.00  0.00     0.172 HD
ENDBRANCH  13  14
ENDBRANCH   4  13
ENDBRANCH   1   4
BRANCH   3  17
HETATM   17  C10 UNL     1     -11.369  14.256  20.700  1.00  0.00     0.092 C 
BRANCH  17  18
HETATM   18  C11 UNL     1     -11.136  15.696  20.940  1.00  0.00     0.056 A 
HETATM   19  C12 UNL     1     -11.490  16.264  22.138  1.00  0.00     0.132 A 
HETATM   20  N5  UNL     1     -12.080  15.446  23.134  1.00  0.00    -0.082 NA
HETATM   21  N6  UNL     1     -11.274  17.584  22.348  1.00  0.00    -0.296 N 
HETATM   22  C13 UNL     1     -10.713  18.357  21.397  1.00  0.00     0.328 A 
ATOM     23  H6  UNL     1     -11.540  18.000  23.241  1.00  0.00     0.171 HD
HETATM   24  O1  UNL     1     -10.498  19.590  21.562  1.00  0.00    -0.247 OA
HETATM   25  N7  UNL     1     -10.364  17.808  20.225  1.00  0.00    -0.275 N 
HETATM   26  C14 UNL     1     -10.565  16.498  19.982  1.00  0.00     0.259 A 
ATOM     27  H7  UNL     1      -9.939  18.391  19.505  1.00  0.00     0.173 HD
HETATM   28  O2  UNL     1     -10.214  16.054  18.861  1.00  0.00    -0.267 OA
ENDBRANCH  17  18
ENDBRANCH   3  17
TORSDOF 7
ENDMDL
MODEL 2
REMARK VINA RESULT: -6.536035022      1.197      1.773
REMARK  7 active torsions:
REMARK  status: ('A' for Active; 'I' for Inactive)
REMARK    1  A    between atoms: C2_2  and  N1_3 
REMARK    2  A    between atoms: C7_8  and  C8_9 
REMARK    3  A    between atoms: C8_9  and  N2_10 
REMARK    4  A    between atoms: C8_9  and  N4_14 
REMARK    5  A    between atoms: N2_10  and  N3_11 
REMARK    6  A    between atoms: C9_16  and  C10_17 
REMARK    7  A    between atoms: C10_17  and  C11_18 
ROOT
HETATM    1  N4  UNL     1      -8.978  13.018  21.218  1.00  0.00    -0.378 N 
ATOM      2  H4  UNL     1      -8.512  12.414  21.895  1.00  0.00     0.160 HD
HETATM    3  C9  UNL     1     -10.207  13.279  21.371  1.00  0.00     0.062 C 
ENDROOT
BRANCH   1   4
HETATM    4  C8  UNL     1      -8.206  13.557  20.101  1.00  0.00     0.246 C 
BRANCH   4   5
HETATM    5  C7  UNL     1      -7.442  14.730  20.528  1.00  0.00     0.051 A 
HETATM    6  N1  UNL     1      -6.497  15.252  19.778  1.00  0.00    -0.358 N 
HETATM    7  C3  UNL     1      -5.827  16.357  20.242  1.00  0.00     0.091 A 
HETATM    8  C4  UNL     1      -6.116  16.925  21.461  1.00  0.00     0.017 A 
HETATM    9  C5  UNL     1      -7.109  16.385  22.262  1.00  0.00     0.003 A 
HETATM   10  C6  UNL     1      -7.766  15.279  21.776  1.00  0.00     0.029 A 
BRANCH   6  11
HETATM   11  C2  UNL     1      -6.126  14.718  18.492  1.00  0.00     0.124 C 
HETATM   12  C1  UNL     1      -4.700  15.208  18.212  1.00  0.00     0.027 C 
ENDBRANCH   6  11
ENDBRANCH   4   5
BRANCH   4  13
HETATM   13  N2  UNL     1      -7.334  12.445  19.696  1.00  0.00    -0.116 NA
BRANCH  13  14
HETATM   14  N3  UNL     1      -8.076  11.554  18.930  1.00  0.00    -0.346 N 
ATOM     15  H32 UNL     1      -8.783  11.822  18.245  1.00  0.00     0.172 HD
ATOM     16  H31 UNL     1      -7.793  10.604  19.170  1.00  0.00     0.172 HD
ENDBRANCH  13  14
ENDBRANCH   4  13
ENDBRANCH   1   4
BRANCH   3  17
HETATM   17  C10 UNL     1     -11.018  14.139  20.469  1.00  0.00     0.092 C 
BRANCH  17  18
HETATM   18  C11 UNL     1     -11.141  15.521  20.982  1.00  0.00     0.056 A 
HETATM   19  C12 UNL     1     -10.696  16.579  20.230  1.00  0.00     0.132 A 
HETATM   20  N5  UNL     1     -10.122  16.322  18.960  1.00  0.00    -0.082 NA
HETATM   21  N6  UNL     1     -10.811  17.840  20.708  1.00  0.00    -0.296 N 
HETATM   22  C13 UNL     1     -11.358  18.079  21.918  1.00  0.00     0.328 A 
ATOM     23  H6  UNL     1     -10.479  18.623  20.145  1.00  0.00     0.171 HD
HETATM   24  O1  UNL     1     -11.480  19.242  22.391  1.00  0.00    -0.247 OA
HETATM   25  N7  UNL     1     -11.795  17.048  22.656  1.00  0.00    -0.275 N 
HETATM   26  C14 UNL     1     -11.695  15.781  22.211  1.00  0.00     0.259 A 
ATOM     27  H7  UNL     1     -12.209  17.226  23.570  1.00  0.00     0.173 HD
HETATM   28  O2  UNL     1     -12.125  14.867  22.958  1.00  0.00    -0.267 OA
ENDBRANCH  17  18
ENDBRANCH   3  17
TORSDOF 7
ENDMDL
MODEL 3
REMARK VINA RESULT: -5.900878840      2.068      4.639
REMARK  7 active torsions:
REMARK  status: ('A' for Active; 'I' for Inactive)
REMARK    1  A    between atoms: C2_2  and  N1_3 
REMARK    2  A    between atoms: C7_8  and  C8_9 
REMARK    3  A    between atoms: C8_9  and  N2_10 
REMARK    4  A    between atoms: C8_9  and  N4_14 
REMARK    5  A    between atoms: N2_10  and  N3_11 
REMARK    6  A    between atoms: C9_16  and  C10_17 
REMARK    7  A    between atoms: C10_17  and  C11_18 
ROOT
HETATM    1  N4  UNL     1     -10.361  17.773  20.630  1.00  0.00    -0.378 N 
ATOM      2  H4  UNL     1     -10.663  18.407  19.890  1.00  0.00     0.160 HD
HETATM    3  C9  UNL     1     -11.101  16.793  20.939  1.00  0.00     0.062 C 
ENDROOT
BRANCH   1   4
HETATM    4  C8  UNL     1      -9.089  18.023  21.301  1.00  0.00     0.246 C 
BRANCH   4   5
HETATM    5  C7  UNL     1      -8.007  17.305  20.627  1.00  0.00     0.051 A 
HETATM    6  N1  UNL     1      -6.865  17.048  21.228  1.00  0.00    -0.358 N 
HETATM    7  C3  UNL     1      -5.899  16.364  20.533  1.00  0.00     0.091 A 
HETATM    8  C4  UNL     1      -6.091  15.946  19.237  1.00  0.00     0.017 A 
HETATM    9  C5  UNL     1      -7.289  16.210  18.592  1.00  0.00     0.003 A 
HETATM   10  C6  UNL     1      -8.242  16.896  19.307  1.00  0.00     0.029 A 
BRANCH   6  11
HETATM   11  C2  UNL     1      -6.578  17.454  22.580  1.00  0.00     0.124 C 
HETATM   12  C1  UNL     1      -5.079  17.212  22.798  1.00  0.00     0.027 C 
ENDBRANCH   6  11
ENDBRANCH   4   5
BRANCH   4  13
HETATM   13  N2  UNL     1      -8.919  19.481  21.222  1.00  0.00    -0.116 NA
BRANCH  13  14
HETATM   14  N3  UNL     1      -7.600  19.757  20.883  1.00  0.00    -0.346 N 
ATOM     15  H32 UNL     1      -7.004  20.434  21.361  1.00  0.00     0.172 HD
ATOM     16  H31 UNL     1      -7.338  19.175  20.088  1.00  0.00     0.172 HD
ENDBRANCH  13  14
ENDBRANCH   4  13
ENDBRANCH   1   4
BRANCH   3  17
HETATM   17  C10 UNL     1     -10.795  15.788  21.992  1.00  0.00     0.092 C 
BRANCH  17  18
HETATM   18  C11 UNL     1     -10.097  14.606  21.445  1.00  0.00     0.056 A 
HETATM   19  C12 UNL     1      -8.923  14.174  22.009  1.00  0.00     0.132 A 
HETATM   20  N5  UNL     1      -8.398  14.879  23.120  1.00  0.00    -0.082 NA
HETATM   21  N6  UNL     1      -8.290  13.090  21.501  1.00  0.00    -0.296 N 
HETATM   22  C13 UNL     1      -8.795  12.422  20.443  1.00  0.00     0.328 A 
ATOM     23  H6  UNL     1      -7.418  12.774  21.924  1.00  0.00     0.171 HD
HETATM   24  O1  UNL     1      -8.229  11.409  19.946  1.00  0.00    -0.247 OA
HETATM   25  N7  UNL     1      -9.941  12.840  19.889  1.00  0.00    -0.275 N 
HETATM   26  C14 UNL     1     -10.597  13.914  20.369  1.00  0.00     0.259 A 
ATOM     27  H7  UNL     1     -10.324  12.336  19.090  1.00  0.00     0.173 HD
HETATM   28  O2  UNL     1     -11.665  14.247  19.798  1.00  0.00    -0.267 OA
ENDBRANCH  17  18
ENDBRANCH   3  17
TORSDOF 7
ENDMDL
MODEL 4
REMARK VINA RESULT: -5.680327664      0.806      1.977
REMARK  7 active torsions:
REMARK  status: ('A' for Active; 'I' for Inactive)
REMARK    1  A    between atoms: C2_2  and  N1_3 
REMARK    2  A    between atoms: C7_8  and  C8_9 
REMARK    3  A    between atoms: C8_9  and  N2_10 
REMARK    4  A    between atoms: C8_9  and  N4_14 
REMARK    5  A    between atoms: N2_10  and  N3_11 
REMARK    6  A    between atoms: C9_16  and  C10_17 
REMARK    7  A    between atoms: C10_17  and  C11_18 
ROOT
HETATM    1  N4  UNL     1      -9.569  13.072  21.682  1.00  0.00    -0.378 N 
ATOM      2  H4  UNL     1      -9.134  12.505  22.410  1.00  0.00     0.160 HD
HETATM    3  C9  UNL     1     -10.752  13.487  21.851  1.00  0.00     0.062 C 
ENDROOT
BRANCH   1   4
HETATM    4  C8  UNL     1      -8.806  13.380  20.475  1.00  0.00     0.246 C 
BRANCH   4   5
HETATM    5  C7  UNL     1      -7.893  14.497  20.720  1.00  0.00     0.051 A 
HETATM    6  N1  UNL     1      -7.789  15.061  21.904  1.00  0.00    -0.358 N 
HETATM    7  C3  UNL     1      -6.906  16.101  22.059  1.00  0.00     0.091 A 
HETATM    8  C4  UNL     1      -6.136  16.565  21.018  1.00  0.00     0.017 A 
HETATM    9  C5  UNL     1      -6.236  15.980  19.766  1.00  0.00     0.003 A 
HETATM   10  C6  UNL     1      -7.126  14.941  19.634  1.00  0.00     0.029 A 
BRANCH   6  11
HETATM   11  C2  UNL     1      -8.561  14.643  23.046  1.00  0.00     0.124 C 
HETATM   12  C1  UNL     1      -7.675  14.871  24.278  1.00  0.00     0.027 C 
ENDBRANCH   6  11
ENDBRANCH   4   5
BRANCH   4  13
HETATM   13  N2  UNL     1      -8.087  12.134  20.175  1.00  0.00    -0.116 NA
BRANCH  13  14
HETATM   14  N3  UNL     1      -8.915  11.314  19.418  1.00  0.00    -0.346 N 
ATOM     15  H32 UNL     1      -8.681  10.934  18.501  1.00  0.00     0.172 HD
ATOM     16  H31 UNL     1      -9.783  11.162  19.933  1.00  0.00     0.172 HD
ENDBRANCH  13  14
ENDBRANCH   4  13
ENDBRANCH   1   4
BRANCH   3  17
HETATM   17  C10 UNL     1     -11.514  14.319  20.882  1.00  0.00     0.092 C 
BRANCH  17  18
HETATM   18  C11 UNL     1     -11.234  15.762  21.047  1.00  0.00     0.056 A 
HETATM   19  C12 UNL     1     -11.550  16.397  22.221  1.00  0.00     0.132 A 
HETATM   20  N5  UNL     1     -12.147  15.648  23.265  1.00  0.00    -0.082 NA
HETATM   21  N6  UNL     1     -11.291  17.719  22.363  1.00  0.00    -0.296 N 
HETATM   22  C13 UNL     1     -10.723  18.427  21.365  1.00  0.00     0.328 A 
ATOM     23  H6  UNL     1     -11.528  18.185  23.238  1.00  0.00     0.171 HD
HETATM   24  O1  UNL     1     -10.468  19.659  21.467  1.00  0.00    -0.247 OA
HETATM   25  N7  UNL     1     -10.411  17.810  20.217  1.00  0.00    -0.275 N 
HETATM   26  C14 UNL     1     -10.656  16.497  20.042  1.00  0.00     0.259 A 
ATOM     27  H7  UNL     1      -9.981  18.344  19.462  1.00  0.00     0.173 HD
HETATM   28  O2  UNL     1     -10.337  15.988  18.939  1.00  0.00    -0.267 OA
ENDBRANCH  17  18
ENDBRANCH   3  17
TORSDOF 7
ENDMDL
MODEL 5
REMARK VINA RESULT: -5.279707995      4.535      6.176
REMARK  7 active torsions:
REMARK  status: ('A' for Active; 'I' for Inactive)
REMARK    1  A    between atoms: C2_2  and  N1_3 
REMARK    2  A    between atoms: C7_8  and  C8_9 
REMARK    3  A    between atoms: C8_9  and  N2_10 
REMARK    4  A    between atoms: C8_9  and  N4_14 
REMARK    5  A    between atoms: N2_10  and  N3_11 
REMARK    6  A    between atoms: C9_16  and  C10_17 
REMARK    7  A    between atoms: C10_17  and  C11_18 
ROOT
HETATM    1  N4  UNL     1      -8.807  14.321  22.832  1.00  0.00    -0.378 N 
ATOM      2  H4  UNL     1      -9.329  13.593  22.344  1.00  0.00     0.160 HD
HETATM    3  C9  UNL     1      -8.308  14.064  23.966  1.00  0.00     0.062 C 
ENDROOT
BRANCH   1   4
HETATM    4  C8  UNL     1      -8.658  15.629  22.201  1.00  0.00     0.246 C 
BRANCH   4   5
HETATM    5  C7  UNL     1      -7.679  15.563  21.115  1.00  0.00     0.051 A 
HETATM    6  N1  UNL     1      -6.848  16.552  20.869  1.00  0.00    -0.358 N 
HETATM    7  C3  UNL     1      -5.953  16.415  19.837  1.00  0.00     0.091 A 
HETATM    8  C4  UNL     1      -5.904  15.281  19.061  1.00  0.00     0.017 A 
HETATM    9  C5  UNL     1      -6.774  14.231  19.309  1.00  0.00     0.003 A 
HETATM   10  C6  UNL     1      -7.661  14.391  20.346  1.00  0.00     0.029 A 
BRANCH   6  11
HETATM   11  C2  UNL     1      -6.835  17.777  21.629  1.00  0.00     0.124 C 
HETATM   12  C1  UNL     1      -7.632  18.803  20.814  1.00  0.00     0.027 C 
ENDBRANCH   6  11
ENDBRANCH   4   5
BRANCH   4  13
HETATM   13  N2  UNL     1     -10.007  15.948  21.711  1.00  0.00    -0.116 NA
BRANCH  13  14
HETATM   14  N3  UNL     1     -10.918  15.106  22.336  1.00  0.00    -0.346 N 
ATOM     15  H32 UNL     1     -10.702  14.176  22.695  1.00  0.00     0.172 HD
ATOM     16  H31 UNL     1     -11.824  15.574  22.372  1.00  0.00     0.172 HD
ENDBRANCH  13  14
ENDBRANCH   4  13
ENDBRANCH   1   4
BRANCH   3  17
HETATM   17  C10 UNL     1      -7.524  15.020  24.794  1.00  0.00     0.092 C 
BRANCH  17  18
HETATM   18  C11 UNL     1      -6.648  14.328  25.762  1.00  0.00     0.056 A 
HETATM   19  C12 UNL     1      -5.402  14.826  26.046  1.00  0.00     0.132 A 
HETATM   20  N5  UNL     1      -4.975  16.011  25.396  1.00  0.00    -0.082 NA
HETATM   21  N6  UNL     1      -4.605  14.185  26.934  1.00  0.00    -0.296 N 
HETATM   22  C13 UNL     1      -5.016  13.057  27.549  1.00  0.00     0.328 A 
ATOM     23  H6  UNL     1      -3.680  14.561  27.140  1.00  0.00     0.171 HD
HETATM   24  O1  UNL     1      -4.299  12.437  28.381  1.00  0.00    -0.247 OA
HETATM   25  N7  UNL     1      -6.233  12.567  27.276  1.00  0.00    -0.275 N 
HETATM   26  C14 UNL     1      -7.051  13.179  26.398  1.00  0.00     0.259 A 
ATOM     27  H7  UNL     1      -6.546  11.715  27.741  1.00  0.00     0.173 HD
HETATM   28  O2  UNL     1      -8.176  12.661  26.192  1.00  0.00    -0.267 OA
ENDBRANCH  17  18
ENDBRANCH   3  17
TORSDOF 7
ENDMDL
