MODEL 1
REMARK VINA RESULT: -7.664929552      0.000      0.000
REMARK  6 active torsions:
REMARK  status: ('A' for Active; 'I' for Inactive)
REMARK    1  A    between atoms: N3_6  and  C3_8 
REMARK    2  A    between atoms: C3_8  and  C4_9 
REMARK    3  A    between atoms: C4_9  and  C5_10 
REMARK    4  A    between atoms: C5_10  and  N4_11 
REMARK    5  A    between atoms: N4_11  and  C6_13 
REMARK    6  A    between atoms: C10_22  and  N7_23 
ROOT
HETATM    1  C1  UNL     1      -7.549  15.180  22.768  1.00  0.00     0.183 C 
HETATM    2  N1  UNL     1      -7.088  14.876  21.429  1.00  0.00    -0.245 N 
HETATM    3  N2  UNL     1      -7.343  13.724  20.817  1.00  0.00    -0.277 N 
ATOM      4  H2  UNL     1      -7.888  13.016  21.309  1.00  0.00     0.189 HD
HETATM    5  C2  UNL     1      -6.909  13.457  19.578  1.00  0.00     0.160 A 
HETATM    6  N3  UNL     1      -7.144  12.362  18.979  1.00  0.00    -0.372 N 
ATOM      7  H3  UNL     1      -6.776  12.242  18.035  1.00  0.00     0.161 HD
HETATM    8  C10 UNL     1      -6.171  14.407  18.907  1.00  0.00     0.149 A 
HETATM    9  N8  UNL     1      -5.911  15.566  19.515  1.00  0.00    -0.290 N 
ATOM     10  H8  UNL     1      -5.365  16.282  19.035  1.00  0.00     0.172 HD
HETATM   11  C11 UNL     1      -6.365  15.792  20.757  1.00  0.00     0.342 A 
HETATM   12  O2  UNL     1      -6.114  16.896  21.327  1.00  0.00    -0.245 OA
ENDROOT
BRANCH   6  13
HETATM   13  C3  UNL     1      -7.904  11.272  19.558  1.00  0.00     0.123 C 
BRANCH  13  14
HETATM   14  C4  UNL     1      -9.363  11.487  19.152  1.00  0.00     0.039 C 
BRANCH  14  15
HETATM   15  C5  UNL     1     -10.048  12.042  20.410  1.00  0.00     0.123 C 
BRANCH  15  16
HETATM   16  N4  UNL     1     -10.874  13.125  19.990  1.00  0.00    -0.375 N 
ATOM     17  H4  UNL     1     -11.722  12.898  19.470  1.00  0.00     0.161 HD
BRANCH  16  18
HETATM   18  C6  UNL     1     -10.628  14.373  20.220  1.00  0.00     0.115 A 
HETATM   19  C7  UNL     1     -11.086  14.946  21.388  1.00  0.00     0.055 A 
HETATM   20  C8  UNL     1     -10.874  16.264  21.720  1.00  0.00     0.079 A 
HETATM   21  C9  UNL     1     -10.155  17.021  20.796  1.00  0.00     0.259 A 
HETATM   22  O1  UNL     1      -9.949  18.231  21.079  1.00  0.00    -0.267 OA
HETATM   23  N5  UNL     1      -9.714  16.450  19.660  1.00  0.00    -0.265 N 
HETATM   24  N6  UNL     1      -9.941  15.162  19.374  1.00  0.00    -0.283 N 
ATOM     25  H5  UNL     1      -9.189  17.017  18.994  1.00  0.00     0.190 HD
ATOM     26  H6  UNL     1      -9.586  14.773  18.501  1.00  0.00     0.188 HD
ENDBRANCH  16  18
ENDBRANCH  15  16
ENDBRANCH  14  15
ENDBRANCH  13  14
ENDBRANCH   6  13
BRANCH   8  27
HETATM   27  N7  UNL     1      -5.739  14.183  17.718  1.00  0.00    -0.382 N 
ATOM     28  H72 UNL     1      -6.379  14.199  16.923  1.00  0.00     0.157 HD
ATOM     29  H71 UNL     1      -4.753  13.988  17.550  1.00  0.00     0.157 HD
ENDBRANCH   8  27
TORSDOF 6
ENDMDL
MODEL 2
REMARK VINA RESULT: -7.126543034      1.153      2.220
REMARK  6 active torsions:
REMARK  status: ('A' for Active; 'I' for Inactive)
REMARK    1  A    between atoms: N3_6  and  C3_8 
REMARK    2  A    between atoms: C3_8  and  C4_9 
REMARK    3  A    between atoms: C4_9  and  C5_10 
REMARK    4  A    between atoms: C5_10  and  N4_11 
REMARK    5  A    between atoms: N4_11  and  C6_13 
REMARK    6  A    between atoms: C10_22  and  N7_23 
ROOT
HETATM    1  C1  UNL     1      -4.493  14.065  17.368  1.00  0.00     0.183 C 
HETATM    2  N1  UNL     1      -5.303  14.363  18.531  1.00  0.00    -0.245 N 
HETATM    3  N2  UNL     1      -6.239  13.541  18.994  1.00  0.00    -0.277 N 
ATOM      4  H2  UNL     1      -6.399  12.657  18.511  1.00  0.00     0.189 HD
HETATM    5  C2  UNL     1      -6.980  13.830  20.072  1.00  0.00     0.160 A 
HETATM    6  N3  UNL     1      -7.879  13.056  20.527  1.00  0.00    -0.372 N 
ATOM      7  H3  UNL     1      -8.396  13.354  21.354  1.00  0.00     0.161 HD
HETATM    8  C10 UNL     1      -6.770  15.022  20.730  1.00  0.00     0.149 A 
HETATM    9  N8  UNL     1      -5.832  15.853  20.271  1.00  0.00    -0.290 N 
ATOM     10  H8  UNL     1      -5.662  16.740  20.744  1.00  0.00     0.172 HD
HETATM   11  C11 UNL     1      -5.112  15.523  19.188  1.00  0.00     0.342 A 
HETATM   12  O2  UNL     1      -4.222  16.318  18.759  1.00  0.00    -0.245 OA
ENDROOT
BRANCH   6  13
HETATM   13  C3  UNL     1      -8.211  11.772  19.941  1.00  0.00     0.123 C 
BRANCH  13  14
HETATM   14  C4  UNL     1      -9.700  11.819  19.594  1.00  0.00     0.039 C 
BRANCH  14  15
HETATM   15  C5  UNL     1     -10.373  12.467  20.814  1.00  0.00     0.123 C 
BRANCH  15  16
HETATM   16  N4  UNL     1     -11.148  13.559  20.328  1.00  0.00    -0.375 N 
ATOM     17  H4  UNL     1     -12.005  13.341  19.819  1.00  0.00     0.161 HD
BRANCH  16  18
HETATM   18  C6  UNL     1     -10.847  14.807  20.484  1.00  0.00     0.115 A 
HETATM   19  C7  UNL     1     -11.251  15.458  21.632  1.00  0.00     0.055 A 
HETATM   20  C8  UNL     1     -10.977  16.782  21.888  1.00  0.00     0.079 A 
HETATM   21  C9  UNL     1     -10.253  17.459  20.908  1.00  0.00     0.259 A 
HETATM   22  O1  UNL     1      -9.991  18.673  21.121  1.00  0.00    -0.267 OA
HETATM   23  N5  UNL     1      -9.865  16.812  19.793  1.00  0.00    -0.265 N 
HETATM   24  N6  UNL     1     -10.151  15.522  19.582  1.00  0.00    -0.283 N 
ATOM     25  H5  UNL     1      -9.336  17.321  19.086  1.00  0.00     0.190 HD
ATOM     26  H6  UNL     1      -9.836  15.073  18.722  1.00  0.00     0.188 HD
ENDBRANCH  16  18
ENDBRANCH  15  16
ENDBRANCH  14  15
ENDBRANCH  13  14
ENDBRANCH   6  13
BRANCH   8  27
HETATM   27  N7  UNL     1      -7.464  15.330  21.766  1.00  0.00    -0.382 N 
ATOM     28  H72 UNL     1      -8.477  15.216  21.764  1.00  0.00     0.157 HD
ATOM     29  H71 UNL     1      -7.012  15.692  22.606  1.00  0.00     0.157 HD
ENDBRANCH   8  27
TORSDOF 6
ENDMDL
MODEL 3
REMARK VINA RESULT: -7.110397700      0.859      1.038
REMARK  6 active torsions:
REMARK  status: ('A' for Active; 'I' for Inactive)
REMARK    1  A    between atoms: N3_6  and  C3_8 
REMARK    2  A    between atoms: C3_8  and  C4_9 
REMARK    3  A    between atoms: C4_9  and  C5_10 
REMARK    4  A    between atoms: C5_10  and  N4_11 
REMARK    5  A    between atoms: N4_11  and  C6_13 
REMARK    6  A    between atoms: C10_22  and  N7_23 
ROOT
HETATM    1  C1  UNL     1      -7.556  15.182  22.762  1.00  0.00     0.183 C 
HETATM    2  N1  UNL     1      -7.098  14.876  21.423  1.00  0.00    -0.245 N 
HETATM    3  N2  UNL     1      -7.348  13.720  20.817  1.00  0.00    -0.277 N 
ATOM      4  H2  UNL     1      -7.888  13.011  21.313  1.00  0.00     0.189 HD
HETATM    5  C2  UNL     1      -6.917  13.451  19.577  1.00  0.00     0.160 A 
HETATM    6  N3  UNL     1      -7.148  12.352  18.983  1.00  0.00    -0.372 N 
ATOM      7  H3  UNL     1      -6.783  12.231  18.038  1.00  0.00     0.161 HD
HETATM    8  C10 UNL     1      -6.188  14.402  18.899  1.00  0.00     0.149 A 
HETATM    9  N8  UNL     1      -5.932  15.566  19.502  1.00  0.00    -0.290 N 
ATOM     10  H8  UNL     1      -5.393  16.283  19.017  1.00  0.00     0.172 HD
HETATM   11  C11 UNL     1      -6.383  15.793  20.744  1.00  0.00     0.342 A 
HETATM   12  O2  UNL     1      -6.136  16.902  21.310  1.00  0.00    -0.245 OA
ENDROOT
BRANCH   6  13
HETATM   13  C3  UNL     1      -7.900  11.259  19.568  1.00  0.00     0.123 C 
BRANCH  13  14
HETATM   14  C4  UNL     1      -9.364  11.476  19.183  1.00  0.00     0.039 C 
BRANCH  14  15
HETATM   15  C5  UNL     1     -10.038  12.005  20.458  1.00  0.00     0.123 C 
BRANCH  15  16
HETATM   16  N4  UNL     1     -10.892  13.075  20.063  1.00  0.00    -0.375 N 
ATOM     17  H4  UNL     1     -11.681  12.850  19.457  1.00  0.00     0.161 HD
BRANCH  16  18
HETATM   18  C6  UNL     1     -10.741  14.309  20.416  1.00  0.00     0.115 A 
HETATM   19  C7  UNL     1     -10.119  15.186  19.550  1.00  0.00     0.055 A 
HETATM   20  C8  UNL     1      -9.915  16.515  19.837  1.00  0.00     0.079 A 
HETATM   21  C9  UNL     1     -10.375  16.954  21.077  1.00  0.00     0.259 A 
HETATM   22  O1  UNL     1     -10.198  18.169  21.361  1.00  0.00    -0.267 OA
HETATM   23  N5  UNL     1     -10.980  16.089  21.912  1.00  0.00    -0.265 N 
HETATM   24  N6  UNL     1     -11.161  14.801  21.595  1.00  0.00    -0.283 N 
ATOM     25  H5  UNL     1     -11.313  16.425  22.816  1.00  0.00     0.190 HD
ATOM     26  H6  UNL     1     -11.626  14.182  22.259  1.00  0.00     0.188 HD
ENDBRANCH  16  18
ENDBRANCH  15  16
ENDBRANCH  14  15
ENDBRANCH  13  14
ENDBRANCH   6  13
BRANCH   8  27
HETATM   27  N7  UNL     1      -5.759  14.177  17.709  1.00  0.00    -0.382 N 
ATOM     28  H72 UNL     1      -6.399  14.204  16.915  1.00  0.00     0.157 HD
ATOM     29  H71 UNL     1      -4.775  13.968  17.541  1.00  0.00     0.157 HD
ENDBRANCH   8  27
TORSDOF 6
ENDMDL
MODEL 4
REMARK VINA RESULT: -6.931498168      1.862      4.819
REMARK  6 active torsions:
REMARK  status: ('A' for Active; 'I' for Inactive)
REMARK    1  A    between atoms: N3_6  and  C3_8 
REMARK    2  A    between atoms: C3_8  and  C4_9 
REMARK    3  A    between atoms: C4_9  and  C5_10 
REMARK    4  A    between atoms: C5_10  and  N4_11 
REMARK    5  A    between atoms: N4_11  and  C6_13 
REMARK    6  A    between atoms: C10_22  and  N7_23 
ROOT
HETATM    1  C1  UNL     1      -7.301  17.611  20.276  1.00  0.00     0.183 C 
HETATM    2  N1  UNL     1      -8.604  17.229  20.778  1.00  0.00    -0.245 N 
HETATM    3  N2  UNL     1      -8.964  15.966  20.979  1.00  0.00    -0.277 N 
ATOM      4  H2  UNL     1      -8.294  15.225  20.772  1.00  0.00     0.189 HD
HETATM    5  C2  UNL     1     -10.175  15.629  21.444  1.00  0.00     0.160 A 
HETATM    6  N3  UNL     1     -10.534  14.426  21.642  1.00  0.00    -0.372 N 
ATOM      7  H3  UNL     1     -11.475  14.259  21.999  1.00  0.00     0.161 HD
HETATM    8  C10 UNL     1     -11.086  16.623  21.725  1.00  0.00     0.149 A 
HETATM    9  N8  UNL     1     -10.732  17.894  21.525  1.00  0.00    -0.290 N 
ATOM     10  H8  UNL     1     -11.393  18.644  21.727  1.00  0.00     0.172 HD
HETATM   11  C11 UNL     1      -9.509  18.187  21.059  1.00  0.00     0.342 A 
HETATM   12  O2  UNL     1      -9.181  19.398  20.872  1.00  0.00    -0.245 OA
ENDROOT
BRANCH   6  13
HETATM   13  C3  UNL     1      -9.686  13.278  21.392  1.00  0.00     0.123 C 
BRANCH  13  14
HETATM   14  C4  UNL     1     -10.017  12.784  19.982  1.00  0.00     0.039 C 
BRANCH  14  15
HETATM   15  C5  UNL     1      -8.737  12.089  19.494  1.00  0.00     0.123 C 
BRANCH  15  16
HETATM   16  N4  UNL     1      -7.640  12.763  20.104  1.00  0.00    -0.375 N 
ATOM     17  H4  UNL     1      -7.558  12.709  21.119  1.00  0.00     0.161 HD
BRANCH  16  18
HETATM   18  C6  UNL     1      -6.740  13.438  19.466  1.00  0.00     0.115 A 
HETATM   19  C7  UNL     1      -6.256  14.606  20.019  1.00  0.00     0.055 A 
HETATM   20  C8  UNL     1      -5.300  15.389  19.416  1.00  0.00     0.079 A 
HETATM   21  C9  UNL     1      -4.826  14.942  18.184  1.00  0.00     0.259 A 
HETATM   22  O1  UNL     1      -3.950  15.644  17.614  1.00  0.00    -0.267 OA
HETATM   23  N5  UNL     1      -5.307  13.800  17.656  1.00  0.00    -0.265 N 
HETATM   24  N6  UNL     1      -6.238  13.065  18.275  1.00  0.00    -0.283 N 
ATOM     25  H5  UNL     1      -4.949  13.486  16.754  1.00  0.00     0.190 HD
ATOM     26  H6  UNL     1      -6.572  12.207  17.837  1.00  0.00     0.188 HD
ENDBRANCH  16  18
ENDBRANCH  15  16
ENDBRANCH  14  15
ENDBRANCH  13  14
ENDBRANCH   6  13
BRANCH   8  27
HETATM   27  N7  UNL     1     -12.255  16.334  22.171  1.00  0.00    -0.382 N 
ATOM     28  H72 UNL     1     -12.411  16.207  23.172  1.00  0.00     0.157 HD
ATOM     29  H71 UNL     1     -13.044  16.228  21.534  1.00  0.00     0.157 HD
ENDBRANCH   8  27
TORSDOF 6
ENDMDL
MODEL 5
REMARK VINA RESULT: -6.894479956      1.844      4.557
REMARK  6 active torsions:
REMARK  status: ('A' for Active; 'I' for Inactive)
REMARK    1  A    between atoms: N3_6  and  C3_8 
REMARK    2  A    between atoms: C3_8  and  C4_9 
REMARK    3  A    between atoms: C4_9  and  C5_10 
REMARK    4  A    between atoms: C5_10  and  N4_11 
REMARK    5  A    between atoms: N4_11  and  C6_13 
REMARK    6  A    between atoms: C10_22  and  N7_23 
ROOT
HETATM    1  C1  UNL     1     -12.074  16.029  22.966  1.00  0.00     0.183 C 
HETATM    2  N1  UNL     1     -11.198  15.961  21.815  1.00  0.00    -0.245 N 
HETATM    3  N2  UNL     1     -10.893  14.822  21.202  1.00  0.00    -0.277 N 
ATOM      4  H2  UNL     1     -11.292  13.952  21.554  1.00  0.00     0.189 HD
HETATM    5  C2  UNL     1     -10.081  14.775  20.137  1.00  0.00     0.160 A 
HETATM    6  N3  UNL     1      -9.779  13.695  19.539  1.00  0.00    -0.372 N 
ATOM      7  H3  UNL     1      -9.153  13.750  18.735  1.00  0.00     0.161 HD
HETATM    8  C10 UNL     1      -9.538  15.945  19.655  1.00  0.00     0.149 A 
HETATM    9  N8  UNL     1      -9.840  17.093  20.267  1.00  0.00    -0.290 N 
ATOM     10  H8  UNL     1      -9.447  17.970  19.925  1.00  0.00     0.172 HD
HETATM   11  C11 UNL     1     -10.658  17.094  21.329  1.00  0.00     0.342 A 
HETATM   12  O2  UNL     1     -10.939  18.189  21.904  1.00  0.00    -0.245 OA
ENDROOT
BRANCH   6  13
HETATM   13  C3  UNL     1     -10.273  12.389  19.931  1.00  0.00     0.123 C 
BRANCH  13  14
HETATM   14  C4  UNL     1      -9.173  11.382  19.591  1.00  0.00     0.039 C 
BRANCH  14  15
HETATM   15  C5  UNL     1      -7.862  12.073  19.995  1.00  0.00     0.123 C 
BRANCH  15  16
HETATM   16  N4  UNL     1      -7.141  12.330  18.793  1.00  0.00    -0.375 N 
ATOM     17  H4  UNL     1      -7.323  11.723  17.994  1.00  0.00     0.161 HD
BRANCH  16  18
HETATM   18  C6  UNL     1      -6.273  13.276  18.640  1.00  0.00     0.115 A 
HETATM   19  C7  UNL     1      -6.215  14.293  19.571  1.00  0.00     0.055 A 
HETATM   20  C8  UNL     1      -5.327  15.341  19.494  1.00  0.00     0.079 A 
HETATM   21  C9  UNL     1      -4.461  15.333  18.401  1.00  0.00     0.259 A 
HETATM   22  O1  UNL     1      -3.639  16.283  18.310  1.00  0.00    -0.267 OA
HETATM   23  N5  UNL     1      -4.529  14.334  17.501  1.00  0.00    -0.265 N 
HETATM   24  N6  UNL     1      -5.408  13.332  17.612  1.00  0.00    -0.283 N 
ATOM     25  H5  UNL     1      -3.888  14.342  16.707  1.00  0.00     0.190 HD
ATOM     26  H6  UNL     1      -5.421  12.596  16.905  1.00  0.00     0.188 HD
ENDBRANCH  16  18
ENDBRANCH  15  16
ENDBRANCH  14  15
ENDBRANCH  13  14
ENDBRANCH   6  13
BRANCH   8  27
HETATM   27  N7  UNL     1      -8.755  15.935  18.637  1.00  0.00    -0.382 N 
ATOM     28  H72 UNL     1      -7.822  16.344  18.697  1.00  0.00     0.157 HD
ATOM     29  H71 UNL     1      -9.053  15.518  17.755  1.00  0.00     0.157 HD
ENDBRANCH   8  27
TORSDOF 6
ENDMDL
