MODEL 1
REMARK VINA RESULT: -7.975260160      0.000      0.000
REMARK  5 active torsions:
REMARK  status: ('A' for Active; 'I' for Inactive)
REMARK    1  A    between atoms: C3_4  and  C4_5 
REMARK    2  A    between atoms: C4_5  and  C5_6 
REMARK    3  A    between atoms: C5_6  and  O1_7 
REMARK    4  A    between atoms: C5_6  and  C6_9 
REMARK    5  A    between atoms: C6_9  and  C7_10 
ROOT
HETATM    1  C4  UNL     1      -9.747  12.721  19.436  1.00  0.00     0.094 C 
ENDROOT
BRANCH   1   2
HETATM    2  C3  UNL     1     -10.282  13.804  20.255  1.00  0.00     0.071 A 
HETATM    3  C2  UNL     1     -10.035  15.086  19.926  1.00  0.00     0.137 A 
HETATM    4  N1  UNL     1     -10.517  16.186  20.667  1.00  0.00    -0.195 N 
HETATM    5  C1  UNL     1     -10.210  17.538  20.250  1.00  0.00     0.175 C 
HETATM    6  C11 UNL     1     -11.315  15.981  21.843  1.00  0.00     0.693 A 
HETATM    7  N6  UNL     1     -11.574  14.640  22.193  1.00  0.00    -0.111 N 
HETATM    8  N7  UNL     1     -11.742  17.009  22.500  1.00  0.00    -0.233 N 
HETATM    9  N4  UNL     1     -11.055  13.576  21.397  1.00  0.00    -0.192 N 
ATOM     10  H6  UNL     1     -12.134  14.430  23.018  1.00  0.00     0.207 HD
HETATM   11  N5  UNL     1     -11.304  12.419  21.818  1.00  0.00    -0.324 N 
ATOM     12  H52 UNL     1     -10.934  11.658  21.248  1.00  0.00     0.178 HD
ATOM     13  H51 UNL     1     -11.868  12.253  22.651  1.00  0.00     0.178 HD
ATOM     14  H72 UNL     1     -11.554  17.978  22.247  1.00  0.00     0.174 HD
ATOM     15  H71 UNL     1     -12.308  16.863  23.336  1.00  0.00     0.174 HD
ENDBRANCH   1   2
BRANCH   1  16
HETATM   16  C5  UNL     1      -8.606  11.946  20.038  1.00  0.00     0.129 C 
BRANCH  16  17
HETATM   17  O1  UNL     1      -9.056  10.600  20.089  1.00  0.00    -0.395 OA
ATOM     18  H1  UNL     1      -8.329  10.107  20.450  1.00  0.00     0.210 HD
ENDBRANCH  16  17
BRANCH  16  19
HETATM   19  C6  UNL     1      -7.473  11.977  19.003  1.00  0.00     0.089 C 
BRANCH  19  20
HETATM   20  C7  UNL     1      -6.717  13.247  19.090  1.00  0.00     0.021 A 
HETATM   21  C8  UNL     1      -6.962  14.109  20.136  1.00  0.00     0.099 A 
HETATM   22  C9  UNL     1      -6.272  15.313  20.258  1.00  0.00     0.251 A 
HETATM   23  O2  UNL     1      -6.474  16.118  21.199  1.00  0.00    -0.268 OA
HETATM   24  N2  UNL     1      -5.351  15.641  19.336  1.00  0.00    -0.275 N 
HETATM   25  C10 UNL     1      -5.117  14.798  18.321  1.00  0.00     0.327 A 
ATOM     26  H2  UNL     1      -4.837  16.519  19.408  1.00  0.00     0.173 HD
HETATM   27  O3  UNL     1      -4.243  15.151  17.482  1.00  0.00    -0.247 OA
HETATM   28  N3  UNL     1      -5.783  13.629  18.202  1.00  0.00    -0.312 N 
ATOM     29  H3  UNL     1      -5.573  13.018  17.412  1.00  0.00     0.170 HD
ENDBRANCH  19  20
ENDBRANCH  16  19
ENDBRANCH   1  16
TORSDOF 5
ENDMDL
MODEL 2
REMARK VINA RESULT: -7.783921118      0.680      1.734
REMARK  5 active torsions:
REMARK  status: ('A' for Active; 'I' for Inactive)
REMARK    1  A    between atoms: C3_4  and  C4_5 
REMARK    2  A    between atoms: C4_5  and  C5_6 
REMARK    3  A    between atoms: C5_6  and  O1_7 
REMARK    4  A    between atoms: C5_6  and  C6_9 
REMARK    5  A    between atoms: C6_9  and  C7_10 
ROOT
HETATM    1  C4  UNL     1      -9.650  12.637  19.487  1.00  0.00     0.094 C 
ENDROOT
BRANCH   1   2
HETATM    2  C3  UNL     1     -10.216  13.731  20.271  1.00  0.00     0.071 A 
HETATM    3  C2  UNL     1      -9.973  15.008  19.923  1.00  0.00     0.137 A 
HETATM    4  N1  UNL     1     -10.483  16.118  20.631  1.00  0.00    -0.195 N 
HETATM    5  C1  UNL     1     -10.179  17.464  20.195  1.00  0.00     0.175 C 
HETATM    6  C11 UNL     1     -11.308  15.927  21.791  1.00  0.00     0.693 A 
HETATM    7  N6  UNL     1     -11.563  14.591  22.160  1.00  0.00    -0.111 N 
HETATM    8  N7  UNL     1     -11.761  16.964  22.416  1.00  0.00    -0.233 N 
HETATM    9  N4  UNL     1     -11.015  13.517  21.398  1.00  0.00    -0.192 N 
ATOM     10  H6  UNL     1     -12.143  14.391  22.975  1.00  0.00     0.207 HD
HETATM   11  N5  UNL     1     -11.264  12.367  21.836  1.00  0.00    -0.324 N 
ATOM     12  H52 UNL     1     -10.872  11.598  21.290  1.00  0.00     0.178 HD
ATOM     13  H51 UNL     1     -11.847  12.211  22.658  1.00  0.00     0.178 HD
ATOM     14  H72 UNL     1     -11.577  17.930  22.149  1.00  0.00     0.174 HD
ATOM     15  H71 UNL     1     -12.347  16.829  23.240  1.00  0.00     0.174 HD
ENDBRANCH   1   2
BRANCH   1  16
HETATM   16  C5  UNL     1      -8.383  12.032  20.026  1.00  0.00     0.129 C 
BRANCH  16  17
HETATM   17  O1  UNL     1      -8.595  10.628  19.989  1.00  0.00    -0.395 OA
ATOM     18  H1  UNL     1      -9.337  10.473  20.560  1.00  0.00     0.210 HD
ENDBRANCH  16  17
BRANCH  16  19
HETATM   19  C6  UNL     1      -7.292  12.325  18.986  1.00  0.00     0.089 C 
BRANCH  19  20
HETATM   20  C7  UNL     1      -6.623  13.614  19.276  1.00  0.00     0.021 A 
HETATM   21  C8  UNL     1      -5.609  14.049  18.452  1.00  0.00     0.099 A 
HETATM   22  C9  UNL     1      -4.953  15.256  18.686  1.00  0.00     0.251 A 
HETATM   23  O2  UNL     1      -4.027  15.678  17.953  1.00  0.00    -0.268 OA
HETATM   24  N2  UNL     1      -5.316  16.009  19.738  1.00  0.00    -0.275 N 
HETATM   25  C10 UNL     1      -6.303  15.580  20.537  1.00  0.00     0.327 A 
ATOM     26  H2  UNL     1      -4.847  16.895  19.927  1.00  0.00     0.173 HD
HETATM   27  O3  UNL     1      -6.607  16.323  21.510  1.00  0.00    -0.247 OA
HETATM   28  N3  UNL     1      -6.941  14.411  20.311  1.00  0.00    -0.312 N 
ATOM     29  H3  UNL     1      -7.687  14.124  20.945  1.00  0.00     0.170 HD
ENDBRANCH  19  20
ENDBRANCH  16  19
ENDBRANCH   1  16
TORSDOF 5
ENDMDL
MODEL 3
REMARK VINA RESULT: -7.573712884      1.126      1.890
REMARK  5 active torsions:
REMARK  status: ('A' for Active; 'I' for Inactive)
REMARK    1  A    between atoms: C3_4  and  C4_5 
REMARK    2  A    between atoms: C4_5  and  C5_6 
REMARK    3  A    between atoms: C5_6  and  O1_7 
REMARK    4  A    between atoms: C5_6  and  C6_9 
REMARK    5  A    between atoms: C6_9  and  C7_10 
ROOT
HETATM    1  C4  UNL     1      -9.792  13.290  19.546  1.00  0.00     0.094 C 
ENDROOT
BRANCH   1   2
HETATM    2  C3  UNL     1     -10.174  14.551  20.174  1.00  0.00     0.071 A 
HETATM    3  C2  UNL     1     -10.901  14.549  21.307  1.00  0.00     0.137 A 
HETATM    4  N1  UNL     1     -11.308  15.725  21.972  1.00  0.00    -0.195 N 
HETATM    5  C1  UNL     1     -12.089  15.643  23.189  1.00  0.00     0.175 C 
HETATM    6  C11 UNL     1     -10.956  17.017  21.453  1.00  0.00     0.693 A 
HETATM    7  N6  UNL     1     -10.197  17.024  20.266  1.00  0.00    -0.111 N 
HETATM    8  N7  UNL     1     -11.343  18.075  22.086  1.00  0.00    -0.233 N 
HETATM    9  N4  UNL     1      -9.820  15.796  19.646  1.00  0.00    -0.192 N 
ATOM     10  H6  UNL     1      -9.917  17.910  19.847  1.00  0.00     0.207 HD
HETATM   11  N5  UNL     1      -9.183  15.910  18.569  1.00  0.00    -0.324 N 
ATOM     12  H52 UNL     1      -8.913  15.032  18.126  1.00  0.00     0.178 HD
ATOM     13  H51 UNL     1      -8.925  16.818  18.184  1.00  0.00     0.178 HD
ATOM     14  H72 UNL     1     -11.892  18.070  22.945  1.00  0.00     0.174 HD
ATOM     15  H71 UNL     1     -11.094  18.993  21.717  1.00  0.00     0.174 HD
ENDBRANCH   1   2
BRANCH   1  16
HETATM   16  C5  UNL     1      -8.882  12.404  20.354  1.00  0.00     0.129 C 
BRANCH  16  17
HETATM   17  O1  UNL     1      -9.575  11.170  20.475  1.00  0.00    -0.395 OA
ATOM     18  H1  UNL     1      -8.908  10.530  20.689  1.00  0.00     0.210 HD
ENDBRANCH  16  17
BRANCH  16  19
HETATM   19  C6  UNL     1      -7.662  12.121  19.467  1.00  0.00     0.089 C 
BRANCH  19  20
HETATM   20  C7  UNL     1      -6.802  13.322  19.357  1.00  0.00     0.021 A 
HETATM   21  C8  UNL     1      -6.890  14.306  20.318  1.00  0.00     0.099 A 
HETATM   22  C9  UNL     1      -6.099  15.451  20.255  1.00  0.00     0.251 A 
HETATM   23  O2  UNL     1      -6.156  16.363  21.115  1.00  0.00    -0.268 OA
HETATM   24  N2  UNL     1      -5.235  15.599  19.237  1.00  0.00    -0.275 N 
HETATM   25  C10 UNL     1      -5.154  14.639  18.305  1.00  0.00     0.327 A 
ATOM     26  H2  UNL     1      -4.649  16.432  19.173  1.00  0.00     0.173 HD
HETATM   27  O3  UNL     1      -4.329  14.826  17.370  1.00  0.00    -0.247 OA
HETATM   28  N3  UNL     1      -5.920  13.528  18.365  1.00  0.00    -0.312 N 
ATOM     29  H3  UNL     1      -5.825  12.823  17.633  1.00  0.00     0.170 HD
ENDBRANCH  19  20
ENDBRANCH  16  19
ENDBRANCH   1  16
TORSDOF 5
ENDMDL
MODEL 4
REMARK VINA RESULT: -7.305934568      2.209      5.460
REMARK  5 active torsions:
REMARK  status: ('A' for Active; 'I' for Inactive)
REMARK    1  A    between atoms: C3_4  and  C4_5 
REMARK    2  A    between atoms: C4_5  and  C5_6 
REMARK    3  A    between atoms: C5_6  and  O1_7 
REMARK    4  A    between atoms: C5_6  and  C6_9 
REMARK    5  A    between atoms: C6_9  and  C7_10 
ROOT
HETATM    1  C4  UNL     1      -8.693  13.018  21.129  1.00  0.00     0.094 C 
ENDROOT
BRANCH   1   2
HETATM    2  C3  UNL     1      -7.622  13.471  20.246  1.00  0.00     0.071 A 
HETATM    3  C2  UNL     1      -7.021  14.656  20.464  1.00  0.00     0.137 A 
HETATM    4  N1  UNL     1      -5.981  15.162  19.655  1.00  0.00    -0.195 N 
HETATM    5  C1  UNL     1      -5.383  16.446  19.953  1.00  0.00     0.175 C 
HETATM    6  C11 UNL     1      -5.503  14.412  18.528  1.00  0.00     0.693 A 
HETATM    7  N6  UNL     1      -6.130  13.172  18.294  1.00  0.00    -0.111 N 
HETATM    8  N7  UNL     1      -4.548  14.902  17.807  1.00  0.00    -0.233 N 
HETATM    9  N4  UNL     1      -7.176  12.722  19.153  1.00  0.00    -0.192 N 
ATOM     10  H6  UNL     1      -5.835  12.593  17.508  1.00  0.00     0.207 HD
HETATM   11  N5  UNL     1      -7.700  11.626  18.833  1.00  0.00    -0.324 N 
ATOM     12  H52 UNL     1      -8.448  11.304  19.448  1.00  0.00     0.178 HD
ATOM     13  H51 UNL     1      -7.375  11.079  18.036  1.00  0.00     0.178 HD
ATOM     14  H72 UNL     1      -4.094  15.799  17.976  1.00  0.00     0.174 HD
ATOM     15  H71 UNL     1      -4.208  14.370  17.006  1.00  0.00     0.174 HD
ENDBRANCH   1   2
BRANCH   1  16
HETATM   16  C5  UNL     1      -9.936  12.514  20.446  1.00  0.00     0.129 C 
BRANCH  16  17
HETATM   17  O1  UNL     1     -10.862  12.269  21.494  1.00  0.00    -0.395 OA
ATOM     18  H1  UNL     1     -10.793  13.022  22.069  1.00  0.00     0.210 HD
ENDBRANCH  16  17
BRANCH  16  19
HETATM   19  C6  UNL     1     -10.497  13.700  19.649  1.00  0.00     0.089 C 
BRANCH  19  20
HETATM   20  C7  UNL     1     -10.702  14.874  20.527  1.00  0.00     0.021 A 
HETATM   21  C8  UNL     1     -10.149  16.086  20.175  1.00  0.00     0.099 A 
HETATM   22  C9  UNL     1     -10.317  17.217  20.971  1.00  0.00     0.251 A 
HETATM   23  O2  UNL     1      -9.826  18.333  20.676  1.00  0.00    -0.268 OA
HETATM   24  N2  UNL     1     -11.032  17.124  22.105  1.00  0.00    -0.275 N 
HETATM   25  C10 UNL     1     -11.568  15.942  22.442  1.00  0.00     0.327 A 
ATOM     26  H2  UNL     1     -11.165  17.940  22.701  1.00  0.00     0.173 HD
HETATM   27  O3  UNL     1     -12.230  15.906  23.515  1.00  0.00    -0.247 OA
HETATM   28  N3  UNL     1     -11.406  14.845  21.672  1.00  0.00    -0.312 N 
ATOM     29  H3  UNL     1     -11.832  13.966  21.967  1.00  0.00     0.170 HD
ENDBRANCH  19  20
ENDBRANCH  16  19
ENDBRANCH   1  16
TORSDOF 5
ENDMDL
MODEL 5
REMARK VINA RESULT: -7.285159816      1.254      2.542
REMARK  5 active torsions:
REMARK  status: ('A' for Active; 'I' for Inactive)
REMARK    1  A    between atoms: C3_4  and  C4_5 
REMARK    2  A    between atoms: C4_5  and  C5_6 
REMARK    3  A    between atoms: C5_6  and  O1_7 
REMARK    4  A    between atoms: C5_6  and  C6_9 
REMARK    5  A    between atoms: C6_9  and  C7_10 
ROOT
HETATM    1  C4  UNL     1      -9.772  13.280  19.493  1.00  0.00     0.094 C 
ENDROOT
BRANCH   1   2
HETATM    2  C3  UNL     1     -10.153  14.533  20.138  1.00  0.00     0.071 A 
HETATM    3  C2  UNL     1     -10.888  14.517  21.266  1.00  0.00     0.137 A 
HETATM    4  N1  UNL     1     -11.295  15.684  21.946  1.00  0.00    -0.195 N 
HETATM    5  C1  UNL     1     -12.084  15.586  23.156  1.00  0.00     0.175 C 
HETATM    6  C11 UNL     1     -10.933  16.982  21.450  1.00  0.00     0.693 A 
HETATM    7  N6  UNL     1     -10.166  17.004  20.268  1.00  0.00    -0.111 N 
HETATM    8  N7  UNL     1     -11.320  18.032  22.096  1.00  0.00    -0.233 N 
HETATM    9  N4  UNL     1      -9.789  15.784  19.632  1.00  0.00    -0.192 N 
ATOM     10  H6  UNL     1      -9.878  17.896  19.866  1.00  0.00     0.207 HD
HETATM   11  N5  UNL     1      -9.145  15.913  18.562  1.00  0.00    -0.324 N 
ATOM     12  H52 UNL     1      -8.875  15.040  18.107  1.00  0.00     0.178 HD
ATOM     13  H51 UNL     1      -8.879  16.825  18.192  1.00  0.00     0.178 HD
ATOM     14  H72 UNL     1     -11.875  18.016  22.951  1.00  0.00     0.174 HD
ATOM     15  H71 UNL     1     -11.064  18.954  21.744  1.00  0.00     0.174 HD
ENDBRANCH   1   2
BRANCH   1  16
HETATM   16  C5  UNL     1      -8.874  12.376  20.294  1.00  0.00     0.129 C 
BRANCH  16  17
HETATM   17  O1  UNL     1      -9.504  11.104  20.264  1.00  0.00    -0.395 OA
ATOM     18  H1  UNL     1      -9.837  10.970  21.143  1.00  0.00     0.210 HD
ENDBRANCH  16  17
BRANCH  16  19
HETATM   19  C6  UNL     1      -7.579  12.230  19.483  1.00  0.00     0.089 C 
BRANCH  19  20
HETATM   20  C7  UNL     1      -6.799  13.488  19.508  1.00  0.00     0.021 A 
HETATM   21  C8  UNL     1      -5.901  13.747  18.495  1.00  0.00     0.099 A 
HETATM   22  C9  UNL     1      -5.147  14.918  18.479  1.00  0.00     0.251 A 
HETATM   23  O2  UNL     1      -4.323  15.181  17.570  1.00  0.00    -0.268 OA
HETATM   24  N2  UNL     1      -5.297  15.812  19.470  1.00  0.00    -0.275 N 
HETATM   25  C10 UNL     1      -6.172  15.555  20.453  1.00  0.00     0.327 A 
ATOM     26  H2  UNL     1      -4.753  16.675  19.476  1.00  0.00     0.173 HD
HETATM   27  O3  UNL     1      -6.277  16.425  21.360  1.00  0.00    -0.247 OA
HETATM   28  N3  UNL     1      -6.905  14.421  20.471  1.00  0.00    -0.312 N 
ATOM     29  H3  UNL     1      -7.559  14.266  21.238  1.00  0.00     0.170 HD
ENDBRANCH  19  20
ENDBRANCH  16  19
ENDBRANCH   1  16
TORSDOF 5
ENDMDL
