MODEL 1
REMARK VINA RESULT: -7.490858582      0.000      0.000
REMARK  8 active torsions:
REMARK  status: ('A' for Active; 'I' for Inactive)
REMARK    1  A    between atoms: N1_2  and  C2_4 
REMARK    2  A    between atoms: C3_7  and  N3_8 
REMARK    3  A    between atoms: N3_8  and  N4_10 
REMARK    4  A    between atoms: C4_15  and  N6_16 
REMARK    5  A    between atoms: N6_16  and  C5_18 
REMARK    6  A    between atoms: C5_18  and  C6_19 
REMARK    7  A    between atoms: C6_19  and  N7_20 
REMARK    8  A    between atoms: C9_26  and  O1_27 
ROOT
HETATM    1  C2  UNL     1      -5.924  14.005  18.647  1.00  0.00     0.706 A 
HETATM    2  N2  UNL     1      -6.630  12.862  18.789  1.00  0.00    -0.020 N 
ATOM      3  H2  UNL     1      -6.534  12.113  18.104  1.00  0.00     0.203 HD
HETATM    4  C3  UNL     1      -7.456  12.718  19.832  1.00  0.00     0.725 A 
HETATM    5  N5  UNL     1      -7.588  13.694  20.735  1.00  0.00    -0.020 N 
ATOM      6  H5  UNL     1      -8.223  13.562  21.522  1.00  0.00     0.203 HD
HETATM    7  C4  UNL     1      -6.901  14.849  20.629  1.00  0.00     0.707 A 
HETATM    8  N9  UNL     1      -6.064  14.984  19.564  1.00  0.00    -0.022 N 
ATOM      9  H9  UNL     1      -5.530  15.846  19.456  1.00  0.00     0.203 HD
ENDROOT
BRANCH   7  10
HETATM   10  N6  UNL     1      -6.975  15.829  21.430  1.00  0.00    -0.220 N 
ATOM     11  H6  UNL     1      -6.937  15.585  22.420  1.00  0.00     0.178 HD
BRANCH  10  12
HETATM   12  C5  UNL     1      -7.105  17.222  21.151  1.00  0.00     0.182 C 
BRANCH  12  13
HETATM   13  C6  UNL     1      -8.359  17.513  20.384  1.00  0.00     0.078 C 
BRANCH  13  14
HETATM   14  N7  UNL     1      -9.521  16.829  20.739  1.00  0.00    -0.386 N 
HETATM   15  C7  UNL     1     -10.575  17.530  21.381  1.00  0.00     0.149 C 
HETATM   16  C8  UNL     1     -11.545  16.617  22.095  1.00  0.00     0.255 C 
HETATM   17  N8  UNL     1     -11.030  15.266  21.995  1.00  0.00    -0.046 N 
HETATM   18  C9  UNL     1     -11.010  14.935  20.559  1.00  0.00     0.338 C 
ATOM     19  H82 UNL     1     -10.127  15.142  22.452  1.00  0.00     0.280 HD
ATOM     20  H81 UNL     1     -11.549  14.592  22.559  1.00  0.00     0.280 HD
HETATM   21  C11 UNL     1      -9.940  15.782  19.870  1.00  0.00     0.183 C 
BRANCH  18  22
HETATM   22  O1  UNL     1     -10.769  13.593  20.368  1.00  0.00    -0.363 OA
HETATM   23  C10 UNL     1     -11.014  12.869  21.557  1.00  0.00     0.204 C 
ENDBRANCH  18  22
ENDBRANCH  13  14
ENDBRANCH  12  13
ENDBRANCH  10  12
ENDBRANCH   7  10
BRANCH   4  24
HETATM   24  N3  UNL     1      -8.131  11.636  19.983  1.00  0.00    -0.138 N 
ATOM     25  H3  UNL     1      -7.948  11.024  20.778  1.00  0.00     0.205 HD
BRANCH  24  26
HETATM   26  N4  UNL     1      -9.117  11.302  19.056  1.00  0.00    -0.331 N 
ATOM     27  H42 UNL     1      -9.065  10.402  18.578  1.00  0.00     0.177 HD
ATOM     28  H41 UNL     1      -9.875  11.957  18.866  1.00  0.00     0.177 HD
ENDBRANCH  24  26
ENDBRANCH   4  24
BRANCH   1  29
HETATM   29  N1  UNL     1      -5.133  14.181  17.656  1.00  0.00    -0.229 N 
HETATM   30  C1  UNL     1      -3.881  14.879  17.809  1.00  0.00     0.165 C 
ATOM     31  H1  UNL     1      -5.394  13.819  16.739  1.00  0.00     0.177 HD
ENDBRANCH   1  29
TORSDOF 8
ENDMDL
MODEL 2
REMARK VINA RESULT: -7.218178638      0.689      2.630
REMARK  8 active torsions:
REMARK  status: ('A' for Active; 'I' for Inactive)
REMARK    1  A    between atoms: N1_2  and  C2_4 
REMARK    2  A    between atoms: C3_7  and  N3_8 
REMARK    3  A    between atoms: N3_8  and  N4_10 
REMARK    4  A    between atoms: C4_15  and  N6_16 
REMARK    5  A    between atoms: N6_16  and  C5_18 
REMARK    6  A    between atoms: C5_18  and  C6_19 
REMARK    7  A    between atoms: C6_19  and  N7_20 
REMARK    8  A    between atoms: C9_26  and  O1_27 
ROOT
HETATM    1  C2  UNL     1      -7.420  12.940  20.090  1.00  0.00     0.706 A 
HETATM    2  N2  UNL     1      -6.640  12.977  18.987  1.00  0.00    -0.020 N 
ATOM      3  H2  UNL     1      -6.575  12.162  18.378  1.00  0.00     0.203 HD
HETATM    4  C3  UNL     1      -5.952  14.089  18.699  1.00  0.00     0.725 A 
HETATM    5  N5  UNL     1      -6.030  15.162  19.491  1.00  0.00    -0.020 N 
ATOM      6  H5  UNL     1      -5.497  15.998  19.252  1.00  0.00     0.203 HD
HETATM    7  C4  UNL     1      -6.798  15.164  20.600  1.00  0.00     0.707 A 
HETATM    8  N9  UNL     1      -7.492  14.028  20.883  1.00  0.00    -0.022 N 
ATOM      9  H9  UNL     1      -8.082  13.999  21.714  1.00  0.00     0.203 HD
ENDROOT
BRANCH   7  10
HETATM   10  N6  UNL     1      -6.920  16.130  21.412  1.00  0.00    -0.220 N 
ATOM     11  H6  UNL     1      -6.805  15.888  22.396  1.00  0.00     0.178 HD
BRANCH  10  12
HETATM   12  C5  UNL     1      -7.194  17.506  21.151  1.00  0.00     0.182 C 
BRANCH  12  13
HETATM   13  C6  UNL     1      -8.447  17.672  20.347  1.00  0.00     0.078 C 
BRANCH  13  14
HETATM   14  N7  UNL     1      -9.580  16.960  20.740  1.00  0.00    -0.386 N 
HETATM   15  C7  UNL     1     -10.629  17.634  21.418  1.00  0.00     0.149 C 
HETATM   16  C8  UNL     1     -11.552  16.697  22.163  1.00  0.00     0.255 C 
HETATM   17  N8  UNL     1     -11.008  15.359  22.044  1.00  0.00    -0.046 N 
HETATM   18  C9  UNL     1     -11.028  15.030  20.607  1.00  0.00     0.338 C 
ATOM     19  H82 UNL     1     -10.087  15.257  22.470  1.00  0.00     0.280 HD
ATOM     20  H81 UNL     1     -11.491  14.672  22.623  1.00  0.00     0.280 HD
HETATM   21  C11 UNL     1     -10.002  15.903  19.884  1.00  0.00     0.183 C 
BRANCH  18  22
HETATM   22  O1  UNL     1     -10.760  13.694  20.406  1.00  0.00    -0.363 OA
HETATM   23  C10 UNL     1     -11.082  12.943  21.559  1.00  0.00     0.204 C 
ENDBRANCH  18  22
ENDBRANCH  13  14
ENDBRANCH  12  13
ENDBRANCH  10  12
ENDBRANCH   7  10
BRANCH   4  24
HETATM   24  N3  UNL     1      -5.209  14.142  17.653  1.00  0.00    -0.138 N 
ATOM     25  H3  UNL     1      -5.427  13.568  16.840  1.00  0.00     0.205 HD
BRANCH  24  26
HETATM   26  N4  UNL     1      -4.101  14.989  17.635  1.00  0.00    -0.331 N 
ATOM     27  H42 UNL     1      -3.184  14.613  17.873  1.00  0.00     0.177 HD
ATOM     28  H41 UNL     1      -4.220  15.971  17.384  1.00  0.00     0.177 HD
ENDBRANCH  24  26
ENDBRANCH   4  24
BRANCH   1  29
HETATM   29  N1  UNL     1      -8.083  11.891  20.401  1.00  0.00    -0.229 N 
HETATM   30  C1  UNL     1      -8.746  11.094  19.398  1.00  0.00     0.165 C 
ATOM     31  H1  UNL     1      -8.145  11.612  21.380  1.00  0.00     0.177 HD
ENDBRANCH   1  29
TORSDOF 8
ENDMDL
MODEL 3
REMARK VINA RESULT: -6.164436400      1.642      3.571
REMARK  8 active torsions:
REMARK  status: ('A' for Active; 'I' for Inactive)
REMARK    1  A    between atoms: N1_2  and  C2_4 
REMARK    2  A    between atoms: C3_7  and  N3_8 
REMARK    3  A    between atoms: N3_8  and  N4_10 
REMARK    4  A    between atoms: C4_15  and  N6_16 
REMARK    5  A    between atoms: N6_16  and  C5_18 
REMARK    6  A    between atoms: C5_18  and  C6_19 
REMARK    7  A    between atoms: C6_19  and  N7_20 
REMARK    8  A    between atoms: C9_26  and  O1_27 
ROOT
HETATM    1  C2  UNL     1      -6.988  13.060  19.362  1.00  0.00     0.706 A 
HETATM    2  N2  UNL     1      -6.099  13.751  18.618  1.00  0.00    -0.020 N 
ATOM      3  H2  UNL     1      -5.765  13.370  17.733  1.00  0.00     0.203 HD
HETATM    4  C3  UNL     1      -5.656  14.940  19.048  1.00  0.00     0.725 A 
HETATM    5  N5  UNL     1      -6.087  15.447  20.206  1.00  0.00    -0.020 N 
ATOM      6  H5  UNL     1      -5.737  16.354  20.514  1.00  0.00     0.203 HD
HETATM    7  C4  UNL     1      -6.975  14.787  20.977  1.00  0.00     0.707 A 
HETATM    8  N9  UNL     1      -7.418  13.581  20.529  1.00  0.00    -0.022 N 
ATOM      9  H9  UNL     1      -8.091  13.058  21.090  1.00  0.00     0.203 HD
ENDROOT
BRANCH   7  10
HETATM   10  N6  UNL     1      -7.426  15.188  22.092  1.00  0.00    -0.220 N 
ATOM     11  H6  UNL     1      -7.517  16.200  22.186  1.00  0.00     0.178 HD
BRANCH  10  12
HETATM   12  C5  UNL     1      -7.824  14.433  23.236  1.00  0.00     0.182 C 
BRANCH  12  13
HETATM   13  C6  UNL     1      -9.299  14.172  23.234  1.00  0.00     0.078 C 
BRANCH  13  14
HETATM   14  N7  UNL     1     -10.005  14.395  22.052  1.00  0.00    -0.386 N 
HETATM   15  C7  UNL     1     -10.819  13.362  21.519  1.00  0.00     0.149 C 
HETATM   16  C8  UNL     1     -11.150  13.564  20.057  1.00  0.00     0.255 C 
HETATM   17  N8  UNL     1     -10.426  14.733  19.600  1.00  0.00    -0.046 N 
HETATM   18  C9  UNL     1     -10.940  15.871  20.383  1.00  0.00     0.338 C 
ATOM     19  H82 UNL     1      -9.412  14.628  19.655  1.00  0.00     0.280 HD
ATOM     20  H81 UNL     1     -10.483  14.876  18.592  1.00  0.00     0.280 HD
HETATM   21  C11 UNL     1     -10.494  15.715  21.837  1.00  0.00     0.183 C 
BRANCH  18  22
HETATM   22  O1  UNL     1     -10.495  17.066  19.862  1.00  0.00    -0.363 OA
HETATM   23  C10 UNL     1      -9.626  17.712  20.771  1.00  0.00     0.204 C 
ENDBRANCH  18  22
ENDBRANCH  13  14
ENDBRANCH  12  13
ENDBRANCH  10  12
ENDBRANCH   7  10
BRANCH   4  24
HETATM   24  N3  UNL     1      -4.813  15.612  18.351  1.00  0.00    -0.138 N 
ATOM     25  H3  UNL     1      -4.780  16.628  18.426  1.00  0.00     0.205 HD
BRANCH  24  26
HETATM   26  N4  UNL     1      -3.942  14.945  17.490  1.00  0.00    -0.331 N 
ATOM     27  H42 UNL     1      -4.296  14.589  16.602  1.00  0.00     0.177 HD
ATOM     28  H41 UNL     1      -2.965  14.822  17.756  1.00  0.00     0.177 HD
ENDBRANCH  24  26
ENDBRANCH   4  24
BRANCH   1  29
HETATM   29  N1  UNL     1      -7.425  11.916  18.987  1.00  0.00    -0.229 N 
HETATM   30  C1  UNL     1      -8.500  11.255  19.684  1.00  0.00     0.165 C 
ATOM     31  H1  UNL     1      -7.004  11.464  18.176  1.00  0.00     0.177 HD
ENDBRANCH   1  29
TORSDOF 8
ENDMDL
MODEL 4
REMARK VINA RESULT: -6.115623579      1.579      3.561
REMARK  8 active torsions:
REMARK  status: ('A' for Active; 'I' for Inactive)
REMARK    1  A    between atoms: N1_2  and  C2_4 
REMARK    2  A    between atoms: C3_7  and  N3_8 
REMARK    3  A    between atoms: N3_8  and  N4_10 
REMARK    4  A    between atoms: C4_15  and  N6_16 
REMARK    5  A    between atoms: N6_16  and  C5_18 
REMARK    6  A    between atoms: C5_18  and  C6_19 
REMARK    7  A    between atoms: C6_19  and  N7_20 
REMARK    8  A    between atoms: C9_26  and  O1_27 
ROOT
HETATM    1  C2  UNL     1      -9.055  12.717  20.989  1.00  0.00     0.706 A 
HETATM    2  N2  UNL     1      -9.606  11.623  20.420  1.00  0.00    -0.020 N 
ATOM      3  H2  UNL     1     -10.467  11.227  20.798  1.00  0.00     0.203 HD
HETATM    4  C3  UNL     1      -9.016  11.059  19.359  1.00  0.00     0.725 A 
HETATM    5  N5  UNL     1      -7.888  11.570  18.857  1.00  0.00    -0.020 N 
ATOM      6  H5  UNL     1      -7.456  11.124  18.048  1.00  0.00     0.203 HD
HETATM    7  C4  UNL     1      -7.308  12.662  19.397  1.00  0.00     0.707 A 
HETATM    8  N9  UNL     1      -7.917  13.226  20.475  1.00  0.00    -0.022 N 
ATOM      9  H9  UNL     1      -7.504  14.053  20.905  1.00  0.00     0.203 HD
ENDROOT
BRANCH   7  10
HETATM   10  N6  UNL     1      -6.235  13.203  18.994  1.00  0.00    -0.220 N 
ATOM     11  H6  UNL     1      -5.409  12.604  19.020  1.00  0.00     0.178 HD
BRANCH  10  12
HETATM   12  C5  UNL     1      -6.011  14.526  18.510  1.00  0.00     0.182 C 
BRANCH  12  13
HETATM   13  C6  UNL     1      -5.970  15.520  19.630  1.00  0.00     0.078 C 
BRANCH  13  14
HETATM   14  N7  UNL     1      -7.110  16.285  19.872  1.00  0.00    -0.386 N 
HETATM   15  C7  UNL     1      -6.978  17.677  20.119  1.00  0.00     0.149 C 
HETATM   16  C8  UNL     1      -8.192  18.277  20.792  1.00  0.00     0.255 C 
HETATM   17  N8  UNL     1      -9.109  17.195  21.089  1.00  0.00    -0.046 N 
HETATM   18  C9  UNL     1      -9.502  16.618  19.791  1.00  0.00     0.338 C 
ATOM     19  H82 UNL     1      -8.728  16.508  21.739  1.00  0.00     0.280 HD
ATOM     20  H81 UNL     1      -9.903  17.483  21.661  1.00  0.00     0.280 HD
HETATM   21  C11 UNL     1      -8.295  15.910  19.177  1.00  0.00     0.183 C 
BRANCH  18  22
HETATM   22  O1  UNL     1     -10.556  15.743  19.942  1.00  0.00    -0.363 OA
HETATM   23  C10 UNL     1     -11.254  16.009  21.142  1.00  0.00     0.204 C 
ENDBRANCH  18  22
ENDBRANCH  13  14
ENDBRANCH  12  13
ENDBRANCH  10  12
ENDBRANCH   7  10
BRANCH   4  24
HETATM   24  N3  UNL     1      -9.528  10.021  18.804  1.00  0.00    -0.138 N 
ATOM     25  H3  UNL     1      -9.136   9.097  18.988  1.00  0.00     0.205 HD
BRANCH  24  26
HETATM   26  N4  UNL     1     -10.621  10.161  17.950  1.00  0.00    -0.331 N 
ATOM     27  H42 UNL     1     -10.476  10.095  16.943  1.00  0.00     0.177 HD
ATOM     28  H41 UNL     1     -11.548  10.327  18.341  1.00  0.00     0.177 HD
ENDBRANCH  24  26
ENDBRANCH   4  24
BRANCH   1  29
HETATM   29  N1  UNL     1      -9.588  13.276  22.011  1.00  0.00    -0.229 N 
HETATM   30  C1  UNL     1      -8.846  14.197  22.836  1.00  0.00     0.165 C 
ATOM     31  H1  UNL     1     -10.557  13.065  22.246  1.00  0.00     0.177 HD
ENDBRANCH   1  29
TORSDOF 8
ENDMDL
MODEL 5
REMARK VINA RESULT: -6.113281751      1.602      4.225
REMARK  8 active torsions:
REMARK  status: ('A' for Active; 'I' for Inactive)
REMARK    1  A    between atoms: N1_2  and  C2_4 
REMARK    2  A    between atoms: C3_7  and  N3_8 
REMARK    3  A    between atoms: N3_8  and  N4_10 
REMARK    4  A    between atoms: C4_15  and  N6_16 
REMARK    5  A    between atoms: N6_16  and  C5_18 
REMARK    6  A    between atoms: C5_18  and  C6_19 
REMARK    7  A    between atoms: C6_19  and  N7_20 
REMARK    8  A    between atoms: C9_26  and  O1_27 
ROOT
HETATM    1  C2  UNL     1      -9.212  12.696  20.891  1.00  0.00     0.706 A 
HETATM    2  N2  UNL     1      -9.772  11.615  20.306  1.00  0.00    -0.020 N 
ATOM      3  H2  UNL     1     -10.680  11.274  20.621  1.00  0.00     0.203 HD
HETATM    4  C3  UNL     1      -9.129  10.992  19.311  1.00  0.00     0.725 A 
HETATM    5  N5  UNL     1      -7.938  11.430  18.891  1.00  0.00    -0.020 N 
ATOM      6  H5  UNL     1      -7.467  10.940  18.131  1.00  0.00     0.203 HD
HETATM    7  C4  UNL     1      -7.347  12.506  19.449  1.00  0.00     0.707 A 
HETATM    8  N9  UNL     1      -8.011  13.131  20.460  1.00  0.00    -0.022 N 
ATOM      9  H9  UNL     1      -7.590  13.948  20.902  1.00  0.00     0.203 HD
ENDROOT
BRANCH   7  10
HETATM   10  N6  UNL     1      -6.218  12.980  19.123  1.00  0.00    -0.220 N 
ATOM     11  H6  UNL     1      -5.461  12.795  19.781  1.00  0.00     0.178 HD
BRANCH  10  12
HETATM   12  C5  UNL     1      -5.849  13.735  17.969  1.00  0.00     0.182 C 
BRANCH  12  13
HETATM   13  C6  UNL     1      -5.432  15.126  18.336  1.00  0.00     0.078 C 
BRANCH  13  14
HETATM   14  N7  UNL     1      -6.136  15.780  19.346  1.00  0.00    -0.386 N 
HETATM   15  C7  UNL     1      -5.435  16.288  20.470  1.00  0.00     0.149 C 
HETATM   16  C8  UNL     1      -6.332  16.554  21.658  1.00  0.00     0.255 C 
HETATM   17  N8  UNL     1      -7.663  16.095  21.314  1.00  0.00    -0.046 N 
HETATM   18  C9  UNL     1      -8.102  16.916  20.172  1.00  0.00     0.338 C 
ATOM     19  H82 UNL     1      -7.711  15.092  21.134  1.00  0.00     0.280 HD
ATOM     20  H81 UNL     1      -8.313  16.113  22.100  1.00  0.00     0.280 HD
HETATM   21  C11 UNL     1      -7.265  16.550  18.946  1.00  0.00     0.183 C 
BRANCH  18  22
HETATM   22  O1  UNL     1      -9.443  16.730  19.920  1.00  0.00    -0.363 OA
HETATM   23  C10 UNL     1     -10.228  17.406  20.882  1.00  0.00     0.204 C 
ENDBRANCH  18  22
ENDBRANCH  13  14
ENDBRANCH  12  13
ENDBRANCH  10  12
ENDBRANCH   7  10
BRANCH   4  24
HETATM   24  N3  UNL     1      -9.648   9.965  18.741  1.00  0.00    -0.138 N 
ATOM     25  H3  UNL     1      -9.275   9.034  18.925  1.00  0.00     0.205 HD
BRANCH  24  26
HETATM   26  N4  UNL     1     -10.725  10.128  17.871  1.00  0.00    -0.331 N 
ATOM     27  H42 UNL     1     -11.385  10.888  18.034  1.00  0.00     0.177 HD
ATOM     28  H41 UNL     1     -10.839   9.490  17.083  1.00  0.00     0.177 HD
ENDBRANCH  24  26
ENDBRANCH   4  24
BRANCH   1  29
HETATM   29  N1  UNL     1      -9.794  13.310  21.852  1.00  0.00    -0.229 N 
HETATM   30  C1  UNL     1     -11.077  13.943  21.672  1.00  0.00     0.165 C 
ATOM     31  H1  UNL     1      -9.341  13.351  22.765  1.00  0.00     0.177 HD
ENDBRANCH   1  29
TORSDOF 8
ENDMDL
