MODEL 1
REMARK VINA RESULT: -6.937184821      0.000      0.000
REMARK  5 active torsions:
REMARK  status: ('A' for Active; 'I' for Inactive)
REMARK    1  A    between atoms: N2_8  and  N3_10 
REMARK    2  A    between atoms: N3_10  and  N4_12 
REMARK    3  A    between atoms: C5_17  and  C6_18 
REMARK    4  A    between atoms: C6_18  and  C7_19 
REMARK    5  A    between atoms: C7_19  and  C8_20 
ROOT
HETATM    1  C1  UNL     1      -7.214  18.170  20.572  1.00  0.00     0.070 C 
HETATM    2  C2  UNL     1      -7.064  16.755  20.135  1.00  0.00     0.031 A 
HETATM    3  N1  UNL     1      -6.240  16.446  19.099  1.00  0.00    -0.323 N 
ATOM      4  H1  UNL     1      -5.724  17.195  18.635  1.00  0.00     0.169 HD
HETATM    5  C3  UNL     1      -6.085  15.186  18.668  1.00  0.00     0.291 A 
HETATM    6  O1  UNL     1      -5.335  14.857  17.715  1.00  0.00    -0.264 OA
HETATM    7  C4  UNL     1      -6.782  14.177  19.295  1.00  0.00     0.191 A 
HETATM    8  N2  UNL     1      -6.679  12.951  18.930  1.00  0.00    -0.267 N 
ATOM      9  H2  UNL     1      -6.068  12.691  18.156  1.00  0.00     0.190 HD
HETATM   10  N5  UNL     1      -7.595  14.482  20.319  1.00  0.00    -0.339 N 
ATOM     11  H5  UNL     1      -8.109  13.731  20.781  1.00  0.00     0.167 HD
HETATM   12  C5  UNL     1      -7.758  15.751  20.759  1.00  0.00     0.033 A 
ENDROOT
BRANCH  12  13
HETATM   13  C6  UNL     1      -8.673  15.978  21.904  1.00  0.00     0.065 C 
BRANCH  13  14
HETATM   14  C7  UNL     1     -10.103  16.078  21.410  1.00  0.00     0.063 C 
BRANCH  14  15
HETATM   15  C8  UNL     1     -10.924  14.947  21.913  1.00  0.00     0.011 A 
HETATM   16  C9  UNL     1     -10.723  13.644  21.462  1.00  0.00     0.042 A 
HETATM   17  C10 UNL     1     -11.488  12.598  21.931  1.00  0.00     0.093 A 
HETATM   18  N6  UNL     1     -12.440  12.865  22.841  1.00  0.00    -0.357 N 
HETATM   19  C11 UNL     1     -13.270  11.800  23.366  1.00  0.00     0.156 C 
HETATM   20  C12 UNL     1     -12.662  14.115  23.298  1.00  0.00     0.182 A 
HETATM   21  N7  UNL     1     -11.898  15.122  22.821  1.00  0.00    -0.356 N 
ATOM     22  H7  UNL     1     -12.069  16.065  23.170  1.00  0.00     0.166 HD
ENDBRANCH  14  15
ENDBRANCH  13  14
ENDBRANCH  12  13
BRANCH   8  23
HETATM   23  N3  UNL     1      -7.410  11.982  19.606  1.00  0.00    -0.248 N 
ATOM     24  H3  UNL     1      -7.069  11.604  20.490  1.00  0.00     0.207 HD
BRANCH  23  25
HETATM   25  N4  UNL     1      -8.623  11.527  19.063  1.00  0.00    -0.331 N 
ATOM     26  H42 UNL     1      -8.977  11.952  18.206  1.00  0.00     0.178 HD
ATOM     27  H41 UNL     1      -9.134  10.778  19.531  1.00  0.00     0.178 HD
ENDBRANCH  23  25
ENDBRANCH   8  23
TORSDOF 5
ENDMDL
MODEL 2
REMARK VINA RESULT: -6.351515925      1.558      2.387
REMARK  5 active torsions:
REMARK  status: ('A' for Active; 'I' for Inactive)
REMARK    1  A    between atoms: N2_8  and  N3_10 
REMARK    2  A    between atoms: N3_10  and  N4_12 
REMARK    3  A    between atoms: C5_17  and  C6_18 
REMARK    4  A    between atoms: C6_18  and  C7_19 
REMARK    5  A    between atoms: C7_19  and  C8_20 
ROOT
HETATM    1  C1  UNL     1     -10.397  17.696  21.340  1.00  0.00     0.070 C 
HETATM    2  C2  UNL     1      -9.474  16.658  20.803  1.00  0.00     0.031 A 
HETATM    3  N1  UNL     1      -8.469  17.013  19.960  1.00  0.00    -0.323 N 
ATOM      4  H1  UNL     1      -8.355  17.996  19.711  1.00  0.00     0.169 HD
HETATM    5  C3  UNL     1      -7.623  16.109  19.446  1.00  0.00     0.291 A 
HETATM    6  O1  UNL     1      -6.682  16.393  18.664  1.00  0.00    -0.264 OA
HETATM    7  C4  UNL     1      -7.779  14.783  19.784  1.00  0.00     0.191 A 
HETATM    8  N2  UNL     1      -7.004  13.868  19.326  1.00  0.00    -0.267 N 
ATOM      9  H2  UNL     1      -6.242  14.106  18.691  1.00  0.00     0.190 HD
HETATM   10  N5  UNL     1      -8.772  14.433  20.617  1.00  0.00    -0.339 N 
ATOM     11  H5  UNL     1      -8.883  13.450  20.865  1.00  0.00     0.167 HD
HETATM   12  C5  UNL     1      -9.630  15.339  21.140  1.00  0.00     0.033 A 
ENDROOT
BRANCH  12  13
HETATM   13  C6  UNL     1     -10.686  14.848  22.058  1.00  0.00     0.065 C 
BRANCH  13  14
HETATM   14  C7  UNL     1     -11.391  13.655  21.444  1.00  0.00     0.063 C 
BRANCH  14  15
HETATM   15  C8  UNL     1     -12.184  12.918  22.461  1.00  0.00     0.011 A 
HETATM   16  C9  UNL     1     -12.936  13.589  23.424  1.00  0.00     0.042 A 
HETATM   17  C10 UNL     1     -13.670  12.901  24.366  1.00  0.00     0.093 A 
HETATM   18  N6  UNL     1     -13.645  11.557  24.334  1.00  0.00    -0.357 N 
HETATM   19  C11 UNL     1     -14.401  10.789  25.302  1.00  0.00     0.156 C 
HETATM   20  C12 UNL     1     -12.927  10.877  23.416  1.00  0.00     0.182 A 
HETATM   21  N7  UNL     1     -12.217  11.576  22.505  1.00  0.00    -0.356 N 
ATOM     22  H7  UNL     1     -11.676  11.057  21.813  1.00  0.00     0.166 HD
ENDBRANCH  14  15
ENDBRANCH  13  14
ENDBRANCH  12  13
BRANCH   8  23
HETATM   23  N3  UNL     1      -7.217  12.550  19.706  1.00  0.00    -0.248 N 
ATOM     24  H3  UNL     1      -6.690  12.148  20.482  1.00  0.00     0.207 HD
BRANCH  23  25
HETATM   25  N4  UNL     1      -8.163  11.774  19.016  1.00  0.00    -0.331 N 
ATOM     26  H42 UNL     1      -8.557  12.128  18.144  1.00  0.00     0.178 HD
ATOM     27  H41 UNL     1      -8.443  10.869  19.394  1.00  0.00     0.178 HD
ENDBRANCH  23  25
ENDBRANCH   8  23
TORSDOF 5
ENDMDL
MODEL 3
REMARK VINA RESULT: -6.239860263      2.622      4.560
REMARK  5 active torsions:
REMARK  status: ('A' for Active; 'I' for Inactive)
REMARK    1  A    between atoms: N2_8  and  N3_10 
REMARK    2  A    between atoms: N3_10  and  N4_12 
REMARK    3  A    between atoms: C5_17  and  C6_18 
REMARK    4  A    between atoms: C6_18  and  C7_19 
REMARK    5  A    between atoms: C7_19  and  C8_20 
ROOT
HETATM    1  C1  UNL     1     -11.805  15.892  23.412  1.00  0.00     0.070 C 
HETATM    2  C2  UNL     1     -11.182  15.108  22.311  1.00  0.00     0.031 A 
HETATM    3  N1  UNL     1     -10.221  15.674  21.532  1.00  0.00    -0.323 N 
ATOM      4  H1  UNL     1      -9.933  16.635  21.720  1.00  0.00     0.169 HD
HETATM    5  C3  UNL     1      -9.642  15.006  20.525  1.00  0.00     0.291 A 
HETATM    6  O1  UNL     1      -8.752  15.490  19.781  1.00  0.00    -0.264 OA
HETATM    7  C4  UNL     1     -10.032  13.709  20.273  1.00  0.00     0.191 A 
HETATM    8  N2  UNL     1      -9.518  13.016  19.323  1.00  0.00    -0.267 N 
ATOM      9  H2  UNL     1      -8.797  13.416  18.723  1.00  0.00     0.190 HD
HETATM   10  N5  UNL     1     -10.981  13.151  21.043  1.00  0.00    -0.339 N 
ATOM     11  H5  UNL     1     -11.266  12.190  20.853  1.00  0.00     0.167 HD
HETATM   12  C5  UNL     1     -11.570  13.818  22.061  1.00  0.00     0.033 A 
ENDROOT
BRANCH  12  13
HETATM   13  C6  UNL     1     -12.599  13.106  22.856  1.00  0.00     0.065 C 
BRANCH  13  14
HETATM   14  C7  UNL     1     -12.527  11.617  22.579  1.00  0.00     0.063 C 
BRANCH  14  15
HETATM   15  C8  UNL     1     -13.006  10.830  23.744  1.00  0.00     0.011 A 
HETATM   16  C9  UNL     1     -13.847  11.390  24.705  1.00  0.00     0.042 A 
HETATM   17  C10 UNL     1     -14.289  10.657  25.784  1.00  0.00     0.093 A 
HETATM   18  N6  UNL     1     -13.888   9.378  25.891  1.00  0.00    -0.357 N 
HETATM   19  C11 UNL     1     -14.327   8.564  27.007  1.00  0.00     0.156 C 
HETATM   20  C12 UNL     1     -13.074   8.805  24.979  1.00  0.00     0.182 A 
HETATM   21  N7  UNL     1     -12.656   9.547  23.931  1.00  0.00    -0.356 N 
ATOM     22  H7  UNL     1     -12.042   9.110  23.245  1.00  0.00     0.166 HD
ENDBRANCH  14  15
ENDBRANCH  13  14
ENDBRANCH  12  13
BRANCH   8  23
HETATM   23  N3  UNL     1      -9.958  11.714  19.123  1.00  0.00    -0.248 N 
ATOM     24  H3  UNL     1     -10.884  11.539  18.732  1.00  0.00     0.207 HD
BRANCH  23  25
HETATM   25  N4  UNL     1      -9.118  10.640  19.464  1.00  0.00    -0.331 N 
ATOM     26  H42 UNL     1      -8.712  10.070  18.722  1.00  0.00     0.178 HD
ATOM     27  H41 UNL     1      -8.926  10.445  20.446  1.00  0.00     0.178 HD
ENDBRANCH  23  25
ENDBRANCH   8  23
TORSDOF 5
ENDMDL
MODEL 4
REMARK VINA RESULT: -6.131898078      2.367      5.731
REMARK  5 active torsions:
REMARK  status: ('A' for Active; 'I' for Inactive)
REMARK    1  A    between atoms: N2_8  and  N3_10 
REMARK    2  A    between atoms: N3_10  and  N4_12 
REMARK    3  A    between atoms: C5_17  and  C6_18 
REMARK    4  A    between atoms: C6_18  and  C7_19 
REMARK    5  A    between atoms: C7_19  and  C8_20 
ROOT
HETATM    1  C1  UNL     1     -11.715  16.970  22.816  1.00  0.00     0.070 C 
HETATM    2  C2  UNL     1     -11.337  15.703  22.134  1.00  0.00     0.031 A 
HETATM    3  N1  UNL     1     -11.762  14.511  22.629  1.00  0.00    -0.323 N 
ATOM      4  H1  UNL     1     -12.347  14.501  23.466  1.00  0.00     0.169 HD
HETATM    5  C3  UNL     1     -11.436  13.347  22.051  1.00  0.00     0.291 A 
HETATM    6  O1  UNL     1     -11.806  12.223  22.475  1.00  0.00    -0.264 OA
HETATM    7  C4  UNL     1     -10.646  13.361  20.922  1.00  0.00     0.191 A 
HETATM    8  N2  UNL     1     -10.297  12.282  20.322  1.00  0.00    -0.267 N 
ATOM      9  H2  UNL     1     -10.601  11.374  20.672  1.00  0.00     0.190 HD
HETATM   10  N5  UNL     1     -10.227  14.539  20.433  1.00  0.00    -0.339 N 
ATOM     11  H5  UNL     1      -9.643  14.545  19.596  1.00  0.00     0.167 HD
HETATM   12  C5  UNL     1     -10.551  15.718  21.011  1.00  0.00     0.033 A 
ENDROOT
BRANCH  12  13
HETATM   13  C6  UNL     1     -10.044  16.963  20.384  1.00  0.00     0.065 C 
BRANCH  13  14
HETATM   14  C7  UNL     1      -8.727  17.361  21.020  1.00  0.00     0.063 C 
BRANCH  14  15
HETATM   15  C8  UNL     1      -7.578  16.755  20.298  1.00  0.00     0.011 A 
HETATM   16  C9  UNL     1      -6.402  16.411  20.962  1.00  0.00     0.042 A 
HETATM   17  C10 UNL     1      -5.339  15.849  20.288  1.00  0.00     0.093 A 
HETATM   18  N6  UNL     1      -5.462  15.639  18.967  1.00  0.00    -0.357 N 
HETATM   19  C11 UNL     1      -4.374  15.049  18.214  1.00  0.00     0.156 C 
HETATM   20  C12 UNL     1      -6.587  15.961  18.294  1.00  0.00     0.182 A 
HETATM   21  N7  UNL     1      -7.614  16.510  18.978  1.00  0.00    -0.356 N 
ATOM     22  H7  UNL     1      -8.461  16.752  18.465  1.00  0.00     0.166 HD
ENDBRANCH  14  15
ENDBRANCH  13  14
ENDBRANCH  12  13
BRANCH   8  23
HETATM   23  N3  UNL     1      -9.499  12.368  19.188  1.00  0.00    -0.248 N 
ATOM     24  H3  UNL     1      -9.858  12.806  18.340  1.00  0.00     0.207 HD
BRANCH  23  25
HETATM   25  N4  UNL     1      -8.195  11.847  19.219  1.00  0.00    -0.331 N 
ATOM     26  H42 UNL     1      -7.944  11.170  19.939  1.00  0.00     0.178 HD
ATOM     27  H41 UNL     1      -7.516  12.152  18.521  1.00  0.00     0.178 HD
ENDBRANCH  23  25
ENDBRANCH   8  23
TORSDOF 5
ENDMDL
MODEL 5
REMARK VINA RESULT: -6.057707566      2.501      5.882
REMARK  5 active torsions:
REMARK  status: ('A' for Active; 'I' for Inactive)
REMARK    1  A    between atoms: N2_8  and  N3_10 
REMARK    2  A    between atoms: N3_10  and  N4_12 
REMARK    3  A    between atoms: C5_17  and  C6_18 
REMARK    4  A    between atoms: C6_18  and  C7_19 
REMARK    5  A    between atoms: C7_19  and  C8_20 
ROOT
HETATM    1  C1  UNL     1     -11.520  16.915  22.824  1.00  0.00     0.070 C 
HETATM    2  C2  UNL     1     -11.221  15.545  22.325  1.00  0.00     0.031 A 
HETATM    3  N1  UNL     1     -12.031  14.506  22.663  1.00  0.00    -0.323 N 
ATOM      4  H1  UNL     1     -12.844  14.683  23.254  1.00  0.00     0.169 HD
HETATM    5  C3  UNL     1     -11.791  13.256  22.244  1.00  0.00     0.291 A 
HETATM    6  O1  UNL     1     -12.512  12.268  22.533  1.00  0.00    -0.264 OA
HETATM    7  C4  UNL     1     -10.693  13.018  21.447  1.00  0.00     0.191 A 
HETATM    8  N2  UNL     1     -10.407  11.845  21.014  1.00  0.00    -0.267 N 
ATOM      9  H2  UNL     1     -10.997  11.048  21.252  1.00  0.00     0.190 HD
HETATM   10  N5  UNL     1      -9.894  14.045  21.114  1.00  0.00    -0.339 N 
ATOM     11  H5  UNL     1      -9.082  13.865  20.523  1.00  0.00     0.167 HD
HETATM   12  C5  UNL     1     -10.128  15.309  21.533  1.00  0.00     0.033 A 
ENDROOT
BRANCH  12  13
HETATM   13  C6  UNL     1      -9.189  16.371  21.099  1.00  0.00     0.065 C 
BRANCH  13  14
HETATM   14  C7  UNL     1      -7.814  16.116  21.683  1.00  0.00     0.063 C 
BRANCH  14  15
HETATM   15  C8  UNL     1      -6.858  15.677  20.634  1.00  0.00     0.011 A 
HETATM   16  C9  UNL     1      -7.036  14.481  19.941  1.00  0.00     0.042 A 
HETATM   17  C10 UNL     1      -6.146  14.078  18.969  1.00  0.00     0.093 A 
HETATM   18  N6  UNL     1      -5.094  14.870  18.700  1.00  0.00    -0.357 N 
HETATM   19  C11 UNL     1      -4.132  14.492  17.686  1.00  0.00     0.156 C 
HETATM   20  C12 UNL     1      -4.892  16.034  19.353  1.00  0.00     0.182 A 
HETATM   21  N7  UNL     1      -5.779  16.405  20.302  1.00  0.00    -0.356 N 
ATOM     22  H7  UNL     1      -5.622  17.286  20.792  1.00  0.00     0.166 HD
ENDBRANCH  14  15
ENDBRANCH  13  14
ENDBRANCH  12  13
BRANCH   8  23
HETATM   23  N3  UNL     1      -9.284  11.675  20.215  1.00  0.00    -0.248 N 
ATOM     24  H3  UNL     1      -8.479  12.293  20.321  1.00  0.00     0.207 HD
BRANCH  23  25
HETATM   25  N4  UNL     1      -9.264  10.646  19.259  1.00  0.00    -0.331 N 
ATOM     26  H42 UNL     1      -9.134   9.682  19.566  1.00  0.00     0.178 HD
ATOM     27  H41 UNL     1      -9.379  10.875  18.271  1.00  0.00     0.178 HD
ENDBRANCH  23  25
ENDBRANCH   8  23
TORSDOF 5
ENDMDL
