MODEL 1
REMARK VINA RESULT: -7.150790663      0.000      0.000
REMARK  7 active torsions:
REMARK  status: ('A' for Active; 'I' for Inactive)
REMARK    1  A    between atoms: N1_1  and  C1_5 
REMARK    2  A    between atoms: C1_5  and  C2_6 
REMARK    3  A    between atoms: C2_6  and  C3_7 
REMARK    4  A    between atoms: C3_7  and  N2_8 
REMARK    5  A    between atoms: N2_8  and  C4_10 
REMARK    6  A    between atoms: C10_24  and  C11_25 
REMARK    7  A    between atoms: N6_26  and  O3_28 
ROOT
HETATM    1  C4  UNL     1      -6.582  15.674  20.623  1.00  0.00     0.114 A 
HETATM    2  N3  UNL     1      -7.624  15.042  21.145  1.00  0.00    -0.326 N 
ATOM      3  H3  UNL     1      -8.112  15.464  21.934  1.00  0.00     0.169 HD
HETATM    4  C5  UNL     1      -8.057  13.868  20.670  1.00  0.00     0.137 A 
HETATM    5  N4  UNL     1      -9.117  13.267  21.232  1.00  0.00    -0.303 N 
ATOM      6  H4  UNL     1      -9.584  13.715  22.021  1.00  0.00     0.171 HD
HETATM    7  C6  UNL     1      -9.575  12.098  20.784  1.00  0.00     0.315 A 
HETATM    8  O1  UNL     1     -10.577  11.562  21.340  1.00  0.00    -0.262 OA
HETATM    9  C7  UNL     1      -8.941  11.489  19.713  1.00  0.00     0.314 A 
HETATM   10  O2  UNL     1      -9.362  10.385  19.279  1.00  0.00    -0.262 OA
HETATM   11  N5  UNL     1      -7.864  12.061  19.113  1.00  0.00    -0.316 N 
ATOM     12  H5  UNL     1      -7.392  11.619  18.325  1.00  0.00     0.169 HD
HETATM   13  C8  UNL     1      -7.454  13.237  19.611  1.00  0.00     0.080 A 
HETATM   14  C9  UNL     1      -6.354  13.889  19.050  1.00  0.00     0.050 A 
HETATM   15  C10 UNL     1      -5.905  15.089  19.529  1.00  0.00     0.027 A 
ENDROOT
BRANCH   1  16
HETATM   16  N2  UNL     1      -6.152  16.807  21.072  1.00  0.00    -0.376 N 
ATOM     17  H2  UNL     1      -5.146  16.971  21.033  1.00  0.00     0.161 HD
BRANCH  16  18
HETATM   18  C3  UNL     1      -6.966  17.858  21.619  1.00  0.00     0.123 C 
BRANCH  18  19
HETATM   19  C2  UNL     1      -7.981  18.376  20.623  1.00  0.00     0.047 C 
BRANCH  19  20
HETATM   20  C1  UNL     1      -9.384  18.132  21.069  1.00  0.00     0.231 C 
BRANCH  20  21
HETATM   21  N1  UNL     1     -10.082  17.168  20.249  1.00  0.00    -0.079 N 
ATOM     22  H13 UNL     1     -10.784  17.625  19.669  1.00  0.00     0.274 HD
ATOM     23  H12 UNL     1      -9.471  16.804  19.517  1.00  0.00     0.274 HD
ATOM     24  H11 UNL     1     -10.496  16.408  20.788  1.00  0.00     0.274 HD
ENDBRANCH  20  21
ENDBRANCH  19  20
ENDBRANCH  18  19
ENDBRANCH  16  18
ENDBRANCH   1  16
BRANCH  15  25
HETATM   25  C11 UNL     1      -4.773  15.808  18.987  1.00  0.00     0.129 C 
HETATM   26  N6  UNL     1      -3.970  15.375  18.151  1.00  0.00    -0.280 N 
ATOM     27  H6  UNL     1      -3.247  16.053  17.911  1.00  0.00     0.193 HD
BRANCH  26  28
HETATM   28  O3  UNL     1      -3.840  14.242  17.503  1.00  0.00    -0.290 OA
ATOM     29  H3  UNL     1      -3.967  13.972  16.600  1.00  0.00     0.244 HD
ENDBRANCH  26  28
ENDBRANCH  15  25
TORSDOF 7
ENDMDL
MODEL 2
REMARK VINA RESULT: -7.140703302      2.792      5.774
REMARK  7 active torsions:
REMARK  status: ('A' for Active; 'I' for Inactive)
REMARK    1  A    between atoms: N1_1  and  C1_5 
REMARK    2  A    between atoms: C1_5  and  C2_6 
REMARK    3  A    between atoms: C2_6  and  C3_7 
REMARK    4  A    between atoms: C3_7  and  N2_8 
REMARK    5  A    between atoms: N2_8  and  C4_10 
REMARK    6  A    between atoms: C10_24  and  C11_25 
REMARK    7  A    between atoms: N6_26  and  O3_28 
ROOT
HETATM    1  C4  UNL     1      -9.649  14.538  20.477  1.00  0.00     0.114 A 
HETATM    2  N3  UNL     1      -8.714  13.914  19.776  1.00  0.00    -0.326 N 
ATOM      3  H3  UNL     1      -8.896  12.967  19.445  1.00  0.00     0.169 HD
HETATM    4  C5  UNL     1      -7.538  14.484  19.487  1.00  0.00     0.137 A 
HETATM    5  N4  UNL     1      -6.622  13.811  18.774  1.00  0.00    -0.303 N 
ATOM      6  H4  UNL     1      -6.835  12.864  18.458  1.00  0.00     0.171 HD
HETATM    7  C6  UNL     1      -5.442  14.350  18.469  1.00  0.00     0.315 A 
HETATM    8  O1  UNL     1      -4.604  13.683  17.795  1.00  0.00    -0.262 OA
HETATM    9  C7  UNL     1      -5.154  15.635  18.899  1.00  0.00     0.314 A 
HETATM   10  O2  UNL     1      -4.043  16.156  18.618  1.00  0.00    -0.262 OA
HETATM   11  N5  UNL     1      -6.050  16.353  19.623  1.00  0.00    -0.316 N 
ATOM     12  H5  UNL     1      -5.845  17.299  19.944  1.00  0.00     0.169 HD
HETATM   13  C8  UNL     1      -7.219  15.756  19.896  1.00  0.00     0.080 A 
HETATM   14  C9  UNL     1      -8.193  16.428  20.637  1.00  0.00     0.050 A 
HETATM   15  C10 UNL     1      -9.398  15.851  20.936  1.00  0.00     0.027 A 
ENDROOT
BRANCH   1  16
HETATM   16  N2  UNL     1     -10.788  14.000  20.764  1.00  0.00    -0.376 N 
ATOM     17  H2  UNL     1     -11.608  14.358  20.273  1.00  0.00     0.161 HD
BRANCH  16  18
HETATM   18  C3  UNL     1     -11.004  12.940  21.711  1.00  0.00     0.123 C 
BRANCH  18  19
HETATM   19  C2  UNL     1     -12.302  13.107  22.471  1.00  0.00     0.047 C 
BRANCH  19  20
HETATM   20  C1  UNL     1     -12.796  11.815  23.033  1.00  0.00     0.231 C 
BRANCH  20  21
HETATM   21  N1  UNL     1     -13.817  11.987  24.041  1.00  0.00    -0.079 N 
ATOM     22  H13 UNL     1     -14.368  12.826  23.861  1.00  0.00     0.274 HD
ATOM     23  H12 UNL     1     -14.548  11.282  23.942  1.00  0.00     0.274 HD
ATOM     24  H11 UNL     1     -13.446  11.995  24.991  1.00  0.00     0.274 HD
ENDBRANCH  20  21
ENDBRANCH  19  20
ENDBRANCH  18  19
ENDBRANCH  16  18
ENDBRANCH   1  16
BRANCH  15  25
HETATM   25  C11 UNL     1     -10.442  16.500  21.697  1.00  0.00     0.129 C 
HETATM   26  N6  UNL     1     -10.673  17.716  21.724  1.00  0.00    -0.280 N 
ATOM     27  H6  UNL     1     -11.458  17.955  22.331  1.00  0.00     0.193 HD
BRANCH  26  28
HETATM   28  O3  UNL     1     -10.138  18.766  21.148  1.00  0.00    -0.290 OA
ATOM     29  H3  UNL     1     -10.448  19.639  20.935  1.00  0.00     0.244 HD
ENDBRANCH  26  28
ENDBRANCH  15  25
TORSDOF 7
ENDMDL
MODEL 3
REMARK VINA RESULT: -7.104343013      1.826      4.774
REMARK  7 active torsions:
REMARK  status: ('A' for Active; 'I' for Inactive)
REMARK    1  A    between atoms: N1_1  and  C1_5 
REMARK    2  A    between atoms: C1_5  and  C2_6 
REMARK    3  A    between atoms: C2_6  and  C3_7 
REMARK    4  A    between atoms: C3_7  and  N2_8 
REMARK    5  A    between atoms: N2_8  and  C4_10 
REMARK    6  A    between atoms: C10_24  and  C11_25 
REMARK    7  A    between atoms: N6_26  and  O3_28 
ROOT
HETATM    1  C4  UNL     1      -8.507  14.733  21.482  1.00  0.00     0.114 A 
HETATM    2  N3  UNL     1      -7.470  15.486  21.144  1.00  0.00    -0.326 N 
ATOM      3  H3  UNL     1      -7.313  16.362  21.642  1.00  0.00     0.169 HD
HETATM    4  C5  UNL     1      -6.620  15.135  20.171  1.00  0.00     0.137 A 
HETATM    5  N4  UNL     1      -5.584  15.931  19.865  1.00  0.00    -0.303 N 
ATOM      6  H4  UNL     1      -5.455  16.802  20.382  1.00  0.00     0.171 HD
HETATM    7  C6  UNL     1      -4.720  15.611  18.902  1.00  0.00     0.315 A 
HETATM    8  O1  UNL     1      -3.756  16.388  18.643  1.00  0.00    -0.262 OA
HETATM    9  C7  UNL     1      -4.896  14.430  18.200  1.00  0.00     0.314 A 
HETATM   10  O2  UNL     1      -4.087  14.116  17.288  1.00  0.00    -0.262 OA
HETATM   11  N5  UNL     1      -5.931  13.594  18.476  1.00  0.00    -0.316 N 
ATOM     12  H5  UNL     1      -6.067  12.724  17.963  1.00  0.00     0.169 HD
HETATM   13  C8  UNL     1      -6.764  13.972  19.456  1.00  0.00     0.080 A 
HETATM   14  C9  UNL     1      -7.852  13.167  19.799  1.00  0.00     0.050 A 
HETATM   15  C10 UNL     1      -8.725  13.519  20.793  1.00  0.00     0.027 A 
ENDROOT
BRANCH   1  16
HETATM   16  N2  UNL     1      -9.335  15.059  22.419  1.00  0.00    -0.376 N 
ATOM     17  H2  UNL     1      -9.166  14.668  23.346  1.00  0.00     0.161 HD
BRANCH  16  18
HETATM   18  C3  UNL     1     -10.473  15.926  22.273  1.00  0.00     0.123 C 
BRANCH  18  19
HETATM   19  C2  UNL     1     -10.412  16.742  21.000  1.00  0.00     0.047 C 
BRANCH  19  20
HETATM   20  C1  UNL     1      -9.993  18.152  21.255  1.00  0.00     0.231 C 
BRANCH  20  21
HETATM   21  N1  UNL     1      -8.639  18.428  20.831  1.00  0.00    -0.079 N 
ATOM     22  H13 UNL     1      -7.968  18.112  21.530  1.00  0.00     0.274 HD
ATOM     23  H12 UNL     1      -8.371  17.822  20.056  1.00  0.00     0.274 HD
ATOM     24  H11 UNL     1      -8.484  19.408  20.596  1.00  0.00     0.274 HD
ENDBRANCH  20  21
ENDBRANCH  19  20
ENDBRANCH  18  19
ENDBRANCH  16  18
ENDBRANCH   1  16
BRANCH  15  25
HETATM   25  C11 UNL     1      -9.866  12.725  21.189  1.00  0.00     0.129 C 
HETATM   26  N6  UNL     1     -10.999  12.783  20.694  1.00  0.00    -0.280 N 
ATOM     27  H6  UNL     1     -11.654  12.132  21.129  1.00  0.00     0.193 HD
BRANCH  26  28
HETATM   28  O3  UNL     1     -11.548  13.492  19.736  1.00  0.00    -0.290 OA
ATOM     29  H3  UNL     1     -11.475  14.396  19.452  1.00  0.00     0.244 HD
ENDBRANCH  26  28
ENDBRANCH  15  25
TORSDOF 7
ENDMDL
MODEL 4
REMARK VINA RESULT: -6.872857021      2.683      4.928
REMARK  7 active torsions:
REMARK  status: ('A' for Active; 'I' for Inactive)
REMARK    1  A    between atoms: N1_1  and  C1_5 
REMARK    2  A    between atoms: C1_5  and  C2_6 
REMARK    3  A    between atoms: C2_6  and  C3_7 
REMARK    4  A    between atoms: C3_7  and  N2_8 
REMARK    5  A    between atoms: N2_8  and  C4_10 
REMARK    6  A    between atoms: C10_24  and  C11_25 
REMARK    7  A    between atoms: N6_26  and  O3_28 
ROOT
HETATM    1  C4  UNL     1      -7.329  14.166  19.505  1.00  0.00     0.114 A 
HETATM    2  N3  UNL     1      -8.342  14.737  20.142  1.00  0.00    -0.326 N 
ATOM      3  H3  UNL     1      -9.110  14.152  20.471  1.00  0.00     0.169 HD
HETATM    4  C5  UNL     1      -8.390  16.055  20.370  1.00  0.00     0.137 A 
HETATM    5  N4  UNL     1      -9.437  16.586  21.020  1.00  0.00    -0.303 N 
ATOM      6  H4  UNL     1     -10.190  15.974  21.336  1.00  0.00     0.171 HD
HETATM    7  C6  UNL     1      -9.516  17.895  21.262  1.00  0.00     0.315 A 
HETATM    8  O1  UNL     1     -10.519  18.358  21.878  1.00  0.00    -0.262 OA
HETATM    9  C7  UNL     1      -8.493  18.725  20.833  1.00  0.00     0.314 A 
HETATM   10  O2  UNL     1      -8.555  19.963  21.055  1.00  0.00    -0.262 OA
HETATM   11  N5  UNL     1      -7.415  18.231  20.171  1.00  0.00    -0.316 N 
ATOM     12  H5  UNL     1      -6.659  18.836  19.851  1.00  0.00     0.169 HD
HETATM   13  C8  UNL     1      -7.395  16.907  19.959  1.00  0.00     0.080 A 
HETATM   14  C9  UNL     1      -6.321  16.322  19.285  1.00  0.00     0.050 A 
HETATM   15  C10 UNL     1      -6.264  14.975  19.049  1.00  0.00     0.027 A 
ENDROOT
BRANCH   1  16
HETATM   16  N2  UNL     1      -7.270  12.895  19.279  1.00  0.00    -0.376 N 
ATOM     17  H2  UNL     1      -6.740  12.593  18.461  1.00  0.00     0.161 HD
BRANCH  16  18
HETATM   18  C3  UNL     1      -7.883  11.868  20.077  1.00  0.00     0.123 C 
BRANCH  18  19
HETATM   19  C2  UNL     1      -9.227  11.442  19.529  1.00  0.00     0.047 C 
BRANCH  19  20
HETATM   20  C1  UNL     1     -10.310  12.409  19.876  1.00  0.00     0.231 C 
BRANCH  20  21
HETATM   21  N1  UNL     1     -10.575  12.481  21.295  1.00  0.00    -0.079 N 
ATOM     22  H13 UNL     1     -10.423  11.576  21.739  1.00  0.00     0.274 HD
ATOM     23  H12 UNL     1      -9.856  13.024  21.772  1.00  0.00     0.274 HD
ATOM     24  H11 UNL     1     -11.505  12.839  21.512  1.00  0.00     0.274 HD
ENDBRANCH  20  21
ENDBRANCH  19  20
ENDBRANCH  18  19
ENDBRANCH  16  18
ENDBRANCH   1  16
BRANCH  15  25
HETATM   25  C11 UNL     1      -5.178  14.317  18.358  1.00  0.00     0.129 C 
HETATM   26  N6  UNL     1      -4.153  14.862  17.930  1.00  0.00    -0.280 N 
ATOM     27  H6  UNL     1      -3.519  14.206  17.473  1.00  0.00     0.193 HD
BRANCH  26  28
HETATM   28  O3  UNL     1      -3.698  16.093  17.930  1.00  0.00    -0.290 OA
ATOM     29  H3  UNL     1      -3.332  16.667  17.267  1.00  0.00     0.244 HD
ENDBRANCH  26  28
ENDBRANCH  15  25
TORSDOF 7
ENDMDL
MODEL 5
REMARK VINA RESULT: -6.852143661      3.386      6.180
REMARK  7 active torsions:
REMARK  status: ('A' for Active; 'I' for Inactive)
REMARK    1  A    between atoms: N1_1  and  C1_5 
REMARK    2  A    between atoms: C1_5  and  C2_6 
REMARK    3  A    between atoms: C2_6  and  C3_7 
REMARK    4  A    between atoms: C3_7  and  N2_8 
REMARK    5  A    between atoms: N2_8  and  C4_10 
REMARK    6  A    between atoms: C10_24  and  C11_25 
REMARK    7  A    between atoms: N6_26  and  O3_28 
ROOT
HETATM    1  C4  UNL     1     -10.357  13.405  21.367  1.00  0.00     0.114 A 
HETATM    2  N3  UNL     1     -10.555  14.695  21.595  1.00  0.00    -0.326 N 
ATOM      3  H3  UNL     1     -11.385  14.983  22.113  1.00  0.00     0.169 HD
HETATM    4  C5  UNL     1      -9.703  15.634  21.168  1.00  0.00     0.137 A 
HETATM    5  N4  UNL     1      -9.947  16.929  21.424  1.00  0.00    -0.303 N 
ATOM      6  H4  UNL     1     -10.786  17.185  21.945  1.00  0.00     0.171 HD
HETATM    7  C6  UNL     1      -9.118  17.889  21.013  1.00  0.00     0.315 A 
HETATM    8  O1  UNL     1      -9.383  19.099  21.273  1.00  0.00    -0.262 OA
HETATM    9  C7  UNL     1      -7.978  17.542  20.305  1.00  0.00     0.314 A 
HETATM   10  O2  UNL     1      -7.188  18.439  19.912  1.00  0.00    -0.262 OA
HETATM   11  N5  UNL     1      -7.692  16.245  20.024  1.00  0.00    -0.316 N 
ATOM     12  H5  UNL     1      -6.856  15.982  19.503  1.00  0.00     0.169 HD
HETATM   13  C8  UNL     1      -8.564  15.327  20.465  1.00  0.00     0.080 A 
HETATM   14  C9  UNL     1      -8.341  13.971  20.216  1.00  0.00     0.050 A 
HETATM   15  C10 UNL     1      -9.207  13.005  20.650  1.00  0.00     0.027 A 
ENDROOT
BRANCH   1  16
HETATM   16  N2  UNL     1     -11.172  12.488  21.774  1.00  0.00    -0.376 N 
ATOM     17  H2  UNL     1     -10.946  11.524  21.528  1.00  0.00     0.161 HD
BRANCH  16  18
HETATM   18  C3  UNL     1     -12.368  12.704  22.541  1.00  0.00     0.123 C 
BRANCH  18  19
HETATM   19  C2  UNL     1     -12.867  11.435  23.196  1.00  0.00     0.047 C 
BRANCH  19  20
HETATM   20  C1  UNL     1     -13.905  11.706  24.234  1.00  0.00     0.231 C 
BRANCH  20  21
HETATM   21  N1  UNL     1     -13.663  11.006  25.476  1.00  0.00    -0.079 N 
ATOM     22  H13 UNL     1     -13.060  10.198  25.326  1.00  0.00     0.274 HD
ATOM     23  H12 UNL     1     -13.060  11.553  26.090  1.00  0.00     0.274 HD
ATOM     24  H11 UNL     1     -14.521  10.735  25.956  1.00  0.00     0.274 HD
ENDBRANCH  20  21
ENDBRANCH  19  20
ENDBRANCH  18  19
ENDBRANCH  16  18
ENDBRANCH   1  16
BRANCH  15  25
HETATM   25  C11 UNL     1      -9.026  11.589  20.421  1.00  0.00     0.129 C 
HETATM   26  N6  UNL     1      -9.453  10.949  19.452  1.00  0.00    -0.280 N 
ATOM     27  H6  UNL     1      -9.209   9.960  19.493  1.00  0.00     0.193 HD
BRANCH  26  28
HETATM   28  O3  UNL     1     -10.150  11.256  18.382  1.00  0.00    -0.290 OA
ATOM     29  H3  UNL     1     -10.276  12.050  17.875  1.00  0.00     0.244 HD
ENDBRANCH  26  28
ENDBRANCH  15  25
TORSDOF 7
ENDMDL
