MODEL 1
REMARK VINA RESULT: -6.776981708      0.000      0.000
REMARK  6 active torsions:
REMARK  status: ('A' for Active; 'I' for Inactive)
REMARK    1  A    between atoms: N1_2  and  N2_3 
REMARK    2  A    between atoms: N2_3  and  S1_5 
REMARK    3  A    between atoms: S1_5  and  C2_8 
REMARK    4  A    between atoms: C2_8  and  C3_9 
REMARK    5  A    between atoms: C7_13  and  S2_14 
REMARK    6  A    between atoms: S2_14  and  N3_15 
ROOT
HETATM    1  C3  UNL     1      -9.446  15.150  21.662  1.00  0.00    -0.041 A 
HETATM    2  C4  UNL     1      -8.771  14.914  22.854  1.00  0.00     0.008 A 
HETATM    3  C5  UNL     1      -7.400  15.002  22.877  1.00  0.00     0.002 A 
HETATM    4  C6  UNL     1      -6.703  15.320  21.729  1.00  0.00     0.025 A 
HETATM    5  C7  UNL     1      -7.351  15.562  20.523  1.00  0.00     0.079 A 
HETATM    6  C8  UNL     1      -8.725  15.467  20.528  1.00  0.00     0.033 A 
ENDROOT
BRANCH   1   7
HETATM    7  C2  UNL     1     -10.920  15.057  21.625  1.00  0.00     0.202 C 
BRANCH   7   8
HETATM    8  S1  UNL     1     -11.462  13.402  21.288  1.00  0.00     0.245 S 
HETATM    9  O1  UNL     1     -12.137  13.426  19.923  1.00  0.00    -0.204 OA
HETATM   10  O2  UNL     1     -12.474  13.029  22.326  1.00  0.00    -0.204 OA
BRANCH   8  11
HETATM   11  N2  UNL     1     -10.175  12.293  21.202  1.00  0.00    -0.231 N 
ATOM     12  H2  UNL     1      -9.761  11.858  22.026  1.00  0.00     0.195 HD
BRANCH  11  13
HETATM   13  N1  UNL     1      -9.738  12.034  19.913  1.00  0.00    -0.136 NA
HETATM   14  C1  UNL     1      -8.297  11.796  19.851  1.00  0.00     0.159 C 
ENDBRANCH  11  13
ENDBRANCH   8  11
ENDBRANCH   7   8
ENDBRANCH   1   7
BRANCH   5  15
HETATM   15  S2  UNL     1      -6.438  15.963  19.084  1.00  0.00     0.256 S 
HETATM   16  O3  UNL     1      -7.007  17.143  18.363  1.00  0.00    -0.201 OA
HETATM   17  O4  UNL     1      -5.010  16.323  19.471  1.00  0.00    -0.201 OA
BRANCH  15  18
HETATM   18  N3  UNL     1      -6.319  14.615  18.010  1.00  0.00    -0.324 N 
ATOM     19  H32 UNL     1      -5.562  13.932  18.048  1.00  0.00     0.169 HD
ATOM     20  H31 UNL     1      -7.092  14.596  17.345  1.00  0.00     0.169 HD
ENDBRANCH  15  18
ENDBRANCH   5  15
TORSDOF 6
ENDMDL
MODEL 2
REMARK VINA RESULT: -6.657769074      1.263      5.163
REMARK  6 active torsions:
REMARK  status: ('A' for Active; 'I' for Inactive)
REMARK    1  A    between atoms: N1_2  and  N2_3 
REMARK    2  A    between atoms: N2_3  and  S1_5 
REMARK    3  A    between atoms: S1_5  and  C2_8 
REMARK    4  A    between atoms: C2_8  and  C3_9 
REMARK    5  A    between atoms: C7_13  and  S2_14 
REMARK    6  A    between atoms: S2_14  and  N3_15 
ROOT
HETATM    1  C3  UNL     1      -7.906  16.250  20.971  1.00  0.00    -0.041 A 
HETATM    2  C4  UNL     1      -8.425  17.538  21.036  1.00  0.00     0.008 A 
HETATM    3  C5  UNL     1      -9.776  17.708  21.216  1.00  0.00     0.002 A 
HETATM    4  C6  UNL     1     -10.608  16.612  21.330  1.00  0.00     0.025 A 
HETATM    5  C7  UNL     1     -10.117  15.313  21.270  1.00  0.00     0.079 A 
HETATM    6  C8  UNL     1      -8.759  15.171  21.089  1.00  0.00     0.033 A 
ENDROOT
BRANCH   1   7
HETATM    7  C2  UNL     1      -6.455  16.054  20.777  1.00  0.00     0.202 C 
BRANCH   7   8
HETATM    8  S1  UNL     1      -6.066  15.681  19.087  1.00  0.00     0.245 S 
HETATM    9  O1  UNL     1      -4.582  15.969  18.899  1.00  0.00    -0.204 OA
HETATM   10  O2  UNL     1      -6.857  16.607  18.218  1.00  0.00    -0.204 OA
BRANCH   8  11
HETATM   11  N2  UNL     1      -6.322  14.044  18.700  1.00  0.00    -0.231 N 
ATOM     12  H2  UNL     1      -6.202  13.671  17.758  1.00  0.00     0.195 HD
BRANCH  11  13
HETATM   13  N1  UNL     1      -6.707  13.262  19.777  1.00  0.00    -0.136 NA
HETATM   14  C1  UNL     1      -7.572  12.154  19.378  1.00  0.00     0.159 C 
ENDBRANCH  11  13
ENDBRANCH   8  11
ENDBRANCH   7   8
ENDBRANCH   1   7
BRANCH   5  15
HETATM   15  S2  UNL     1     -11.198  13.944  21.419  1.00  0.00     0.256 S 
HETATM   16  O3  UNL     1     -12.206  14.133  22.508  1.00  0.00    -0.201 OA
HETATM   17  O4  UNL     1     -11.972  13.762  20.121  1.00  0.00    -0.201 OA
BRANCH  15  18
HETATM   18  N3  UNL     1     -10.329  12.471  21.669  1.00  0.00    -0.324 N 
ATOM     19  H32 UNL     1      -9.694  12.320  22.453  1.00  0.00     0.169 HD
ATOM     20  H31 UNL     1     -10.532  11.787  20.940  1.00  0.00     0.169 HD
ENDBRANCH  15  18
ENDBRANCH   5  15
TORSDOF 6
ENDMDL
MODEL 3
REMARK VINA RESULT: -6.621318686      2.573      4.922
REMARK  6 active torsions:
REMARK  status: ('A' for Active; 'I' for Inactive)
REMARK    1  A    between atoms: N1_2  and  N2_3 
REMARK    2  A    between atoms: N2_3  and  S1_5 
REMARK    3  A    between atoms: S1_5  and  C2_8 
REMARK    4  A    between atoms: C2_8  and  C3_9 
REMARK    5  A    between atoms: C7_13  and  S2_14 
REMARK    6  A    between atoms: S2_14  and  N3_15 
ROOT
HETATM    1  C3  UNL     1      -9.914  15.757  20.928  1.00  0.00    -0.041 A 
HETATM    2  C4  UNL     1     -10.694  15.626  22.071  1.00  0.00     0.008 A 
HETATM    3  C5  UNL     1     -11.078  14.372  22.480  1.00  0.00     0.002 A 
HETATM    4  C6  UNL     1     -10.693  13.257  21.763  1.00  0.00     0.025 A 
HETATM    5  C7  UNL     1      -9.913  13.357  20.617  1.00  0.00     0.079 A 
HETATM    6  C8  UNL     1      -9.542  14.626  20.229  1.00  0.00     0.033 A 
ENDROOT
BRANCH   1   7
HETATM    7  C2  UNL     1      -9.495  17.100  20.478  1.00  0.00     0.202 C 
BRANCH   7   8
HETATM    8  S1  UNL     1      -7.732  17.214  20.313  1.00  0.00     0.245 S 
HETATM    9  O1  UNL     1      -7.128  16.337  21.403  1.00  0.00    -0.204 OA
HETATM   10  O2  UNL     1      -7.338  18.636  20.558  1.00  0.00    -0.204 OA
BRANCH   8  11
HETATM   11  N2  UNL     1      -7.173  16.628  18.817  1.00  0.00    -0.231 N 
ATOM     12  H2  UNL     1      -7.771  16.543  17.996  1.00  0.00     0.195 HD
BRANCH  11  13
HETATM   13  N1  UNL     1      -5.832  16.277  18.813  1.00  0.00    -0.136 NA
HETATM   14  C1  UNL     1      -5.634  14.843  18.615  1.00  0.00     0.159 C 
ENDBRANCH  11  13
ENDBRANCH   8  11
ENDBRANCH   7   8
ENDBRANCH   1   7
BRANCH   5  15
HETATM   15  S2  UNL     1      -9.442  11.924  19.730  1.00  0.00     0.256 S 
HETATM   16  O3  UNL     1      -9.577  10.680  20.550  1.00  0.00    -0.201 OA
HETATM   17  O4  UNL     1     -10.344  11.756  18.515  1.00  0.00    -0.201 OA
BRANCH  15  18
HETATM   18  N3  UNL     1      -7.832  12.055  19.117  1.00  0.00    -0.324 N 
ATOM     19  H32 UNL     1      -7.027  12.287  19.699  1.00  0.00     0.169 HD
ATOM     20  H31 UNL     1      -7.796  11.873  18.114  1.00  0.00     0.169 HD
ENDBRANCH  15  18
ENDBRANCH   5  15
TORSDOF 6
ENDMDL
MODEL 4
REMARK VINA RESULT: -6.596171942      1.959      2.667
REMARK  6 active torsions:
REMARK  status: ('A' for Active; 'I' for Inactive)
REMARK    1  A    between atoms: N1_2  and  N2_3 
REMARK    2  A    between atoms: N2_3  and  S1_5 
REMARK    3  A    between atoms: S1_5  and  C2_8 
REMARK    4  A    between atoms: C2_8  and  C3_9 
REMARK    5  A    between atoms: C7_13  and  S2_14 
REMARK    6  A    between atoms: S2_14  and  N3_15 
ROOT
HETATM    1  C3  UNL     1      -8.801  13.743  21.319  1.00  0.00    -0.041 A 
HETATM    2  C4  UNL     1      -8.720  12.445  20.827  1.00  0.00     0.008 A 
HETATM    3  C5  UNL     1      -7.854  12.173  19.796  1.00  0.00     0.002 A 
HETATM    4  C6  UNL     1      -7.075  13.177  19.255  1.00  0.00     0.025 A 
HETATM    5  C7  UNL     1      -7.135  14.483  19.727  1.00  0.00     0.079 A 
HETATM    6  C8  UNL     1      -8.011  14.729  20.762  1.00  0.00     0.033 A 
ENDROOT
BRANCH   1   7
HETATM    7  C2  UNL     1      -9.728  14.049  22.428  1.00  0.00     0.202 C 
BRANCH   7   8
HETATM    8  S1  UNL     1     -11.412  13.706  21.984  1.00  0.00     0.245 S 
HETATM    9  O1  UNL     1     -11.507  13.839  20.469  1.00  0.00    -0.204 OA
HETATM   10  O2  UNL     1     -12.276  14.749  22.620  1.00  0.00    -0.204 OA
BRANCH   8  11
HETATM   11  N2  UNL     1     -11.889  12.124  22.388  1.00  0.00    -0.231 N 
ATOM     12  H2  UNL     1     -11.401  11.294  22.052  1.00  0.00     0.195 HD
BRANCH  11  13
HETATM   13  N1  UNL     1     -12.999  12.063  23.215  1.00  0.00    -0.136 NA
HETATM   14  C1  UNL     1     -13.344  10.691  23.581  1.00  0.00     0.159 C 
ENDBRANCH  11  13
ENDBRANCH   8  11
ENDBRANCH   7   8
ENDBRANCH   1   7
BRANCH   5  15
HETATM   15  S2  UNL     1      -6.135  15.733  19.020  1.00  0.00     0.256 S 
HETATM   16  O3  UNL     1      -6.946  16.846  18.436  1.00  0.00    -0.201 OA
HETATM   17  O4  UNL     1      -5.247  16.345  20.096  1.00  0.00    -0.201 OA
BRANCH  15  18
HETATM   18  N3  UNL     1      -5.065  15.091  17.825  1.00  0.00    -0.324 N 
ATOM     19  H32 UNL     1      -5.381  14.730  16.925  1.00  0.00     0.169 HD
ATOM     20  H31 UNL     1      -4.094  15.123  18.134  1.00  0.00     0.169 HD
ENDBRANCH  15  18
ENDBRANCH   5  15
TORSDOF 6
ENDMDL
MODEL 5
REMARK VINA RESULT: -6.498758868      0.997      1.153
REMARK  6 active torsions:
REMARK  status: ('A' for Active; 'I' for Inactive)
REMARK    1  A    between atoms: N1_2  and  N2_3 
REMARK    2  A    between atoms: N2_3  and  S1_5 
REMARK    3  A    between atoms: S1_5  and  C2_8 
REMARK    4  A    between atoms: C2_8  and  C3_9 
REMARK    5  A    between atoms: C7_13  and  S2_14 
REMARK    6  A    between atoms: S2_14  and  N3_15 
ROOT
HETATM    1  C3  UNL     1      -8.848  14.312  21.738  1.00  0.00    -0.041 A 
HETATM    2  C4  UNL     1      -8.319  14.711  22.960  1.00  0.00     0.008 A 
HETATM    3  C5  UNL     1      -7.169  15.462  22.979  1.00  0.00     0.002 A 
HETATM    4  C6  UNL     1      -6.547  15.814  21.798  1.00  0.00     0.025 A 
HETATM    5  C7  UNL     1      -7.053  15.429  20.561  1.00  0.00     0.079 A 
HETATM    6  C8  UNL     1      -8.207  14.677  20.571  1.00  0.00     0.033 A 
ENDROOT
BRANCH   1   7
HETATM    7  C2  UNL     1     -10.084  13.504  21.704  1.00  0.00     0.202 C 
BRANCH   7   8
HETATM    8  S1  UNL     1     -10.845  13.541  20.102  1.00  0.00     0.245 S 
HETATM    9  O1  UNL     1     -10.580  14.922  19.517  1.00  0.00    -0.204 OA
HETATM   10  O2  UNL     1     -12.319  13.365  20.289  1.00  0.00    -0.204 OA
BRANCH   8  11
HETATM   11  N2  UNL     1     -10.180  12.397  19.032  1.00  0.00    -0.231 N 
ATOM     12  H2  UNL     1     -10.261  12.473  18.018  1.00  0.00     0.195 HD
BRANCH  11  13
HETATM   13  N1  UNL     1      -9.520  11.353  19.659  1.00  0.00    -0.136 NA
HETATM   14  C1  UNL     1      -8.067  11.484  19.574  1.00  0.00     0.159 C 
ENDBRANCH  11  13
ENDBRANCH   8  11
ENDBRANCH   7   8
ENDBRANCH   1   7
BRANCH   5  15
HETATM   15  S2  UNL     1      -6.240  15.893  19.082  1.00  0.00     0.256 S 
HETATM   16  O3  UNL     1      -6.869  17.088  18.439  1.00  0.00    -0.201 OA
HETATM   17  O4  UNL     1      -4.795  16.261  19.388  1.00  0.00    -0.201 OA
BRANCH  15  18
HETATM   18  N3  UNL     1      -6.173  14.584  17.956  1.00  0.00    -0.324 N 
ATOM     19  H32 UNL     1      -5.301  14.210  17.580  1.00  0.00     0.169 HD
ATOM     20  H31 UNL     1      -7.105  14.241  17.723  1.00  0.00     0.169 HD
ENDBRANCH  15  18
ENDBRANCH   5  15
TORSDOF 6
ENDMDL
