MODEL 1
REMARK VINA RESULT: -5.890752462      0.000      0.000
REMARK  7 active torsions:
REMARK  status: ('A' for Active; 'I' for Inactive)
REMARK    1  A    between atoms: N1_1  and  C1_5 
REMARK    2  A    between atoms: C1_5  and  C2_6 
REMARK    3  A    between atoms: C6_10  and  C7_11 
REMARK    4  A    between atoms: C7_11  and  N2_12 
REMARK    5  A    between atoms: N2_12  and  C8_15 
REMARK    6  A    between atoms: C8_15  and  C9_16 
REMARK    7  A    between atoms: C9_16  and  N3_17 
ROOT
HETATM    1  C7  UNL     1     -22.988   2.695  -6.622  1.00  0.00     0.237 C 
ENDROOT
BRANCH   1   2
HETATM    2  C6  UNL     1     -23.823   1.541  -6.984  1.00  0.00     0.017 C 
HETATM    3  C2  UNL     1     -25.299   1.830  -7.088  1.00  0.00     0.017 C 
HETATM    4  C3  UNL     1     -25.943   1.212  -5.861  1.00  0.00     0.007 C 
HETATM    5  C4  UNL     1     -24.944   0.306  -5.245  1.00  0.00     0.001 C 
HETATM    6  C5  UNL     1     -23.742   0.325  -6.144  1.00  0.00     0.007 C 
BRANCH   3   7
HETATM    7  C1  UNL     1     -25.900   1.120  -8.283  1.00  0.00     0.234 C 
BRANCH   7   8
HETATM    8  N1  UNL     1     -25.195   1.592  -9.472  1.00  0.00    -0.079 N 
ATOM      9  H13 UNL     1     -25.181   2.609  -9.549  1.00  0.00     0.274 HD
ATOM     10  H12 UNL     1     -24.187   1.449  -9.420  1.00  0.00     0.274 HD
ATOM     11  H11 UNL     1     -25.621   1.138 -10.280  1.00  0.00     0.274 HD
ENDBRANCH   7   8
ENDBRANCH   3   7
ENDBRANCH   1   2
BRANCH   1  12
HETATM   12  N2  UNL     1     -21.769   2.861  -7.353  1.00  0.00    -0.073 N 
ATOM     13  H22 UNL     1     -21.254   3.672  -7.009  1.00  0.00     0.277 HD
ATOM     14  H21 UNL     1     -21.107   2.122  -7.115  1.00  0.00     0.277 HD
BRANCH  12  15
HETATM   15  C8  UNL     1     -21.940   2.940  -8.759  1.00  0.00     0.262 C 
BRANCH  15  16
HETATM   16  C9  UNL     1     -20.774   2.594  -9.607  1.00  0.00     0.299 C 
BRANCH  16  17
HETATM   17  N3  UNL     1     -20.963   2.171 -10.920  1.00  0.00     0.090 N 
HETATM   18  C10 UNL     1     -21.918   1.042 -10.878  1.00  0.00     0.272 C 
HETATM   19  C11 UNL     1     -20.972  -0.155 -10.607  1.00  0.00     0.032 C 
HETATM   20  C12 UNL     1     -19.593   0.359 -11.010  1.00  0.00     0.032 C 
HETATM   21  C13 UNL     1     -19.945   1.639 -11.709  1.00  0.00     0.272 C 
ENDBRANCH  16  17
ENDBRANCH  15  16
ENDBRANCH  12  15
ENDBRANCH   1  12
TORSDOF 7
ENDMDL
MODEL 2
REMARK VINA RESULT: -5.852950811      1.164      1.374
REMARK  7 active torsions:
REMARK  status: ('A' for Active; 'I' for Inactive)
REMARK    1  A    between atoms: N1_1  and  C1_5 
REMARK    2  A    between atoms: C1_5  and  C2_6 
REMARK    3  A    between atoms: C6_10  and  C7_11 
REMARK    4  A    between atoms: C7_11  and  N2_12 
REMARK    5  A    between atoms: N2_12  and  C8_15 
REMARK    6  A    between atoms: C8_15  and  C9_16 
REMARK    7  A    between atoms: C9_16  and  N3_17 
ROOT
HETATM    1  C7  UNL     1     -22.518   3.433  -7.787  1.00  0.00     0.237 C 
ENDROOT
BRANCH   1   2
HETATM    2  C6  UNL     1     -23.302   2.195  -7.676  1.00  0.00     0.017 C 
HETATM    3  C2  UNL     1     -24.766   2.336  -8.008  1.00  0.00     0.017 C 
HETATM    4  C3  UNL     1     -25.511   2.275  -6.687  1.00  0.00     0.007 C 
HETATM    5  C4  UNL     1     -24.560   1.775  -5.665  1.00  0.00     0.001 C 
HETATM    6  C5  UNL     1     -23.283   1.465  -6.389  1.00  0.00     0.007 C 
BRANCH   3   7
HETATM    7  C1  UNL     1     -25.248   1.152  -8.819  1.00  0.00     0.234 C 
BRANCH   7   8
HETATM    8  N1  UNL     1     -24.523   1.167 -10.087  1.00  0.00    -0.079 N 
ATOM      9  H13 UNL     1     -23.663   0.619 -10.061  1.00  0.00     0.274 HD
ATOM     10  H12 UNL     1     -24.994   0.639 -10.821  1.00  0.00     0.274 HD
ATOM     11  H11 UNL     1     -24.366   2.143 -10.337  1.00  0.00     0.274 HD
ENDBRANCH   7   8
ENDBRANCH   3   7
ENDBRANCH   1   2
BRANCH   1  12
HETATM   12  N2  UNL     1     -21.141   3.358  -7.404  1.00  0.00    -0.073 N 
ATOM     13  H22 UNL     1     -21.002   3.784  -6.487  1.00  0.00     0.277 HD
ATOM     14  H21 UNL     1     -20.883   2.395  -7.188  1.00  0.00     0.277 HD
BRANCH  12  15
HETATM   15  C8  UNL     1     -20.242   3.914  -8.351  1.00  0.00     0.262 C 
BRANCH  15  16
HETATM   16  C9  UNL     1     -19.611   2.983  -9.316  1.00  0.00     0.299 C 
BRANCH  16  17
HETATM   17  N3  UNL     1     -20.209   2.740 -10.550  1.00  0.00     0.090 N 
HETATM   18  C10 UNL     1     -20.622   1.319 -10.559  1.00  0.00     0.272 C 
HETATM   19  C11 UNL     1     -19.320   0.621 -11.030  1.00  0.00     0.032 C 
HETATM   20  C12 UNL     1     -18.511   1.738 -11.683  1.00  0.00     0.032 C 
HETATM   21  C13 UNL     1     -19.531   2.835 -11.764  1.00  0.00     0.272 C 
ENDBRANCH  16  17
ENDBRANCH  15  16
ENDBRANCH  12  15
ENDBRANCH   1  12
TORSDOF 7
ENDMDL
MODEL 3
REMARK VINA RESULT: -5.847805727      1.049      2.578
REMARK  7 active torsions:
REMARK  status: ('A' for Active; 'I' for Inactive)
REMARK    1  A    between atoms: N1_1  and  C1_5 
REMARK    2  A    between atoms: C1_5  and  C2_6 
REMARK    3  A    between atoms: C6_10  and  C7_11 
REMARK    4  A    between atoms: C7_11  and  N2_12 
REMARK    5  A    between atoms: N2_12  and  C8_15 
REMARK    6  A    between atoms: C8_15  and  C9_16 
REMARK    7  A    between atoms: C9_16  and  N3_17 
ROOT
HETATM    1  C7  UNL     1     -25.429   1.071  -8.756  1.00  0.00     0.237 C 
ENDROOT
BRANCH   1   2
HETATM    2  C6  UNL     1     -25.041   1.683  -7.476  1.00  0.00     0.017 C 
HETATM    3  C2  UNL     1     -23.707   1.237  -6.935  1.00  0.00     0.017 C 
HETATM    4  C3  UNL     1     -24.007   0.311  -5.770  1.00  0.00     0.007 C 
HETATM    5  C4  UNL     1     -25.440   0.481  -5.427  1.00  0.00     0.001 C 
HETATM    6  C5  UNL     1     -25.968   1.557  -6.329  1.00  0.00     0.007 C 
BRANCH   3   7
HETATM    7  C1  UNL     1     -22.945   2.411  -6.355  1.00  0.00     0.234 C 
BRANCH   7   8
HETATM    8  N1  UNL     1     -21.940   2.806  -7.338  1.00  0.00    -0.079 N 
ATOM      9  H13 UNL     1     -21.684   2.050  -7.973  1.00  0.00     0.274 HD
ATOM     10  H12 UNL     1     -22.301   3.452  -8.039  1.00  0.00     0.274 HD
ATOM     11  H11 UNL     1     -21.142   3.181  -6.824  1.00  0.00     0.274 HD
ENDBRANCH   7   8
ENDBRANCH   3   7
ENDBRANCH   1   2
BRANCH   1  12
HETATM   12  N2  UNL     1     -24.649   1.429  -9.901  1.00  0.00    -0.073 N 
ATOM     13  H22 UNL     1     -25.240   1.848 -10.619  1.00  0.00     0.277 HD
ATOM     14  H21 UNL     1     -24.046   2.224  -9.688  1.00  0.00     0.277 HD
BRANCH  12  15
HETATM   15  C8  UNL     1     -23.889   0.360 -10.444  1.00  0.00     0.262 C 
BRANCH  15  16
HETATM   16  C9  UNL     1     -22.426   0.376 -10.204  1.00  0.00     0.299 C 
BRANCH  16  17
HETATM   17  N3  UNL     1     -21.649   1.429 -10.678  1.00  0.00     0.090 N 
HETATM   18  C10 UNL     1     -21.585   1.290 -12.150  1.00  0.00     0.272 C 
HETATM   19  C11 UNL     1     -20.396   0.310 -12.318  1.00  0.00     0.032 C 
HETATM   20  C12 UNL     1     -19.645   0.402 -10.993  1.00  0.00     0.032 C 
HETATM   21  C13 UNL     1     -20.302   1.594 -10.361  1.00  0.00     0.272 C 
ENDBRANCH  16  17
ENDBRANCH  15  16
ENDBRANCH  12  15
ENDBRANCH   1  12
TORSDOF 7
ENDMDL
MODEL 4
REMARK VINA RESULT: -5.838199944      1.708      2.996
REMARK  7 active torsions:
REMARK  status: ('A' for Active; 'I' for Inactive)
REMARK    1  A    between atoms: N1_1  and  C1_5 
REMARK    2  A    between atoms: C1_5  and  C2_6 
REMARK    3  A    between atoms: C6_10  and  C7_11 
REMARK    4  A    between atoms: C7_11  and  N2_12 
REMARK    5  A    between atoms: N2_12  and  C8_15 
REMARK    6  A    between atoms: C8_15  and  C9_16 
REMARK    7  A    between atoms: C9_16  and  N3_17 
ROOT
HETATM    1  C7  UNL     1     -24.255   0.276  -8.689  1.00  0.00     0.237 C 
ENDROOT
BRANCH   1   2
HETATM    2  C6  UNL     1     -24.722   0.190  -7.298  1.00  0.00     0.017 C 
HETATM    3  C2  UNL     1     -25.381   1.439  -6.770  1.00  0.00     0.017 C 
HETATM    4  C3  UNL     1     -24.386   2.075  -5.815  1.00  0.00     0.007 C 
HETATM    5  C4  UNL     1     -23.336   1.067  -5.534  1.00  0.00     0.001 C 
HETATM    6  C5  UNL     1     -23.745  -0.185  -6.252  1.00  0.00     0.007 C 
BRANCH   3   7
HETATM    7  C1  UNL     1     -26.598   1.091  -5.939  1.00  0.00     0.234 C 
BRANCH   7   8
HETATM    8  N1  UNL     1     -27.441   0.212  -6.745  1.00  0.00    -0.079 N 
ATOM      9  H13 UNL     1     -28.155   0.717  -7.270  1.00  0.00     0.274 HD
ATOM     10  H12 UNL     1     -26.948  -0.189  -7.543  1.00  0.00     0.274 HD
ATOM     11  H11 UNL     1     -27.830  -0.494  -6.121  1.00  0.00     0.274 HD
ENDBRANCH   7   8
ENDBRANCH   3   7
ENDBRANCH   1   2
BRANCH   1  12
HETATM   12  N2  UNL     1     -22.848   0.124  -8.905  1.00  0.00    -0.073 N 
ATOM     13  H22 UNL     1     -22.326   0.416  -8.079  1.00  0.00     0.277 HD
ATOM     14  H21 UNL     1     -22.596  -0.865  -8.928  1.00  0.00     0.277 HD
BRANCH  12  15
HETATM   15  C8  UNL     1     -22.362   0.788 -10.061  1.00  0.00     0.262 C 
BRANCH  15  16
HETATM   16  C9  UNL     1     -21.348   1.850  -9.858  1.00  0.00     0.299 C 
BRANCH  16  17
HETATM   17  N3  UNL     1     -21.746   3.171  -9.666  1.00  0.00     0.090 N 
HETATM   18  C10 UNL     1     -20.524   4.003  -9.722  1.00  0.00     0.272 C 
HETATM   19  C11 UNL     1     -20.022   3.919  -8.258  1.00  0.00     0.032 C 
HETATM   20  C12 UNL     1     -21.249   3.473  -7.468  1.00  0.00     0.032 C 
HETATM   21  C13 UNL     1     -22.336   3.631  -8.490  1.00  0.00     0.272 C 
ENDBRANCH  16  17
ENDBRANCH  15  16
ENDBRANCH  12  15
ENDBRANCH   1  12
TORSDOF 7
ENDMDL
MODEL 5
REMARK VINA RESULT: -5.817268889      1.427      2.695
REMARK  7 active torsions:
REMARK  status: ('A' for Active; 'I' for Inactive)
REMARK    1  A    between atoms: N1_1  and  C1_5 
REMARK    2  A    between atoms: C1_5  and  C2_6 
REMARK    3  A    between atoms: C6_10  and  C7_11 
REMARK    4  A    between atoms: C7_11  and  N2_12 
REMARK    5  A    between atoms: N2_12  and  C8_15 
REMARK    6  A    between atoms: C8_15  and  C9_16 
REMARK    7  A    between atoms: C9_16  and  N3_17 
ROOT
HETATM    1  C7  UNL     1     -23.771  -0.309  -8.378  1.00  0.00     0.237 C 
ENDROOT
BRANCH   1   2
HETATM    2  C6  UNL     1     -23.977   1.074  -7.923  1.00  0.00     0.017 C 
HETATM    3  C2  UNL     1     -23.442   1.378  -6.547  1.00  0.00     0.017 C 
HETATM    4  C3  UNL     1     -24.650   1.481  -5.632  1.00  0.00     0.007 C 
HETATM    5  C4  UNL     1     -25.851   1.577  -6.495  1.00  0.00     0.001 C 
HETATM    6  C5  UNL     1     -25.356   1.610  -7.911  1.00  0.00     0.007 C 
BRANCH   3   7
HETATM    7  C1  UNL     1     -22.776   2.738  -6.520  1.00  0.00     0.234 C 
BRANCH   7   8
HETATM    8  N1  UNL     1     -21.805   2.769  -7.610  1.00  0.00    -0.079 N 
ATOM      9  H13 UNL     1     -21.164   1.975  -7.596  1.00  0.00     0.274 HD
ATOM     10  H12 UNL     1     -22.224   2.586  -8.522  1.00  0.00     0.274 HD
ATOM     11  H11 UNL     1     -21.325   3.668  -7.566  1.00  0.00     0.274 HD
ENDBRANCH   7   8
ENDBRANCH   3   7
ENDBRANCH   1   2
BRANCH   1  12
HETATM   12  N2  UNL     1     -22.478  -0.627  -8.902  1.00  0.00    -0.073 N 
ATOM     13  H22 UNL     1     -21.746  -0.252  -8.297  1.00  0.00     0.277 HD
ATOM     14  H21 UNL     1     -22.289  -1.625  -8.804  1.00  0.00     0.277 HD
BRANCH  12  15
HETATM   15  C8  UNL     1     -22.275  -0.211 -10.243  1.00  0.00     0.262 C 
BRANCH  15  16
HETATM   16  C9  UNL     1     -20.911   0.229 -10.620  1.00  0.00     0.299 C 
BRANCH  16  17
HETATM   17  N3  UNL     1     -20.566   1.576 -10.553  1.00  0.00     0.090 N 
HETATM   18  C10 UNL     1     -20.907   2.176 -11.862  1.00  0.00     0.272 C 
HETATM   19  C11 UNL     1     -19.630   1.869 -12.686  1.00  0.00     0.032 C 
HETATM   20  C12 UNL     1     -18.565   1.581 -11.633  1.00  0.00     0.032 C 
HETATM   21  C13 UNL     1     -19.258   2.026 -10.379  1.00  0.00     0.272 C 
ENDBRANCH  16  17
ENDBRANCH  15  16
ENDBRANCH  12  15
ENDBRANCH   1  12
TORSDOF 7
ENDMDL
