MODEL 1
REMARK VINA RESULT: -5.948532168      0.000      0.000
REMARK  6 active torsions:
REMARK  status: ('A' for Active; 'I' for Inactive)
REMARK    1  A    between atoms: N1_3  and  C4_5 
REMARK    2  A    between atoms: C4_5  and  C5_6 
REMARK    3  A    between atoms: C5_6  and  C6_7 
REMARK    4  A    between atoms: C6_7  and  C7_8 
REMARK    5  A    between atoms: C7_8  and  N2_9 
REMARK    6  A    between atoms: N2_9  and  C8_11 
ROOT
HETATM    1  C1  UNL     1     -21.150  -0.143 -10.640  1.00  0.00     0.037 C 
HETATM    2  C2  UNL     1     -20.367   0.766 -10.636  1.00  0.00    -0.004 C 
HETATM    3  N1  UNL     1     -19.450   1.803 -10.658  1.00  0.00    -0.347 N 
HETATM    4  C3  UNL     1     -18.402   1.838 -11.697  1.00  0.00     0.160 C 
ENDROOT
BRANCH   3   5
HETATM    5  C4  UNL     1     -19.405   2.895  -9.713  1.00  0.00     0.132 C 
BRANCH   5   6
HETATM    6  C5  UNL     1     -20.744   3.406  -9.328  1.00  0.00     0.025 C 
BRANCH   6   7
HETATM    7  C6  UNL     1     -20.838   3.706  -7.814  1.00  0.00     0.046 C 
BRANCH   7   8
HETATM    8  C7  UNL     1     -22.070   3.068  -7.281  1.00  0.00     0.056 C 
BRANCH   8   9
HETATM    9  N2  UNL     1     -22.652   1.978  -7.882  1.00  0.00    -0.392 N 
ATOM     10  H2  UNL     1     -22.240   1.678  -8.765  1.00  0.00     0.159 HD
BRANCH   9  11
HETATM   11  C8  UNL     1     -23.740   1.234  -7.426  1.00  0.00     0.041 C 
HETATM   12  C9  UNL     1     -23.803  -0.121  -8.059  1.00  0.00     0.040 C 
HETATM   13  C10 UNL     1     -23.531   1.053  -5.905  1.00  0.00     0.034 C 
HETATM   14  C11 UNL     1     -24.768   1.277  -5.117  1.00  0.00     0.022 C 
HETATM   15  C12 UNL     1     -25.968   0.561  -5.711  1.00  0.00     0.114 C 
HETATM   16  N3  UNL     1     -26.131   0.975  -7.068  1.00  0.00    -0.419 N 
HETATM   17  C13 UNL     1     -25.115   1.841  -7.588  1.00  0.00     0.144 C 
ATOM     18  H3  UNL     1     -26.924   0.673  -7.632  1.00  0.00     0.153 HD
ENDBRANCH   9  11
ENDBRANCH   8   9
ENDBRANCH   7   8
ENDBRANCH   6   7
ENDBRANCH   5   6
ENDBRANCH   3   5
TORSDOF 6
ENDMDL
MODEL 2
REMARK VINA RESULT: -5.939414559      1.056      1.770
REMARK  6 active torsions:
REMARK  status: ('A' for Active; 'I' for Inactive)
REMARK    1  A    between atoms: N1_3  and  C4_5 
REMARK    2  A    between atoms: C4_5  and  C5_6 
REMARK    3  A    between atoms: C5_6  and  C6_7 
REMARK    4  A    between atoms: C6_7  and  C7_8 
REMARK    5  A    between atoms: C7_8  and  N2_9 
REMARK    6  A    between atoms: N2_9  and  C8_11 
ROOT
HETATM    1  C1  UNL     1     -21.643  -0.339 -10.422  1.00  0.00     0.037 C 
HETATM    2  C2  UNL     1     -20.841   0.552 -10.466  1.00  0.00    -0.004 C 
HETATM    3  N1  UNL     1     -19.899   1.564 -10.540  1.00  0.00    -0.347 N 
HETATM    4  C3  UNL     1     -18.751   1.436 -11.458  1.00  0.00     0.160 C 
ENDROOT
BRANCH   3   5
HETATM    5  C4  UNL     1     -19.921   2.780  -9.761  1.00  0.00     0.132 C 
BRANCH   5   6
HETATM    6  C5  UNL     1     -21.235   3.062  -9.132  1.00  0.00     0.025 C 
BRANCH   6   7
HETATM    7  C6  UNL     1     -21.090   3.536  -7.668  1.00  0.00     0.046 C 
BRANCH   7   8
HETATM    8  C7  UNL     1     -22.194   2.946  -6.867  1.00  0.00     0.056 C 
BRANCH   8   9
HETATM    9  N2  UNL     1     -22.892   1.838  -7.282  1.00  0.00    -0.392 N 
ATOM     10  H2  UNL     1     -22.331   1.033  -7.562  1.00  0.00     0.159 HD
BRANCH   9  11
HETATM   11  C8  UNL     1     -24.275   1.683  -7.366  1.00  0.00     0.041 C 
HETATM   12  C9  UNL     1     -25.004   2.960  -7.089  1.00  0.00     0.040 C 
HETATM   13  C10 UNL     1     -24.572   1.257  -8.823  1.00  0.00     0.034 C 
HETATM   14  C11 UNL     1     -25.555   0.149  -8.915  1.00  0.00     0.022 C 
HETATM   15  C12 UNL     1     -26.768   0.377  -8.030  1.00  0.00     0.114 C 
HETATM   16  N3  UNL     1     -26.330   0.576  -6.686  1.00  0.00    -0.419 N 
HETATM   17  C13 UNL     1     -24.913   0.632  -6.486  1.00  0.00     0.144 C 
ATOM     18  H3  UNL     1     -26.988   0.672  -5.913  1.00  0.00     0.153 HD
ENDBRANCH   9  11
ENDBRANCH   8   9
ENDBRANCH   7   8
ENDBRANCH   6   7
ENDBRANCH   5   6
ENDBRANCH   3   5
TORSDOF 6
ENDMDL
MODEL 3
REMARK VINA RESULT: -5.939182732      1.976      6.026
REMARK  6 active torsions:
REMARK  status: ('A' for Active; 'I' for Inactive)
REMARK    1  A    between atoms: N1_3  and  C4_5 
REMARK    2  A    between atoms: C4_5  and  C5_6 
REMARK    3  A    between atoms: C5_6  and  C6_7 
REMARK    4  A    between atoms: C6_7  and  C7_8 
REMARK    5  A    between atoms: C7_8  and  N2_9 
REMARK    6  A    between atoms: N2_9  and  C8_11 
ROOT
HETATM    1  C1  UNL     1     -25.620   0.470  -8.975  1.00  0.00     0.037 C 
HETATM    2  C2  UNL     1     -26.224   0.482  -7.938  1.00  0.00    -0.004 C 
HETATM    3  N1  UNL     1     -26.947   0.485  -6.758  1.00  0.00    -0.347 N 
HETATM    4  C3  UNL     1     -28.373   0.107  -6.766  1.00  0.00     0.160 C 
ENDROOT
BRANCH   3   5
HETATM    5  C4  UNL     1     -26.424   0.854  -5.462  1.00  0.00     0.132 C 
BRANCH   5   6
HETATM    6  C5  UNL     1     -25.270   0.029  -5.028  1.00  0.00     0.025 C 
BRANCH   6   7
HETATM    7  C6  UNL     1     -24.072   0.897  -4.576  1.00  0.00     0.046 C 
BRANCH   7   8
HETATM    8  C7  UNL     1     -23.835   1.947  -5.599  1.00  0.00     0.056 C 
BRANCH   8   9
HETATM    9  N2  UNL     1     -22.820   1.859  -6.521  1.00  0.00    -0.392 N 
ATOM     10  H2  UNL     1     -22.156   1.097  -6.387  1.00  0.00     0.159 HD
BRANCH   9  11
HETATM   11  C8  UNL     1     -22.591   2.689  -7.619  1.00  0.00     0.041 C 
HETATM   12  C9  UNL     1     -23.723   3.639  -7.856  1.00  0.00     0.040 C 
HETATM   13  C10 UNL     1     -21.326   3.512  -7.278  1.00  0.00     0.034 C 
HETATM   14  C11 UNL     1     -20.371   3.605  -8.410  1.00  0.00     0.022 C 
HETATM   15  C12 UNL     1     -21.058   3.956  -9.718  1.00  0.00     0.114 C 
HETATM   16  N3  UNL     1     -22.082   2.994  -9.976  1.00  0.00    -0.419 N 
HETATM   17  C13 UNL     1     -22.310   2.025  -8.947  1.00  0.00     0.144 C 
ATOM     18  H3  UNL     1     -22.618   2.998 -10.843  1.00  0.00     0.153 HD
ENDBRANCH   9  11
ENDBRANCH   8   9
ENDBRANCH   7   8
ENDBRANCH   6   7
ENDBRANCH   5   6
ENDBRANCH   3   5
TORSDOF 6
ENDMDL
MODEL 4
REMARK VINA RESULT: -5.928736195      0.792      1.596
REMARK  6 active torsions:
REMARK  status: ('A' for Active; 'I' for Inactive)
REMARK    1  A    between atoms: N1_3  and  C4_5 
REMARK    2  A    between atoms: C4_5  and  C5_6 
REMARK    3  A    between atoms: C5_6  and  C6_7 
REMARK    4  A    between atoms: C6_7  and  C7_8 
REMARK    5  A    between atoms: C7_8  and  N2_9 
REMARK    6  A    between atoms: N2_9  and  C8_11 
ROOT
HETATM    1  C1  UNL     1     -17.965   2.312 -12.196  1.00  0.00     0.037 C 
HETATM    2  C2  UNL     1     -18.885   1.996 -11.494  1.00  0.00    -0.004 C 
HETATM    3  N1  UNL     1     -19.943   1.601 -10.694  1.00  0.00    -0.347 N 
HETATM    4  C3  UNL     1     -20.384   0.193 -10.699  1.00  0.00     0.160 C 
ENDROOT
BRANCH   3   5
HETATM    5  C4  UNL     1     -20.703   2.473  -9.829  1.00  0.00     0.132 C 
BRANCH   5   6
HETATM    6  C5  UNL     1     -19.868   3.442  -9.076  1.00  0.00     0.025 C 
BRANCH   6   7
HETATM    7  C6  UNL     1     -20.497   3.815  -7.714  1.00  0.00     0.046 C 
BRANCH   7   8
HETATM    8  C7  UNL     1     -21.901   3.330  -7.691  1.00  0.00     0.056 C 
BRANCH   8   9
HETATM    9  N2  UNL     1     -22.382   2.520  -6.691  1.00  0.00    -0.392 N 
ATOM     10  H2  UNL     1     -21.830   2.487  -5.834  1.00  0.00     0.159 HD
BRANCH   9  11
HETATM   11  C8  UNL     1     -23.536   1.737  -6.710  1.00  0.00     0.041 C 
HETATM   12  C9  UNL     1     -23.652   0.931  -7.965  1.00  0.00     0.040 C 
HETATM   13  C10 UNL     1     -23.414   0.763  -5.514  1.00  0.00     0.034 C 
HETATM   14  C11 UNL     1     -24.672   0.634  -4.738  1.00  0.00     0.022 C 
HETATM   15  C12 UNL     1     -25.884   0.438  -5.632  1.00  0.00     0.114 C 
HETATM   16  N3  UNL     1     -25.953   1.518  -6.563  1.00  0.00    -0.419 N 
HETATM   17  C13 UNL     1     -24.861   2.444  -6.537  1.00  0.00     0.144 C 
ATOM     18  H3  UNL     1     -26.735   1.624  -7.209  1.00  0.00     0.153 HD
ENDBRANCH   9  11
ENDBRANCH   8   9
ENDBRANCH   7   8
ENDBRANCH   6   7
ENDBRANCH   5   6
ENDBRANCH   3   5
TORSDOF 6
ENDMDL
MODEL 5
REMARK VINA RESULT: -5.889916913      1.092      1.807
REMARK  6 active torsions:
REMARK  status: ('A' for Active; 'I' for Inactive)
REMARK    1  A    between atoms: N1_3  and  C4_5 
REMARK    2  A    between atoms: C4_5  and  C5_6 
REMARK    3  A    between atoms: C5_6  and  C6_7 
REMARK    4  A    between atoms: C6_7  and  C7_8 
REMARK    5  A    between atoms: C7_8  and  N2_9 
REMARK    6  A    between atoms: N2_9  and  C8_11 
ROOT
HETATM    1  C1  UNL     1     -18.060   1.921 -11.862  1.00  0.00     0.037 C 
HETATM    2  C2  UNL     1     -18.970   2.088 -11.098  1.00  0.00    -0.004 C 
HETATM    3  N1  UNL     1     -20.036   2.256 -10.231  1.00  0.00    -0.347 N 
HETATM    4  C3  UNL     1     -21.224   1.389 -10.347  1.00  0.00     0.160 C 
ENDROOT
BRANCH   3   5
HETATM    5  C4  UNL     1     -20.110   3.251  -9.186  1.00  0.00     0.132 C 
BRANCH   5   6
HETATM    6  C5  UNL     1     -21.472   3.425  -8.624  1.00  0.00     0.025 C 
BRANCH   6   7
HETATM    7  C6  UNL     1     -21.466   3.435  -7.077  1.00  0.00     0.046 C 
BRANCH   7   8
HETATM    8  C7  UNL     1     -22.653   2.685  -6.594  1.00  0.00     0.056 C 
BRANCH   8   9
HETATM    9  N2  UNL     1     -22.864   1.363  -6.903  1.00  0.00    -0.392 N 
ATOM     10  H2  UNL     1     -22.089   0.729  -6.711  1.00  0.00     0.159 HD
BRANCH   9  11
HETATM   11  C8  UNL     1     -24.011   0.787  -7.447  1.00  0.00     0.041 C 
HETATM   12  C9  UNL     1     -23.716  -0.495  -8.161  1.00  0.00     0.040 C 
HETATM   13  C10 UNL     1     -24.944   0.477  -6.254  1.00  0.00     0.034 C 
HETATM   14  C11 UNL     1     -26.356   0.857  -6.506  1.00  0.00     0.022 C 
HETATM   15  C12 UNL     1     -26.845   0.393  -7.867  1.00  0.00     0.114 C 
HETATM   16  N3  UNL     1     -25.976   0.915  -8.873  1.00  0.00    -0.419 N 
HETATM   17  C13 UNL     1     -24.825   1.627  -8.405  1.00  0.00     0.144 C 
ATOM     18  H3  UNL     1     -26.165   0.788  -9.867  1.00  0.00     0.153 HD
ENDBRANCH   9  11
ENDBRANCH   8   9
ENDBRANCH   7   8
ENDBRANCH   6   7
ENDBRANCH   5   6
ENDBRANCH   3   5
TORSDOF 6
ENDMDL
