MODEL 1
REMARK VINA RESULT: -8.124624426      0.000      0.000
REMARK  5 active torsions:
REMARK  status: ('A' for Active; 'I' for Inactive)
REMARK    1  A    between atoms: C4_5  and  N2_6 
REMARK    2  A    between atoms: C6_8  and  C7_9 
REMARK    3  A    between atoms: C7_9  and  C8_10 
REMARK    4  A    between atoms: C8_10  and  C9_11 
REMARK    5  A    between atoms: C9_11  and  N3_12 
ROOT
HETATM    1  N1  UNL     1      -7.422  14.828  22.607  1.00  0.00    -0.196 NA
HETATM    2  C1  UNL     1      -7.494  14.839  21.432  1.00  0.00     0.077 C 
HETATM    3  C2  UNL     1      -7.575  14.820  19.953  1.00  0.00     0.208 A 
HETATM    4  C3  UNL     1      -6.893  16.016  19.450  1.00  0.00     0.054 A 
HETATM    5  C4  UNL     1      -7.337  17.220  19.646  1.00  0.00     0.142 C 
HETATM    6  N5  UNL     1      -5.692  15.886  18.679  1.00  0.00    -0.331 N 
ATOM      7  H5  UNL     1      -5.186  16.734  18.419  1.00  0.00     0.168 HD
HETATM    8  C11 UNL     1      -5.222  14.749  18.299  1.00  0.00     0.193 A 
HETATM    9  N6  UNL     1      -4.026  14.664  17.529  1.00  0.00    -0.063 NA
HETATM   10  N7  UNL     1      -5.920  13.600  18.724  1.00  0.00    -0.321 N 
ATOM     11  H7  UNL     1      -5.546  12.703  18.414  1.00  0.00     0.169 HD
HETATM   12  C12 UNL     1      -6.960  13.554  19.448  1.00  0.00     0.119 A 
HETATM   13  N8  UNL     1      -7.608  12.333  19.828  1.00  0.00    -0.086 NA
ENDROOT
BRANCH   5  14
HETATM   14  N2  UNL     1      -8.521  17.492  20.361  1.00  0.00    -0.277 N 
HETATM   15  C5  UNL     1      -9.409  16.515  20.724  1.00  0.00     0.124 A 
HETATM   16  C6  UNL     1     -10.448  17.092  21.416  1.00  0.00    -0.024 A 
HETATM   17  C10 UNL     1     -10.181  18.439  21.468  1.00  0.00     0.116 A 
HETATM   18  N4  UNL     1      -8.998  18.631  20.813  1.00  0.00    -0.306 N 
ATOM     19  H4  UNL     1      -8.544  19.536  20.690  1.00  0.00     0.186 HD
BRANCH  16  20
HETATM   20  C7  UNL     1     -11.606  16.359  21.973  1.00  0.00     0.043 C 
BRANCH  20  21
HETATM   21  C8  UNL     1     -11.154  14.987  22.437  1.00  0.00     0.032 C 
BRANCH  21  22
HETATM   22  C9  UNL     1     -11.267  13.984  21.282  1.00  0.00     0.230 C 
BRANCH  22  23
HETATM   23  N3  UNL     1     -10.506  12.801  21.580  1.00  0.00    -0.079 N 
ATOM     24  H33 UNL     1      -9.796  12.614  20.871  1.00  0.00     0.274 HD
ATOM     25  H32 UNL     1      -9.887  12.936  22.379  1.00  0.00     0.274 HD
ATOM     26  H31 UNL     1     -11.132  12.006  21.712  1.00  0.00     0.274 HD
ENDBRANCH  22  23
ENDBRANCH  21  22
ENDBRANCH  20  21
ENDBRANCH  16  20
ENDBRANCH   5  14
TORSDOF 5
ENDMDL
MODEL 2
REMARK VINA RESULT: -7.895306621      1.312      3.559
REMARK  5 active torsions:
REMARK  status: ('A' for Active; 'I' for Inactive)
REMARK    1  A    between atoms: C4_5  and  N2_6 
REMARK    2  A    between atoms: C6_8  and  C7_9 
REMARK    3  A    between atoms: C7_9  and  C8_10 
REMARK    4  A    between atoms: C8_10  and  C9_11 
REMARK    5  A    between atoms: C9_11  and  N3_12 
ROOT
HETATM    1  N1  UNL     1      -9.979  16.314  18.853  1.00  0.00    -0.196 NA
HETATM    2  C1  UNL     1      -8.966  16.026  19.380  1.00  0.00     0.077 C 
HETATM    3  C2  UNL     1      -7.678  15.695  20.031  1.00  0.00     0.208 A 
HETATM    4  C3  UNL     1      -7.329  14.319  19.665  1.00  0.00     0.054 A 
HETATM    5  C4  UNL     1      -8.010  13.286  20.060  1.00  0.00     0.142 C 
HETATM    6  N5  UNL     1      -6.174  14.063  18.856  1.00  0.00    -0.331 N 
ATOM      7  H5  UNL     1      -6.005  13.108  18.538  1.00  0.00     0.168 HD
HETATM    8  C11 UNL     1      -5.341  14.982  18.513  1.00  0.00     0.193 A 
HETATM    9  N6  UNL     1      -4.201  14.684  17.711  1.00  0.00    -0.063 NA
HETATM   10  N7  UNL     1      -5.639  16.297  18.927  1.00  0.00    -0.321 N 
ATOM     11  H7  UNL     1      -4.971  17.019  18.657  1.00  0.00     0.169 HD
HETATM   12  C12 UNL     1      -6.643  16.683  19.597  1.00  0.00     0.119 A 
HETATM   13  N8  UNL     1      -6.864  18.047  19.980  1.00  0.00    -0.086 NA
ENDROOT
BRANCH   5  14
HETATM   14  N2  UNL     1      -9.150  13.390  20.882  1.00  0.00    -0.277 N 
HETATM   15  C5  UNL     1      -9.449  14.521  21.595  1.00  0.00     0.124 A 
HETATM   16  C6  UNL     1     -10.622  14.315  22.284  1.00  0.00    -0.024 A 
HETATM   17  C10 UNL     1     -11.033  13.039  21.981  1.00  0.00     0.116 A 
HETATM   18  N4  UNL     1     -10.104  12.519  21.125  1.00  0.00    -0.306 N 
ATOM     19  H4  UNL     1     -10.145  11.581  20.727  1.00  0.00     0.186 HD
BRANCH  16  20
HETATM   20  C7  UNL     1     -11.271  15.308  23.168  1.00  0.00     0.043 C 
BRANCH  20  21
HETATM   21  C8  UNL     1     -11.918  16.386  22.318  1.00  0.00     0.032 C 
BRANCH  21  22
HETATM   22  C9  UNL     1     -11.196  17.722  22.534  1.00  0.00     0.230 C 
BRANCH  22  23
HETATM   23  N3  UNL     1     -10.497  18.103  21.336  1.00  0.00    -0.079 N 
ATOM     24  H33 UNL     1      -9.947  18.952  21.469  1.00  0.00     0.274 HD
ATOM     25  H32 UNL     1      -9.734  17.462  21.119  1.00  0.00     0.274 HD
ATOM     26  H31 UNL     1     -11.154  18.191  20.561  1.00  0.00     0.274 HD
ENDBRANCH  22  23
ENDBRANCH  21  22
ENDBRANCH  20  21
ENDBRANCH  16  20
ENDBRANCH   5  14
TORSDOF 5
ENDMDL
MODEL 3
REMARK VINA RESULT: -7.012712867      1.932      3.861
REMARK  5 active torsions:
REMARK  status: ('A' for Active; 'I' for Inactive)
REMARK    1  A    between atoms: C4_5  and  N2_6 
REMARK    2  A    between atoms: C6_8  and  C7_9 
REMARK    3  A    between atoms: C7_9  and  C8_10 
REMARK    4  A    between atoms: C8_10  and  C9_11 
REMARK    5  A    between atoms: C9_11  and  N3_12 
ROOT
HETATM    1  N1  UNL     1      -8.099  14.469  23.627  1.00  0.00    -0.196 NA
HETATM    2  C1  UNL     1      -8.536  14.339  22.541  1.00  0.00     0.077 C 
HETATM    3  C2  UNL     1      -9.113  14.157  21.189  1.00  0.00     0.208 A 
HETATM    4  C3  UNL     1      -8.029  13.753  20.288  1.00  0.00     0.054 A 
HETATM    5  C4  UNL     1      -7.045  14.538  19.969  1.00  0.00     0.142 C 
HETATM    6  N5  UNL     1      -8.037  12.450  19.695  1.00  0.00    -0.331 N 
ATOM      7  H5  UNL     1      -7.227  12.159  19.146  1.00  0.00     0.168 HD
HETATM    8  C11 UNL     1      -9.020  11.628  19.821  1.00  0.00     0.193 A 
HETATM    9  N6  UNL     1      -8.991  10.341  19.209  1.00  0.00    -0.063 NA
HETATM   10  N7  UNL     1     -10.097  12.046  20.631  1.00  0.00    -0.321 N 
ATOM     11  H7  UNL     1     -10.875  11.392  20.721  1.00  0.00     0.169 HD
HETATM   12  C12 UNL     1     -10.208  13.141  21.259  1.00  0.00     0.119 A 
HETATM   13  N8  UNL     1     -11.347  13.485  22.058  1.00  0.00    -0.086 NA
ENDROOT
BRANCH   5  14
HETATM   14  N2  UNL     1      -6.926  15.855  20.456  1.00  0.00    -0.277 N 
HETATM   15  C5  UNL     1      -7.836  16.837  20.167  1.00  0.00     0.124 A 
HETATM   16  C6  UNL     1      -7.452  17.999  20.795  1.00  0.00    -0.024 A 
HETATM   17  C10 UNL     1      -6.291  17.710  21.472  1.00  0.00     0.116 A 
HETATM   18  N4  UNL     1      -6.014  16.394  21.234  1.00  0.00    -0.306 N 
ATOM     19  H4  UNL     1      -5.208  15.895  21.610  1.00  0.00     0.186 HD
BRANCH  16  20
HETATM   20  C7  UNL     1      -8.182  19.283  20.722  1.00  0.00     0.043 C 
BRANCH  20  21
HETATM   21  C8  UNL     1      -9.596  19.085  21.237  1.00  0.00     0.032 C 
BRANCH  21  22
HETATM   22  C9  UNL     1     -10.074  17.664  20.913  1.00  0.00     0.230 C 
BRANCH  22  23
HETATM   23  N3  UNL     1     -11.157  17.298  21.785  1.00  0.00    -0.079 N 
ATOM     24  H33 UNL     1     -10.845  16.699  22.550  1.00  0.00     0.274 HD
ATOM     25  H32 UNL     1     -11.486  18.089  22.339  1.00  0.00     0.274 HD
ATOM     26  H31 UNL     1     -11.909  16.869  21.246  1.00  0.00     0.274 HD
ENDBRANCH  22  23
ENDBRANCH  21  22
ENDBRANCH  20  21
ENDBRANCH  16  20
ENDBRANCH   5  14
TORSDOF 5
ENDMDL
MODEL 4
REMARK VINA RESULT: -6.714633121      1.749      4.502
REMARK  5 active torsions:
REMARK  status: ('A' for Active; 'I' for Inactive)
REMARK    1  A    between atoms: C4_5  and  N2_6 
REMARK    2  A    between atoms: C6_8  and  C7_9 
REMARK    3  A    between atoms: C7_9  and  C8_10 
REMARK    4  A    between atoms: C8_10  and  C9_11 
REMARK    5  A    between atoms: C9_11  and  N3_12 
ROOT
HETATM    1  N1  UNL     1      -7.482  14.856  22.999  1.00  0.00    -0.196 NA
HETATM    2  C1  UNL     1      -7.740  15.483  22.036  1.00  0.00     0.077 C 
HETATM    3  C2  UNL     1      -8.030  16.284  20.825  1.00  0.00     0.208 A 
HETATM    4  C3  UNL     1      -9.290  16.999  21.050  1.00  0.00     0.054 A 
HETATM    5  C4  UNL     1     -10.436  16.398  21.156  1.00  0.00     0.142 C 
HETATM    6  N5  UNL     1      -9.299  18.429  21.134  1.00  0.00    -0.331 N 
ATOM      7  H5  UNL     1     -10.171  18.897  21.383  1.00  0.00     0.168 HD
HETATM    8  C11 UNL     1      -8.256  19.151  20.911  1.00  0.00     0.193 A 
HETATM    9  N6  UNL     1      -8.308  20.572  21.001  1.00  0.00    -0.063 NA
HETATM   10  N7  UNL     1      -7.058  18.464  20.624  1.00  0.00    -0.321 N 
ATOM     11  H7  UNL     1      -6.237  19.042  20.441  1.00  0.00     0.169 HD
HETATM   12  C12 UNL     1      -6.885  17.210  20.566  1.00  0.00     0.119 A 
HETATM   13  N8  UNL     1      -5.625  16.596  20.260  1.00  0.00    -0.086 NA
ENDROOT
BRANCH   5  14
HETATM   14  N2  UNL     1     -10.578  14.999  21.064  1.00  0.00    -0.277 N 
HETATM   15  C5  UNL     1     -10.162  14.282  19.973  1.00  0.00     0.124 A 
HETATM   16  C6  UNL     1     -10.426  12.949  20.189  1.00  0.00    -0.024 A 
HETATM   17  C10 UNL     1     -11.012  12.864  21.430  1.00  0.00     0.116 A 
HETATM   18  N4  UNL     1     -11.081  14.137  21.920  1.00  0.00    -0.306 N 
ATOM     19  H4  UNL     1     -11.471  14.387  22.829  1.00  0.00     0.186 HD
BRANCH  16  20
HETATM   20  C7  UNL     1     -10.120  11.859  19.237  1.00  0.00     0.043 C 
BRANCH  20  21
HETATM   21  C8  UNL     1      -8.853  11.151  19.679  1.00  0.00     0.032 C 
BRANCH  21  22
HETATM   22  C9  UNL     1      -7.775  12.183  20.031  1.00  0.00     0.230 C 
BRANCH  22  23
HETATM   23  N3  UNL     1      -6.966  12.465  18.876  1.00  0.00    -0.079 N 
ATOM     24  H33 UNL     1      -6.007  12.702  19.131  1.00  0.00     0.274 HD
ATOM     25  H32 UNL     1      -6.773  11.625  18.331  1.00  0.00     0.274 HD
ATOM     26  H31 UNL     1      -7.403  13.195  18.313  1.00  0.00     0.274 HD
ENDBRANCH  22  23
ENDBRANCH  21  22
ENDBRANCH  20  21
ENDBRANCH  16  20
ENDBRANCH   5  14
TORSDOF 5
ENDMDL
MODEL 5
REMARK VINA RESULT: -6.473887100      2.152      3.726
REMARK  5 active torsions:
REMARK  status: ('A' for Active; 'I' for Inactive)
REMARK    1  A    between atoms: C4_5  and  N2_6 
REMARK    2  A    between atoms: C6_8  and  C7_9 
REMARK    3  A    between atoms: C7_9  and  C8_10 
REMARK    4  A    between atoms: C8_10  and  C9_11 
REMARK    5  A    between atoms: C9_11  and  N3_12 
ROOT
HETATM    1  N1  UNL     1     -10.072  16.261  19.187  1.00  0.00    -0.196 NA
HETATM    2  C1  UNL     1      -9.011  16.010  19.630  1.00  0.00     0.077 C 
HETATM    3  C2  UNL     1      -7.664  15.724  20.176  1.00  0.00     0.208 A 
HETATM    4  C3  UNL     1      -7.324  14.340  19.831  1.00  0.00     0.054 A 
HETATM    5  C4  UNL     1      -7.947  13.313  20.324  1.00  0.00     0.142 C 
HETATM    6  N5  UNL     1      -6.241  14.070  18.933  1.00  0.00    -0.331 N 
ATOM      7  H5  UNL     1      -6.083  13.106  18.637  1.00  0.00     0.168 HD
HETATM    8  C11 UNL     1      -5.459  14.988  18.482  1.00  0.00     0.193 A 
HETATM    9  N6  UNL     1      -4.390  14.676  17.593  1.00  0.00    -0.063 NA
HETATM   10  N7  UNL     1      -5.744  16.313  18.871  1.00  0.00    -0.321 N 
ATOM     11  H7  UNL     1      -5.116  17.034  18.515  1.00  0.00     0.169 HD
HETATM   12  C12 UNL     1      -6.691  16.710  19.614  1.00  0.00     0.119 A 
HETATM   13  N8  UNL     1      -6.902  18.085  19.963  1.00  0.00    -0.086 NA
ENDROOT
BRANCH   5  14
HETATM   14  N2  UNL     1      -9.011  13.432  21.241  1.00  0.00    -0.277 N 
HETATM   15  C5  UNL     1     -10.149  12.675  21.158  1.00  0.00     0.124 A 
HETATM   16  C6  UNL     1     -10.986  13.013  22.196  1.00  0.00    -0.024 A 
HETATM   17  C10 UNL     1     -10.340  13.992  22.914  1.00  0.00     0.116 A 
HETATM   18  N4  UNL     1      -9.144  14.210  22.293  1.00  0.00    -0.306 N 
ATOM     19  H4  UNL     1      -8.446  14.886  22.603  1.00  0.00     0.186 HD
BRANCH  16  20
HETATM   20  C7  UNL     1     -12.314  12.411  22.445  1.00  0.00     0.043 C 
BRANCH  20  21
HETATM   21  C8  UNL     1     -12.136  11.088  23.167  1.00  0.00     0.032 C 
BRANCH  21  22
HETATM   22  C9  UNL     1     -13.507  10.511  23.541  1.00  0.00     0.230 C 
BRANCH  22  23
HETATM   23  N3  UNL     1     -13.574   9.122  23.172  1.00  0.00    -0.079 N 
ATOM     24  H33 UNL     1     -12.655   8.742  22.946  1.00  0.00     0.274 HD
ATOM     25  H32 UNL     1     -13.790   8.525  23.970  1.00  0.00     0.274 HD
ATOM     26  H31 UNL     1     -14.239   8.995  22.409  1.00  0.00     0.274 HD
ENDBRANCH  22  23
ENDBRANCH  21  22
ENDBRANCH  20  21
ENDBRANCH  16  20
ENDBRANCH   5  14
TORSDOF 5
ENDMDL
