MODEL 1
REMARK VINA RESULT: -5.442382762      0.000      0.000
REMARK  4 active torsions:
REMARK  status: ('A' for Active; 'I' for Inactive)
REMARK    1  A    between atoms: S1_2  and  N1_5 
REMARK    2  A    between atoms: N1_5  and  C2_7 
REMARK    3  A    between atoms: C4_11  and  C5_12 
REMARK    4  A    between atoms: C5_12  and  C6_13 
ROOT
HETATM    1  C2  UNL     1      -7.403  13.018  19.591  1.00  0.00     0.691 A 
HETATM    2  N2  UNL     1      -7.830  13.564  20.754  1.00  0.00    -0.201 N 
ATOM      3  H2  UNL     1      -8.485  13.040  21.333  1.00  0.00     0.183 HD
HETATM    4  C3  UNL     1      -7.420  14.767  21.169  1.00  0.00     0.115 A 
HETATM    5  C4  UNL     1      -6.543  15.483  20.407  1.00  0.00    -0.019 A 
HETATM    6  C8  UNL     1      -6.123  14.911  19.232  1.00  0.00     0.115 A 
HETATM    7  N6  UNL     1      -6.544  13.694  18.824  1.00  0.00    -0.201 N 
ATOM      8  H6  UNL     1      -6.211  13.298  17.945  1.00  0.00     0.183 HD
ENDROOT
BRANCH   5   9
HETATM    9  C5  UNL     1      -6.078  16.793  20.826  1.00  0.00     0.119 C 
BRANCH   9  10
HETATM   10  C6  UNL     1      -7.148  17.807  20.924  1.00  0.00     0.104 A 
HETATM   11  N3  UNL     1      -8.455  17.540  21.058  1.00  0.00    -0.295 N 
HETATM   12  C7  UNL     1      -9.143  18.704  21.118  1.00  0.00     0.340 A 
ATOM     13  H3  UNL     1      -8.865  16.607  21.107  1.00  0.00     0.172 HD
HETATM   14  O3  UNL     1     -10.391  18.836  21.242  1.00  0.00    -0.245 OA
HETATM   15  N4  UNL     1      -8.219  19.676  21.016  1.00  0.00    -0.250 N 
HETATM   16  N5  UNL     1      -7.017  19.140  20.900  1.00  0.00    -0.285 N 
ATOM     17  H4  UNL     1      -8.416  20.677  21.027  1.00  0.00     0.192 HD
ATOM     18  H5  UNL     1      -6.141  19.653  20.807  1.00  0.00     0.188 HD
ENDBRANCH   9  10
ENDBRANCH   5   9
BRANCH   1  19
HETATM   19  N1  UNL     1      -7.847  11.850  19.264  1.00  0.00    -0.117 N 
ATOM     20  H1  UNL     1      -7.205  11.177  18.845  1.00  0.00     0.197 HD
BRANCH  19  21
HETATM   21  S1  UNL     1      -9.475  11.397  19.512  1.00  0.00     0.240 S 
HETATM   22  C1  UNL     1     -10.586  12.696  18.995  1.00  0.00     0.186 C 
HETATM   23  O1  UNL     1      -9.765  10.163  18.703  1.00  0.00    -0.206 OA
HETATM   24  O2  UNL     1      -9.697  11.165  20.986  1.00  0.00    -0.206 OA
ENDBRANCH  19  21
ENDBRANCH   1  19
TORSDOF 4
ENDMDL
MODEL 2
REMARK VINA RESULT: -5.282616722      2.705      6.522
REMARK  4 active torsions:
REMARK  status: ('A' for Active; 'I' for Inactive)
REMARK    1  A    between atoms: S1_2  and  N1_5 
REMARK    2  A    between atoms: N1_5  and  C2_7 
REMARK    3  A    between atoms: C4_11  and  C5_12 
REMARK    4  A    between atoms: C5_12  and  C6_13 
ROOT
HETATM    1  C2  UNL     1      -7.196  15.881  21.304  1.00  0.00     0.691 A 
HETATM    2  N2  UNL     1      -6.595  15.317  20.230  1.00  0.00    -0.201 N 
ATOM      3  H2  UNL     1      -5.972  15.887  19.659  1.00  0.00     0.183 HD
HETATM    4  C3  UNL     1      -6.791  14.038  19.893  1.00  0.00     0.115 A 
HETATM    5  C4  UNL     1      -7.623  13.261  20.645  1.00  0.00    -0.019 A 
HETATM    6  C8  UNL     1      -8.222  13.852  21.730  1.00  0.00     0.115 A 
HETATM    7  N6  UNL     1      -8.015  15.145  22.060  1.00  0.00    -0.201 N 
ATOM      8  H6  UNL     1      -8.476  15.553  22.873  1.00  0.00     0.183 HD
ENDROOT
BRANCH   5   9
HETATM    9  C5  UNL     1      -7.861  11.869  20.308  1.00  0.00     0.119 C 
BRANCH   9  10
HETATM   10  C6  UNL     1      -9.058  11.650  19.470  1.00  0.00     0.104 A 
HETATM   11  N3  UNL     1      -9.469  10.462  19.007  1.00  0.00    -0.295 N 
HETATM   12  C7  UNL     1     -10.597  10.634  18.278  1.00  0.00     0.340 A 
ATOM     13  H3  UNL     1      -9.005   9.569  19.176  1.00  0.00     0.172 HD
HETATM   14  O3  UNL     1     -11.259   9.736  17.691  1.00  0.00    -0.245 OA
HETATM   15  N4  UNL     1     -10.853  11.954  18.315  1.00  0.00    -0.250 N 
HETATM   16  N5  UNL     1      -9.929  12.569  19.032  1.00  0.00    -0.285 N 
ATOM     17  H4  UNL     1     -11.642  12.412  17.859  1.00  0.00     0.192 HD
ATOM     18  H5  UNL     1      -9.887  13.570  19.220  1.00  0.00     0.188 HD
ENDBRANCH   9  10
ENDBRANCH   5   9
BRANCH   1  19
HETATM   19  N1  UNL     1      -6.951  17.122  21.561  1.00  0.00    -0.117 N 
ATOM     20  H1  UNL     1      -6.367  17.356  22.364  1.00  0.00     0.197 HD
BRANCH  19  21
HETATM   21  S1  UNL     1      -7.575  18.388  20.596  1.00  0.00     0.240 S 
HETATM   22  C1  UNL     1      -9.299  18.678  20.960  1.00  0.00     0.186 C 
HETATM   23  O1  UNL     1      -6.803  19.645  20.885  1.00  0.00    -0.206 OA
HETATM   24  O2  UNL     1      -7.473  17.989  19.145  1.00  0.00    -0.206 OA
ENDBRANCH  19  21
ENDBRANCH   1  19
TORSDOF 4
ENDMDL
MODEL 3
REMARK VINA RESULT: -4.669591691      3.108      4.751
REMARK  4 active torsions:
REMARK  status: ('A' for Active; 'I' for Inactive)
REMARK    1  A    between atoms: S1_2  and  N1_5 
REMARK    2  A    between atoms: N1_5  and  C2_7 
REMARK    3  A    between atoms: C4_11  and  C5_12 
REMARK    4  A    between atoms: C5_12  and  C6_13 
ROOT
HETATM    1  C2  UNL     1      -9.506  15.215  21.489  1.00  0.00     0.691 A 
HETATM    2  N2  UNL     1      -9.638  15.680  20.224  1.00  0.00    -0.201 N 
ATOM      3  H2  UNL     1     -10.552  15.633  19.775  1.00  0.00     0.183 HD
HETATM    4  C3  UNL     1      -8.610  16.199  19.544  1.00  0.00     0.115 A 
HETATM    5  C4  UNL     1      -7.379  16.269  20.129  1.00  0.00    -0.019 A 
HETATM    6  C8  UNL     1      -7.267  15.792  21.411  1.00  0.00     0.115 A 
HETATM    7  N6  UNL     1      -8.313  15.271  22.088  1.00  0.00    -0.201 N 
ATOM      8  H6  UNL     1      -8.195  14.926  23.040  1.00  0.00     0.183 HD
ENDROOT
BRANCH   5   9
HETATM    9  C5  UNL     1      -6.241  16.825  19.420  1.00  0.00     0.119 C 
BRANCH   9  10
HETATM   10  C6  UNL     1      -5.421  15.817  18.718  1.00  0.00     0.104 A 
HETATM   11  N3  UNL     1      -4.083  15.825  18.645  1.00  0.00    -0.295 N 
HETATM   12  C7  UNL     1      -3.669  14.755  17.927  1.00  0.00     0.340 A 
ATOM     13  H3  UNL     1      -3.472  16.527  19.064  1.00  0.00     0.172 HD
HETATM   14  O3  UNL     1      -2.478  14.444  17.655  1.00  0.00    -0.245 OA
HETATM   15  N4  UNL     1      -4.791  14.104  17.570  1.00  0.00    -0.250 N 
HETATM   16  N5  UNL     1      -5.847  14.740  18.044  1.00  0.00    -0.285 N 
ATOM     17  H4  UNL     1      -4.822  13.248  17.016  1.00  0.00     0.192 HD
ATOM     18  H5  UNL     1      -6.819  14.459  17.919  1.00  0.00     0.188 HD
ENDBRANCH   9  10
ENDBRANCH   5   9
BRANCH   1  19
HETATM   19  N1  UNL     1     -10.549  14.730  22.075  1.00  0.00    -0.117 N 
ATOM     20  H1  UNL     1     -10.955  15.237  22.861  1.00  0.00     0.197 HD
BRANCH  19  21
HETATM   21  S1  UNL     1     -11.273  13.266  21.573  1.00  0.00     0.240 S 
HETATM   22  C1  UNL     1     -10.039  12.098  21.024  1.00  0.00     0.186 C 
HETATM   23  O1  UNL     1     -12.019  12.669  22.734  1.00  0.00    -0.206 OA
HETATM   24  O2  UNL     1     -12.187  13.550  20.406  1.00  0.00    -0.206 OA
ENDBRANCH  19  21
ENDBRANCH   1  19
TORSDOF 4
ENDMDL
MODEL 4
REMARK VINA RESULT: -4.609744886      3.135      4.701
REMARK  4 active torsions:
REMARK  status: ('A' for Active; 'I' for Inactive)
REMARK    1  A    between atoms: S1_2  and  N1_5 
REMARK    2  A    between atoms: N1_5  and  C2_7 
REMARK    3  A    between atoms: C4_11  and  C5_12 
REMARK    4  A    between atoms: C5_12  and  C6_13 
ROOT
HETATM    1  C2  UNL     1      -9.478  15.064  21.591  1.00  0.00     0.691 A 
HETATM    2  N2  UNL     1      -9.610  15.395  20.285  1.00  0.00    -0.201 N 
ATOM      3  H2  UNL     1     -10.502  15.223  19.821  1.00  0.00     0.183 HD
HETATM    4  C3  UNL     1      -8.611  15.941  19.583  1.00  0.00     0.115 A 
HETATM    5  C4  UNL     1      -7.411  16.177  20.187  1.00  0.00    -0.019 A 
HETATM    6  C8  UNL     1      -7.298  15.834  21.512  1.00  0.00     0.115 A 
HETATM    7  N6  UNL     1      -8.315  15.284  22.210  1.00  0.00    -0.201 N 
ATOM      8  H6  UNL     1      -8.197  15.041  23.193  1.00  0.00     0.183 HD
ENDROOT
BRANCH   5   9
HETATM    9  C5  UNL     1      -6.304  16.767  19.456  1.00  0.00     0.119 C 
BRANCH   9  10
HETATM   10  C6  UNL     1      -5.466  15.783  18.740  1.00  0.00     0.104 A 
HETATM   11  N3  UNL     1      -4.129  15.814  18.670  1.00  0.00    -0.295 N 
HETATM   12  C7  UNL     1      -3.697  14.762  17.936  1.00  0.00     0.340 A 
ATOM     13  H3  UNL     1      -3.531  16.518  19.102  1.00  0.00     0.172 HD
HETATM   14  O3  UNL     1      -2.500  14.474  17.662  1.00  0.00    -0.245 OA
HETATM   15  N4  UNL     1      -4.807  14.099  17.566  1.00  0.00    -0.250 N 
HETATM   16  N5  UNL     1      -5.874  14.710  18.048  1.00  0.00    -0.285 N 
ATOM     17  H4  UNL     1      -4.823  13.251  16.999  1.00  0.00     0.192 HD
ATOM     18  H5  UNL     1      -6.842  14.416  17.917  1.00  0.00     0.188 HD
ENDBRANCH   9  10
ENDBRANCH   5   9
BRANCH   1  19
HETATM   19  N1  UNL     1     -10.492  14.542  22.196  1.00  0.00    -0.117 N 
ATOM     20  H1  UNL     1     -10.839  14.982  23.049  1.00  0.00     0.197 HD
BRANCH  19  21
HETATM   21  S1  UNL     1     -11.274  13.139  21.612  1.00  0.00     0.240 S 
HETATM   22  C1  UNL     1     -12.246  12.369  22.896  1.00  0.00     0.186 C 
HETATM   23  O1  UNL     1     -12.187  13.525  20.482  1.00  0.00    -0.206 OA
HETATM   24  O2  UNL     1     -10.226  12.147  21.172  1.00  0.00    -0.206 OA
ENDBRANCH  19  21
ENDBRANCH   1  19
TORSDOF 4
ENDMDL
MODEL 5
REMARK VINA RESULT: -4.453756557      3.455      4.358
REMARK  4 active torsions:
REMARK  status: ('A' for Active; 'I' for Inactive)
REMARK    1  A    between atoms: S1_2  and  N1_5 
REMARK    2  A    between atoms: N1_5  and  C2_7 
REMARK    3  A    between atoms: C4_11  and  C5_12 
REMARK    4  A    between atoms: C5_12  and  C6_13 
ROOT
HETATM    1  C2  UNL     1      -6.951  13.556  19.298  1.00  0.00     0.691 A 
HETATM    2  N2  UNL     1      -7.504  14.779  19.480  1.00  0.00    -0.201 N 
ATOM      3  H2  UNL     1      -7.039  15.594  19.081  1.00  0.00     0.183 HD
HETATM    4  C3  UNL     1      -8.639  14.954  20.165  1.00  0.00     0.115 A 
HETATM    5  C4  UNL     1      -9.274  13.874  20.708  1.00  0.00    -0.019 A 
HETATM    6  C8  UNL     1      -8.697  12.644  20.511  1.00  0.00     0.115 A 
HETATM    7  N6  UNL     1      -7.550  12.481  19.816  1.00  0.00    -0.201 N 
ATOM      8  H6  UNL     1      -7.148  11.553  19.689  1.00  0.00     0.183 HD
ENDROOT
BRANCH   5   9
HETATM    9  C5  UNL     1     -10.507  14.026  21.458  1.00  0.00     0.119 C 
BRANCH   9  10
HETATM   10  C6  UNL     1     -10.858  15.429  21.757  1.00  0.00     0.104 A 
HETATM   11  N3  UNL     1     -10.163  16.502  21.355  1.00  0.00    -0.295 N 
HETATM   12  C7  UNL     1     -10.772  17.623  21.808  1.00  0.00     0.340 A 
ATOM     13  H3  UNL     1      -9.309  16.478  20.797  1.00  0.00     0.172 HD
HETATM   14  O3  UNL     1     -10.397  18.812  21.621  1.00  0.00    -0.245 OA
HETATM   15  N4  UNL     1     -11.850  17.198  22.491  1.00  0.00    -0.250 N 
HETATM   16  N5  UNL     1     -11.905  15.878  22.463  1.00  0.00    -0.285 N 
ATOM     17  H4  UNL     1     -12.523  17.803  22.961  1.00  0.00     0.192 HD
ATOM     18  H5  UNL     1     -12.622  15.301  22.903  1.00  0.00     0.188 HD
ENDBRANCH   9  10
ENDBRANCH   5   9
BRANCH   1  19
HETATM   19  N1  UNL     1      -5.853  13.476  18.623  1.00  0.00    -0.117 N 
ATOM     20  H1  UNL     1      -5.497  12.555  18.367  1.00  0.00     0.197 HD
BRANCH  19  21
HETATM   21  S1  UNL     1      -4.978  14.863  18.145  1.00  0.00     0.240 S 
HETATM   22  C1  UNL     1      -4.613  15.904  19.549  1.00  0.00     0.186 C 
HETATM   23  O1  UNL     1      -3.683  14.429  17.517  1.00  0.00    -0.206 OA
HETATM   24  O2  UNL     1      -5.824  15.666  17.187  1.00  0.00    -0.206 OA
ENDBRANCH  19  21
ENDBRANCH   1  19
TORSDOF 4
ENDMDL
