MODEL 1
REMARK VINA RESULT: -7.877713942      0.000      0.000
REMARK  6 active torsions:
REMARK  status: ('A' for Active; 'I' for Inactive)
REMARK    1  A    between atoms: N1_1  and  C1_5 
REMARK    2  A    between atoms: C1_5  and  C2_6 
REMARK    3  A    between atoms: C2_6  and  C3_7 
REMARK    4  A    between atoms: C5_9  and  N2_10 
REMARK    5  A    between atoms: N2_10  and  S1_12 
REMARK    6  A    between atoms: S1_12  and  C6_15 
ROOT
HETATM    1  C3  UNL     1      -6.259  15.782  20.100  1.00  0.00     0.019 A 
HETATM    2  C4  UNL     1      -7.018  14.658  20.089  1.00  0.00     0.074 A 
HETATM    3  C5  UNL     1      -6.834  13.585  19.199  1.00  0.00     0.120 A 
HETATM    4  N5  UNL     1      -5.833  13.739  18.332  1.00  0.00    -0.294 N 
ATOM      5  H5  UNL     1      -5.649  12.995  17.660  1.00  0.00     0.172 HD
HETATM    6  C9  UNL     1      -5.043  14.859  18.308  1.00  0.00     0.326 A 
HETATM    7  O3  UNL     1      -4.138  14.868  17.437  1.00  0.00    -0.247 OA
HETATM    8  N6  UNL     1      -5.261  15.857  19.182  1.00  0.00    -0.312 N 
ATOM      9  H6  UNL     1      -4.667  16.686  19.156  1.00  0.00     0.170 HD
ENDROOT
BRANCH   3  10
HETATM   10  N2  UNL     1      -7.600  12.615  19.297  1.00  0.00    -0.264 N 
ATOM     11  H2  UNL     1      -7.136  11.774  18.952  1.00  0.00     0.180 HD
BRANCH  10  12
HETATM   12  S1  UNL     1      -9.126  12.241  19.807  1.00  0.00     0.281 S 
HETATM   13  O1  UNL     1      -9.068  10.920  20.589  1.00  0.00    -0.199 OA
HETATM   14  O2  UNL     1     -10.089  12.005  18.651  1.00  0.00    -0.199 OA
BRANCH  12  15
HETATM   15  C6  UNL     1      -9.911  13.384  20.866  1.00  0.00     0.165 A 
HETATM   16  C7  UNL     1     -10.650  14.450  20.410  1.00  0.00     0.132 A 
HETATM   17  N3  UNL     1     -11.107  15.086  21.495  1.00  0.00    -0.359 N 
HETATM   18  C8  UNL     1     -10.686  14.464  22.608  1.00  0.00     0.181 A 
ATOM     19  H3  UNL     1     -11.691  15.923  21.478  1.00  0.00     0.166 HD
HETATM   20  N4  UNL     1      -9.951  13.419  22.204  1.00  0.00    -0.341 N 
ATOM     21  H4  UNL     1      -9.492  12.751  22.823  1.00  0.00     0.167 HD
ENDBRANCH  12  15
ENDBRANCH  10  12
ENDBRANCH   3  10
BRANCH   1  22
HETATM   22  C2  UNL     1      -6.419  16.918  21.009  1.00  0.00     0.084 C 
BRANCH  22  23
HETATM   23  C1  UNL     1      -7.652  17.718  20.818  1.00  0.00     0.235 C 
BRANCH  23  24
HETATM   24  N1  UNL     1      -7.297  19.128  20.914  1.00  0.00    -0.079 N 
ATOM     25  H13 UNL     1      -7.402  19.497  21.859  1.00  0.00     0.274 HD
ATOM     26  H12 UNL     1      -6.295  19.289  20.814  1.00  0.00     0.274 HD
ATOM     27  H11 UNL     1      -7.849  19.641  20.227  1.00  0.00     0.274 HD
ENDBRANCH  23  24
ENDBRANCH  22  23
ENDBRANCH   1  22
TORSDOF 6
ENDMDL
MODEL 2
REMARK VINA RESULT: -7.643041892      1.001      1.104
REMARK  6 active torsions:
REMARK  status: ('A' for Active; 'I' for Inactive)
REMARK    1  A    between atoms: N1_1  and  C1_5 
REMARK    2  A    between atoms: C1_5  and  C2_6 
REMARK    3  A    between atoms: C2_6  and  C3_7 
REMARK    4  A    between atoms: C5_9  and  N2_10 
REMARK    5  A    between atoms: N2_10  and  S1_12 
REMARK    6  A    between atoms: S1_12  and  C6_15 
ROOT
HETATM    1  C3  UNL     1      -6.341  16.037  20.273  1.00  0.00     0.019 A 
HETATM    2  C4  UNL     1      -7.315  15.101  20.399  1.00  0.00     0.074 A 
HETATM    3  C5  UNL     1      -7.385  13.922  19.636  1.00  0.00     0.120 A 
HETATM    4  N5  UNL     1      -6.405  13.768  18.746  1.00  0.00    -0.294 N 
ATOM      5  H5  UNL     1      -6.400  12.932  18.162  1.00  0.00     0.172 HD
HETATM    6  C9  UNL     1      -5.402  14.689  18.586  1.00  0.00     0.326 A 
HETATM    7  O3  UNL     1      -4.544  14.414  17.710  1.00  0.00    -0.247 OA
HETATM    8  N6  UNL     1      -5.381  15.801  19.342  1.00  0.00    -0.312 N 
ATOM      9  H6  UNL     1      -4.630  16.480  19.215  1.00  0.00     0.170 HD
ENDROOT
BRANCH   3  10
HETATM   10  N2  UNL     1      -8.330  13.149  19.853  1.00  0.00    -0.264 N 
ATOM     11  H2  UNL     1      -8.012  12.184  19.766  1.00  0.00     0.180 HD
BRANCH  10  12
HETATM   12  S1  UNL     1      -9.937  13.175  20.236  1.00  0.00     0.281 S 
HETATM   13  O1  UNL     1     -10.221  12.028  21.218  1.00  0.00    -0.199 OA
HETATM   14  O2  UNL     1     -10.833  12.930  19.029  1.00  0.00    -0.199 OA
BRANCH  12  15
HETATM   15  C6  UNL     1     -10.545  14.618  21.006  1.00  0.00     0.165 A 
HETATM   16  C7  UNL     1     -10.520  15.858  20.412  1.00  0.00     0.132 A 
HETATM   17  N3  UNL     1     -11.080  16.707  21.280  1.00  0.00    -0.359 N 
HETATM   18  C8  UNL     1     -11.456  16.051  22.391  1.00  0.00     0.181 A 
ATOM     19  H3  UNL     1     -11.205  17.707  21.122  1.00  0.00     0.166 HD
HETATM   20  N4  UNL     1     -11.120  14.768  22.206  1.00  0.00    -0.341 N 
ATOM     21  H4  UNL     1     -11.277  14.018  22.879  1.00  0.00     0.167 HD
ENDBRANCH  12  15
ENDBRANCH  10  12
ENDBRANCH   3  10
BRANCH   1  22
HETATM   22  C2  UNL     1      -6.233  17.274  21.047  1.00  0.00     0.084 C 
BRANCH  22  23
HETATM   23  C1  UNL     1      -7.501  18.015  21.243  1.00  0.00     0.235 C 
BRANCH  23  24
HETATM   24  N1  UNL     1      -7.263  19.415  20.916  1.00  0.00    -0.079 N 
ATOM     25  H13 UNL     1      -8.127  19.937  20.770  1.00  0.00     0.274 HD
ATOM     26  H12 UNL     1      -6.912  19.951  21.710  1.00  0.00     0.274 HD
ATOM     27  H11 UNL     1      -6.640  19.451  20.110  1.00  0.00     0.274 HD
ENDBRANCH  23  24
ENDBRANCH  22  23
ENDBRANCH   1  22
TORSDOF 6
ENDMDL
MODEL 3
REMARK VINA RESULT: -7.576414097      2.700      4.040
REMARK  6 active torsions:
REMARK  status: ('A' for Active; 'I' for Inactive)
REMARK    1  A    between atoms: N1_1  and  C1_5 
REMARK    2  A    between atoms: C1_5  and  C2_6 
REMARK    3  A    between atoms: C2_6  and  C3_7 
REMARK    4  A    between atoms: C5_9  and  N2_10 
REMARK    5  A    between atoms: N2_10  and  S1_12 
REMARK    6  A    between atoms: S1_12  and  C6_15 
ROOT
HETATM    1  C3  UNL     1      -7.109  13.541  19.391  1.00  0.00     0.019 A 
HETATM    2  C4  UNL     1      -7.752  14.630  19.881  1.00  0.00     0.074 A 
HETATM    3  C5  UNL     1      -7.340  15.958  19.666  1.00  0.00     0.120 A 
HETATM    4  N5  UNL     1      -6.240  16.093  18.925  1.00  0.00    -0.294 N 
ATOM      5  H5  UNL     1      -5.890  17.031  18.734  1.00  0.00     0.172 HD
HETATM    6  C9  UNL     1      -5.560  15.018  18.412  1.00  0.00     0.326 A 
HETATM    7  O3  UNL     1      -4.540  15.294  17.732  1.00  0.00    -0.247 OA
HETATM    8  N6  UNL     1      -5.996  13.768  18.647  1.00  0.00    -0.312 N 
ATOM      9  H6  UNL     1      -5.483  12.977  18.260  1.00  0.00     0.170 HD
ENDROOT
BRANCH   3  10
HETATM   10  N2  UNL     1      -8.020  16.862  20.172  1.00  0.00    -0.264 N 
ATOM     11  H2  UNL     1      -7.415  17.637  20.443  1.00  0.00     0.180 HD
BRANCH  10  12
HETATM   12  S1  UNL     1      -9.588  17.222  20.549  1.00  0.00     0.281 S 
HETATM   13  O1  UNL     1     -10.411  17.227  19.252  1.00  0.00    -0.199 OA
HETATM   14  O2  UNL     1      -9.743  18.611  21.154  1.00  0.00    -0.199 OA
BRANCH  12  15
HETATM   15  C6  UNL     1     -10.414  16.129  21.629  1.00  0.00     0.165 A 
HETATM   16  C7  UNL     1     -11.519  16.487  22.365  1.00  0.00     0.132 A 
HETATM   17  N3  UNL     1     -11.885  15.400  23.053  1.00  0.00    -0.359 N 
HETATM   18  C8  UNL     1     -11.058  14.378  22.778  1.00  0.00     0.181 A 
ATOM     19  H3  UNL     1     -12.678  15.354  23.694  1.00  0.00     0.166 HD
HETATM   20  N4  UNL     1     -10.159  14.842  21.901  1.00  0.00    -0.341 N 
ATOM     21  H4  UNL     1      -9.396  14.298  21.500  1.00  0.00     0.167 HD
ENDBRANCH  12  15
ENDBRANCH  10  12
ENDBRANCH   3  10
BRANCH   1  22
HETATM   22  C2  UNL     1      -7.506  12.147  19.592  1.00  0.00     0.084 C 
BRANCH  22  23
HETATM   23  C1  UNL     1      -8.875  11.944  20.121  1.00  0.00     0.235 C 
BRANCH  23  24
HETATM   24  N1  UNL     1      -9.783  11.806  18.990  1.00  0.00    -0.079 N 
ATOM     25  H13 UNL     1     -10.300  12.663  18.793  1.00  0.00     0.274 HD
ATOM     26  H12 UNL     1      -9.293  11.734  18.098  1.00  0.00     0.274 HD
ATOM     27  H11 UNL     1     -10.394  11.009  19.168  1.00  0.00     0.274 HD
ENDBRANCH  23  24
ENDBRANCH  22  23
ENDBRANCH   1  22
TORSDOF 6
ENDMDL
MODEL 4
REMARK VINA RESULT: -7.183723063      2.602      4.153
REMARK  6 active torsions:
REMARK  status: ('A' for Active; 'I' for Inactive)
REMARK    1  A    between atoms: N1_1  and  C1_5 
REMARK    2  A    between atoms: C1_5  and  C2_6 
REMARK    3  A    between atoms: C2_6  and  C3_7 
REMARK    4  A    between atoms: C5_9  and  N2_10 
REMARK    5  A    between atoms: N2_10  and  S1_12 
REMARK    6  A    between atoms: S1_12  and  C6_15 
ROOT
HETATM    1  C3  UNL     1      -6.999  16.579  19.974  1.00  0.00     0.019 A 
HETATM    2  C4  UNL     1      -8.139  15.845  19.961  1.00  0.00     0.074 A 
HETATM    3  C5  UNL     1      -9.404  16.337  20.331  1.00  0.00     0.120 A 
HETATM    4  N5  UNL     1      -9.421  17.614  20.711  1.00  0.00    -0.294 N 
ATOM      5  H5  UNL     1     -10.309  18.030  20.992  1.00  0.00     0.172 HD
HETATM    6  C9  UNL     1      -8.291  18.391  20.740  1.00  0.00     0.326 A 
HETATM    7  O3  UNL     1      -8.456  19.578  21.119  1.00  0.00    -0.247 OA
HETATM    8  N6  UNL     1      -7.106  17.872  20.375  1.00  0.00    -0.312 N 
ATOM      9  H6  UNL     1      -6.272  18.459  20.401  1.00  0.00     0.170 HD
ENDROOT
BRANCH   3  10
HETATM   10  N2  UNL     1     -10.366  15.558  20.272  1.00  0.00    -0.264 N 
ATOM     11  H2  UNL     1     -11.184  16.048  19.909  1.00  0.00     0.180 HD
BRANCH  10  12
HETATM   12  S1  UNL     1     -10.755  13.984  20.590  1.00  0.00     0.281 S 
HETATM   13  O1  UNL     1     -12.033  13.632  19.814  1.00  0.00    -0.199 OA
HETATM   14  O2  UNL     1     -11.073  13.744  22.060  1.00  0.00    -0.199 OA
BRANCH  12  15
HETATM   15  C6  UNL     1      -9.582  12.772  20.144  1.00  0.00     0.165 A 
HETATM   16  C7  UNL     1      -8.288  12.767  20.610  1.00  0.00     0.132 A 
HETATM   17  N3  UNL     1      -7.697  11.692  20.076  1.00  0.00    -0.359 N 
HETATM   18  C8  UNL     1      -8.565  11.026  19.298  1.00  0.00     0.181 A 
ATOM     19  H3  UNL     1      -6.727  11.418  20.237  1.00  0.00     0.166 HD
HETATM   20  N4  UNL     1      -9.720  11.702  19.350  1.00  0.00    -0.341 N 
ATOM     21  H4  UNL     1     -10.575  11.443  18.859  1.00  0.00     0.167 HD
ENDBRANCH  12  15
ENDBRANCH  10  12
ENDBRANCH   3  10
BRANCH   1  22
HETATM   22  C2  UNL     1      -5.667  16.104  19.597  1.00  0.00     0.084 C 
BRANCH  22  23
HETATM   23  C1  UNL     1      -5.641  14.924  18.701  1.00  0.00     0.235 C 
BRANCH  23  24
HETATM   24  N1  UNL     1      -4.509  15.067  17.795  1.00  0.00    -0.079 N 
ATOM     25  H13 UNL     1      -4.498  15.967  17.317  1.00  0.00     0.274 HD
ATOM     26  H12 UNL     1      -3.620  15.162  18.288  1.00  0.00     0.274 HD
ATOM     27  H11 UNL     1      -4.518  14.278  17.149  1.00  0.00     0.274 HD
ENDBRANCH  23  24
ENDBRANCH  22  23
ENDBRANCH   1  22
TORSDOF 6
ENDMDL
MODEL 5
REMARK VINA RESULT: -7.162910632      3.076      4.385
REMARK  6 active torsions:
REMARK  status: ('A' for Active; 'I' for Inactive)
REMARK    1  A    between atoms: N1_1  and  C1_5 
REMARK    2  A    between atoms: C1_5  and  C2_6 
REMARK    3  A    between atoms: C2_6  and  C3_7 
REMARK    4  A    between atoms: C5_9  and  N2_10 
REMARK    5  A    between atoms: N2_10  and  S1_12 
REMARK    6  A    between atoms: S1_12  and  C6_15 
ROOT
HETATM    1  C3  UNL     1      -6.647  13.626  19.040  1.00  0.00     0.019 A 
HETATM    2  C4  UNL     1      -7.031  14.881  19.381  1.00  0.00     0.074 A 
HETATM    3  C5  UNL     1      -6.314  16.046  19.053  1.00  0.00     0.120 A 
HETATM    4  N5  UNL     1      -5.192  15.841  18.364  1.00  0.00    -0.294 N 
ATOM      5  H5  UNL     1      -4.627  16.646  18.096  1.00  0.00     0.172 HD
HETATM    6  C9  UNL     1      -4.767  14.588  18.000  1.00  0.00     0.326 A 
HETATM    7  O3  UNL     1      -3.692  14.545  17.352  1.00  0.00    -0.247 OA
HETATM    8  N6  UNL     1      -5.491  13.507  18.338  1.00  0.00    -0.312 N 
ATOM      9  H6  UNL     1      -5.166  12.580  18.062  1.00  0.00     0.170 HD
ENDROOT
BRANCH   3  10
HETATM   10  N2  UNL     1      -6.778  17.134  19.427  1.00  0.00    -0.264 N 
ATOM     11  H2  UNL     1      -6.708  17.814  18.670  1.00  0.00     0.180 HD
BRANCH  10  12
HETATM   12  S1  UNL     1      -7.472  17.838  20.750  1.00  0.00     0.281 S 
HETATM   13  O1  UNL     1      -7.603  19.345  20.486  1.00  0.00    -0.199 OA
HETATM   14  O2  UNL     1      -6.617  17.701  22.004  1.00  0.00    -0.199 OA
BRANCH  12  15
HETATM   15  C6  UNL     1      -9.070  17.294  21.191  1.00  0.00     0.165 A 
HETATM   16  C7  UNL     1     -10.154  18.134  21.284  1.00  0.00     0.132 A 
HETATM   17  N3  UNL     1     -11.199  17.370  21.623  1.00  0.00    -0.359 N 
HETATM   18  C8  UNL     1     -10.814  16.089  21.745  1.00  0.00     0.181 A 
ATOM     19  H3  UNL     1     -12.149  17.711  21.767  1.00  0.00     0.166 HD
HETATM   20  N4  UNL     1      -9.502  16.059  21.477  1.00  0.00    -0.341 N 
ATOM     21  H4  UNL     1      -8.920  15.222  21.489  1.00  0.00     0.167 HD
ENDBRANCH  12  15
ENDBRANCH  10  12
ENDBRANCH   3  10
BRANCH   1  22
HETATM   22  C2  UNL     1      -7.364  12.391  19.361  1.00  0.00     0.084 C 
BRANCH  22  23
HETATM   23  C1  UNL     1      -8.634  12.567  20.105  1.00  0.00     0.235 C 
BRANCH  23  24
HETATM   24  N1  UNL     1      -9.733  12.202  19.222  1.00  0.00    -0.079 N 
ATOM     25  H13 UNL     1      -9.671  12.652  18.309  1.00  0.00     0.274 HD
ATOM     26  H12 UNL     1      -9.676  11.235  18.901  1.00  0.00     0.274 HD
ATOM     27  H11 UNL     1     -10.609  12.405  19.703  1.00  0.00     0.274 HD
ENDBRANCH  23  24
ENDBRANCH  22  23
ENDBRANCH   1  22
TORSDOF 6
ENDMDL
