MODEL 1
REMARK VINA RESULT: -7.876160209      0.000      0.000
REMARK  6 active torsions:
REMARK  status: ('A' for Active; 'I' for Inactive)
REMARK    1  A    between atoms: C2_2  and  O1_3 
REMARK    2  A    between atoms: O1_3  and  C3_4 
REMARK    3  A    between atoms: C3_4  and  C4_5 
REMARK    4  A    between atoms: C4_5  and  N1_6 
REMARK    5  A    between atoms: N1_6  and  C5_8 
REMARK    6  A    between atoms: C6_11  and  N3_12 
ROOT
HETATM    1  C5  UNL     1      -8.707  14.185  21.756  1.00  0.00     0.680 A 
HETATM    2  N2  UNL     1      -8.746  13.054  21.029  1.00  0.00    -0.175 N 
ATOM      3  H2  UNL     1      -9.411  12.312  21.250  1.00  0.00     0.186 HD
HETATM    4  C6  UNL     1      -7.886  12.924  20.003  1.00  0.00     0.146 A 
HETATM    5  C8  UNL     1      -6.990  13.930  19.710  1.00  0.00     0.114 A 
HETATM    6  N4  UNL     1      -6.129  13.828  18.701  1.00  0.00    -0.303 N 
ATOM      7  H4  UNL     1      -6.120  12.990  18.121  1.00  0.00     0.171 HD
HETATM    8  C9  UNL     1      -5.272  14.829  18.447  1.00  0.00     0.327 A 
HETATM    9  O2  UNL     1      -4.479  14.670  17.474  1.00  0.00    -0.247 OA
HETATM   10  N5  UNL     1      -5.247  15.943  19.178  1.00  0.00    -0.274 N 
ATOM     11  H5  UNL     1      -4.580  16.680  18.953  1.00  0.00     0.173 HD
HETATM   12  C10 UNL     1      -6.096  16.102  20.211  1.00  0.00     0.279 A 
HETATM   13  O3  UNL     1      -6.062  17.163  20.896  1.00  0.00    -0.265 OA
HETATM   14  C11 UNL     1      -6.984  15.084  20.488  1.00  0.00     0.147 A 
HETATM   15  N6  UNL     1      -7.850  15.199  21.511  1.00  0.00    -0.184 N 
ATOM     16  H6  UNL     1      -7.858  16.038  22.091  1.00  0.00     0.184 HD
ENDROOT
BRANCH   1  17
HETATM   17  N1  UNL     1      -9.531  14.294  22.728  1.00  0.00    -0.224 N 
ATOM     18  H1  UNL     1      -9.176  14.211  23.680  1.00  0.00     0.177 HD
BRANCH  17  19
HETATM   19  C4  UNL     1     -10.951  14.530  22.533  1.00  0.00     0.164 C 
BRANCH  19  20
HETATM   20  C3  UNL     1     -11.134  15.904  21.891  1.00  0.00     0.187 C 
BRANCH  20  21
HETATM   21  O1  UNL     1     -10.884  15.842  20.523  1.00  0.00    -0.390 OA
BRANCH  21  22
HETATM   22  C2  UNL     1     -10.396  17.021  20.018  1.00  0.00     0.163 C 
HETATM   23  C1  UNL     1      -9.778  17.905  21.081  1.00  0.00     0.033 C 
ENDBRANCH  21  22
ENDBRANCH  20  21
ENDBRANCH  19  20
ENDBRANCH  17  19
ENDBRANCH   1  17
BRANCH   4  24
HETATM   24  N3  UNL     1      -7.905  11.858  19.299  1.00  0.00    -0.378 N 
HETATM   25  C7  UNL     1      -8.951  10.869  19.380  1.00  0.00     0.147 C 
ATOM     26  H3  UNL     1      -7.139  11.698  18.644  1.00  0.00     0.160 HD
ENDBRANCH   4  24
TORSDOF 6
ENDMDL
MODEL 2
REMARK VINA RESULT: -7.512712340      2.069      3.901
REMARK  6 active torsions:
REMARK  status: ('A' for Active; 'I' for Inactive)
REMARK    1  A    between atoms: C2_2  and  O1_3 
REMARK    2  A    between atoms: O1_3  and  C3_4 
REMARK    3  A    between atoms: C3_4  and  C4_5 
REMARK    4  A    between atoms: C4_5  and  N1_6 
REMARK    5  A    between atoms: N1_6  and  C5_8 
REMARK    6  A    between atoms: C6_11  and  N3_12 
ROOT
HETATM    1  C5  UNL     1      -6.890  15.863  21.012  1.00  0.00     0.680 A 
HETATM    2  N2  UNL     1      -6.151  15.446  19.968  1.00  0.00    -0.175 N 
ATOM      3  H2  UNL     1      -5.363  15.999  19.630  1.00  0.00     0.186 HD
HETATM    4  C6  UNL     1      -6.478  14.281  19.379  1.00  0.00     0.146 A 
HETATM    5  C8  UNL     1      -7.544  13.539  19.840  1.00  0.00     0.114 A 
HETATM    6  N4  UNL     1      -7.889  12.385  19.278  1.00  0.00    -0.303 N 
ATOM      7  H4  UNL     1      -7.359  12.026  18.484  1.00  0.00     0.171 HD
HETATM    8  C9  UNL     1      -8.934  11.691  19.755  1.00  0.00     0.327 A 
HETATM    9  O2  UNL     1      -9.209  10.600  19.175  1.00  0.00    -0.247 OA
HETATM   10  N5  UNL     1      -9.654  12.120  20.791  1.00  0.00    -0.274 N 
ATOM     11  H5  UNL     1     -10.441  11.564  21.124  1.00  0.00     0.173 HD
HETATM   12  C10 UNL     1      -9.352  13.281  21.401  1.00  0.00     0.279 A 
HETATM   13  O3  UNL     1     -10.044  13.676  22.381  1.00  0.00    -0.265 OA
HETATM   14  C11 UNL     1      -8.282  14.009  20.924  1.00  0.00     0.147 A 
HETATM   15  N6  UNL     1      -7.943  15.175  21.502  1.00  0.00    -0.184 N 
ATOM     16  H6  UNL     1      -8.473  15.532  22.297  1.00  0.00     0.184 HD
ENDROOT
BRANCH   1  17
HETATM   17  N1  UNL     1      -6.568  16.972  21.561  1.00  0.00    -0.224 N 
ATOM     18  H1  UNL     1      -5.833  16.971  22.268  1.00  0.00     0.177 HD
BRANCH  17  19
HETATM   19  C4  UNL     1      -7.203  18.234  21.220  1.00  0.00     0.164 C 
BRANCH  19  20
HETATM   20  C3  UNL     1      -8.504  17.939  20.476  1.00  0.00     0.187 C 
BRANCH  20  21
HETATM   21  O1  UNL     1      -9.593  18.034  21.339  1.00  0.00    -0.390 OA
BRANCH  21  22
HETATM   22  C2  UNL     1     -10.599  17.157  21.022  1.00  0.00     0.163 C 
HETATM   23  C1  UNL     1     -11.453  16.783  22.215  1.00  0.00     0.033 C 
ENDBRANCH  21  22
ENDBRANCH  20  21
ENDBRANCH  19  20
ENDBRANCH  17  19
ENDBRANCH   1  17
BRANCH   4  24
HETATM   24  N3  UNL     1      -5.790  13.865  18.386  1.00  0.00    -0.378 N 
HETATM   25  C7  UNL     1      -4.611  14.536  17.898  1.00  0.00     0.147 C 
ATOM     26  H3  UNL     1      -6.092  13.013  17.912  1.00  0.00     0.160 HD
ENDBRANCH   4  24
TORSDOF 6
ENDMDL
MODEL 3
REMARK VINA RESULT: -7.046374138      1.449      3.022
REMARK  6 active torsions:
REMARK  status: ('A' for Active; 'I' for Inactive)
REMARK    1  A    between atoms: C2_2  and  O1_3 
REMARK    2  A    between atoms: O1_3  and  C3_4 
REMARK    3  A    between atoms: C3_4  and  C4_5 
REMARK    4  A    between atoms: C4_5  and  N1_6 
REMARK    5  A    between atoms: N1_6  and  C5_8 
REMARK    6  A    between atoms: C6_11  and  N3_12 
ROOT
HETATM    1  C5  UNL     1      -8.427  14.476  21.850  1.00  0.00     0.680 A 
HETATM    2  N2  UNL     1      -7.890  15.690  22.074  1.00  0.00    -0.175 N 
ATOM      3  H2  UNL     1      -8.207  16.266  22.854  1.00  0.00     0.186 HD
HETATM    4  C6  UNL     1      -6.926  16.124  21.243  1.00  0.00     0.146 A 
HETATM    5  C8  UNL     1      -6.504  15.340  20.191  1.00  0.00     0.114 A 
HETATM    6  N4  UNL     1      -5.553  15.744  19.354  1.00  0.00    -0.303 N 
ATOM      7  H4  UNL     1      -5.115  16.656  19.482  1.00  0.00     0.171 HD
HETATM    8  C9  UNL     1      -5.168  14.952  18.342  1.00  0.00     0.327 A 
HETATM    9  O2  UNL     1      -4.259  15.396  17.582  1.00  0.00    -0.247 OA
HETATM   10  N5  UNL     1      -5.711  13.753  18.136  1.00  0.00    -0.274 N 
ATOM     11  H5  UNL     1      -5.392  13.181  17.354  1.00  0.00     0.173 HD
HETATM   12  C10 UNL     1      -6.678  13.290  18.951  1.00  0.00     0.279 A 
HETATM   13  O3  UNL     1      -7.184  12.152  18.743  1.00  0.00    -0.265 OA
HETATM   14  C11 UNL     1      -7.087  14.090  19.997  1.00  0.00     0.147 A 
HETATM   15  N6  UNL     1      -8.049  13.670  20.836  1.00  0.00    -0.184 N 
ATOM     16  H6  UNL     1      -8.486  12.757  20.707  1.00  0.00     0.184 HD
ENDROOT
BRANCH   1  17
HETATM   17  N1  UNL     1      -9.343  14.077  22.649  1.00  0.00    -0.224 N 
ATOM     18  H1  UNL     1      -9.079  13.800  23.594  1.00  0.00     0.177 HD
BRANCH  17  19
HETATM   19  C4  UNL     1     -10.743  14.000  22.267  1.00  0.00     0.164 C 
BRANCH  19  20
HETATM   20  C3  UNL     1     -11.173  15.358  21.717  1.00  0.00     0.187 C 
BRANCH  20  21
HETATM   21  O1  UNL     1     -10.799  15.486  20.382  1.00  0.00    -0.390 OA
BRANCH  21  22
HETATM   22  C2  UNL     1     -10.439  16.769  20.053  1.00  0.00     0.163 C 
HETATM   23  C1  UNL     1     -10.494  17.717  21.232  1.00  0.00     0.033 C 
ENDBRANCH  21  22
ENDBRANCH  20  21
ENDBRANCH  19  20
ENDBRANCH  17  19
ENDBRANCH   1  17
BRANCH   4  24
HETATM   24  N3  UNL     1      -6.402  17.273  21.436  1.00  0.00    -0.378 N 
HETATM   25  C7  UNL     1      -7.022  18.509  21.024  1.00  0.00     0.147 C 
ATOM     26  H3  UNL     1      -5.498  17.319  21.906  1.00  0.00     0.160 HD
ENDBRANCH   4  24
TORSDOF 6
ENDMDL
MODEL 4
REMARK VINA RESULT: -6.459668888      2.093      3.923
REMARK  6 active torsions:
REMARK  status: ('A' for Active; 'I' for Inactive)
REMARK    1  A    between atoms: C2_2  and  O1_3 
REMARK    2  A    between atoms: O1_3  and  C3_4 
REMARK    3  A    between atoms: C3_4  and  C4_5 
REMARK    4  A    between atoms: C4_5  and  N1_6 
REMARK    5  A    between atoms: N1_6  and  C5_8 
REMARK    6  A    between atoms: C6_11  and  N3_12 
ROOT
HETATM    1  C5  UNL     1      -7.216  13.147  19.745  1.00  0.00     0.680 A 
HETATM    2  N2  UNL     1      -6.339  13.594  18.827  1.00  0.00    -0.175 N 
ATOM      3  H2  UNL     1      -5.847  12.944  18.214  1.00  0.00     0.186 HD
HETATM    4  C6  UNL     1      -6.127  14.919  18.739  1.00  0.00     0.146 A 
HETATM    5  C8  UNL     1      -6.795  15.791  19.571  1.00  0.00     0.114 A 
HETATM    6  N4  UNL     1      -6.605  17.106  19.505  1.00  0.00    -0.303 N 
ATOM      7  H4  UNL     1      -5.951  17.493  18.826  1.00  0.00     0.171 HD
HETATM    8  C9  UNL     1      -7.275  17.923  20.333  1.00  0.00     0.327 A 
HETATM    9  O2  UNL     1      -7.048  19.163  20.219  1.00  0.00    -0.247 OA
HETATM   10  N5  UNL     1      -8.140  17.463  21.235  1.00  0.00    -0.274 N 
ATOM     11  H5  UNL     1      -8.629  18.116  21.846  1.00  0.00     0.173 HD
HETATM   12  C10 UNL     1      -8.374  16.141  21.347  1.00  0.00     0.279 A 
HETATM   13  O3  UNL     1      -9.196  15.719  22.208  1.00  0.00    -0.265 OA
HETATM   14  C11 UNL     1      -7.695  15.286  20.506  1.00  0.00     0.147 A 
HETATM   15  N6  UNL     1      -7.896  13.959  20.583  1.00  0.00    -0.184 N 
ATOM     16  H6  UNL     1      -8.552  13.572  21.262  1.00  0.00     0.184 HD
ENDROOT
BRANCH   1  17
HETATM   17  N1  UNL     1      -7.407  11.885  19.817  1.00  0.00    -0.224 N 
ATOM     18  H1  UNL     1      -6.627  11.288  20.091  1.00  0.00     0.177 HD
BRANCH  17  19
HETATM   19  C4  UNL     1      -8.689  11.265  19.524  1.00  0.00     0.164 C 
BRANCH  19  20
HETATM   20  C3  UNL     1      -9.759  11.924  20.391  1.00  0.00     0.187 C 
BRANCH  20  21
HETATM   21  O1  UNL     1     -10.513  12.821  19.638  1.00  0.00    -0.390 OA
BRANCH  21  22
HETATM   22  C2  UNL     1     -11.229  13.697  20.416  1.00  0.00     0.163 C 
HETATM   23  C1  UNL     1     -11.209  13.330  21.885  1.00  0.00     0.033 C 
ENDBRANCH  21  22
ENDBRANCH  20  21
ENDBRANCH  19  20
ENDBRANCH  17  19
ENDBRANCH   1  17
BRANCH   4  24
HETATM   24  N3  UNL     1      -5.298  15.366  17.876  1.00  0.00    -0.378 N 
HETATM   25  C7  UNL     1      -3.875  15.142  17.948  1.00  0.00     0.147 C 
ATOM     26  H3  UNL     1      -5.662  15.910  17.093  1.00  0.00     0.160 HD
ENDBRANCH   4  24
TORSDOF 6
ENDMDL
MODEL 5
REMARK VINA RESULT: -6.410972368      1.324      1.360
REMARK  6 active torsions:
REMARK  status: ('A' for Active; 'I' for Inactive)
REMARK    1  A    between atoms: C2_2  and  O1_3 
REMARK    2  A    between atoms: O1_3  and  C3_4 
REMARK    3  A    between atoms: C3_4  and  C4_5 
REMARK    4  A    between atoms: C4_5  and  N1_6 
REMARK    5  A    between atoms: N1_6  and  C5_8 
REMARK    6  A    between atoms: C6_11  and  N3_12 
ROOT
HETATM    1  C5  UNL     1      -9.614  14.734  20.426  1.00  0.00     0.680 A 
HETATM    2  N2  UNL     1      -9.311  13.425  20.344  1.00  0.00    -0.175 N 
ATOM      3  H2  UNL     1      -9.960  12.716  20.686  1.00  0.00     0.186 HD
HETATM    4  C6  UNL     1      -8.131  13.076  19.802  1.00  0.00     0.146 A 
HETATM    5  C8  UNL     1      -7.260  14.039  19.342  1.00  0.00     0.114 A 
HETATM    6  N4  UNL     1      -6.087  13.722  18.801  1.00  0.00    -0.303 N 
ATOM      7  H4  UNL     1      -5.813  12.744  18.717  1.00  0.00     0.171 HD
HETATM    8  C9  UNL     1      -5.266  14.689  18.365  1.00  0.00     0.327 A 
HETATM    9  O2  UNL     1      -4.165  14.320  17.861  1.00  0.00    -0.247 OA
HETATM   10  N5  UNL     1      -5.582  15.980  18.454  1.00  0.00    -0.274 N 
ATOM     11  H5  UNL     1      -4.930  16.686  18.112  1.00  0.00     0.173 HD
HETATM   12  C10 UNL     1      -6.756  16.362  18.992  1.00  0.00     0.279 A 
HETATM   13  O3  UNL     1      -7.043  17.589  19.071  1.00  0.00    -0.265 OA
HETATM   14  C11 UNL     1      -7.614  15.382  19.446  1.00  0.00     0.147 A 
HETATM   15  N6  UNL     1      -8.796  15.716  19.991  1.00  0.00    -0.184 N 
ATOM     16  H6  UNL     1      -9.071  16.695  20.074  1.00  0.00     0.184 HD
ENDROOT
BRANCH   1  17
HETATM   17  N1  UNL     1     -10.740  15.051  20.944  1.00  0.00    -0.224 N 
ATOM     18  H1  UNL     1     -11.581  14.962  20.375  1.00  0.00     0.177 HD
BRANCH  17  19
HETATM   19  C4  UNL     1     -10.870  15.532  22.309  1.00  0.00     0.164 C 
BRANCH  19  20
HETATM   20  C3  UNL     1     -11.688  16.820  22.297  1.00  0.00     0.187 C 
BRANCH  20  21
HETATM   21  O1  UNL     1     -10.851  17.932  22.356  1.00  0.00    -0.390 OA
BRANCH  21  22
HETATM   22  C2  UNL     1     -10.422  18.340  21.119  1.00  0.00     0.163 C 
HETATM   23  C1  UNL     1      -9.027  18.930  21.144  1.00  0.00     0.033 C 
ENDBRANCH  21  22
ENDBRANCH  20  21
ENDBRANCH  19  20
ENDBRANCH  17  19
ENDBRANCH   1  17
BRANCH   4  24
HETATM   24  N3  UNL     1      -7.822  11.839  19.714  1.00  0.00    -0.378 N 
HETATM   25  C7  UNL     1      -8.791  10.772  19.760  1.00  0.00     0.147 C 
ATOM     26  H3  UNL     1      -6.838  11.593  19.606  1.00  0.00     0.160 HD
ENDBRANCH   4  24
TORSDOF 6
ENDMDL
