MODEL 1
REMARK VINA RESULT: -6.713189580      0.000      0.000
REMARK  5 active torsions:
REMARK  status: ('A' for Active; 'I' for Inactive)
REMARK    1  A    between atoms: N1_1  and  C1_5 
REMARK    2  A    between atoms: C1_5  and  C2_6 
REMARK    3  A    between atoms: C2_6  and  N2_7 
REMARK    4  A    between atoms: N2_7  and  S1_9 
REMARK    5  A    between atoms: S1_9  and  C3_12 
ROOT
HETATM    1  C3  UNL     1      -8.067  16.111  20.290  1.00  0.00     0.080 A 
HETATM    2  C4  UNL     1      -9.007  16.811  21.003  1.00  0.00     0.026 A 
HETATM    3  C5  UNL     1     -10.069  16.159  21.644  1.00  0.00     0.020 A 
HETATM    4  C6  UNL     1     -10.169  14.796  21.557  1.00  0.00     0.049 A 
HETATM    5  C7  UNL     1     -11.194  14.081  22.165  1.00  0.00     0.271 A 
HETATM    6  O3  UNL     1     -12.039  14.751  22.810  1.00  0.00    -0.266 OA
HETATM    7  N3  UNL     1     -11.292  12.741  22.080  1.00  0.00    -0.263 N 
ATOM      8  H3  UNL     1     -12.059  12.253  22.542  1.00  0.00     0.190 HD
HETATM    9  N4  UNL     1     -10.389  12.063  21.395  1.00  0.00    -0.263 N 
ATOM     10  H4  UNL     1     -10.459  11.048  21.327  1.00  0.00     0.190 HD
HETATM   11  C8  UNL     1      -9.372  12.709  20.784  1.00  0.00     0.271 A 
HETATM   12  O4  UNL     1      -8.526  12.055  20.140  1.00  0.00    -0.266 OA
HETATM   13  C9  UNL     1      -9.234  14.070  20.844  1.00  0.00     0.051 A 
HETATM   14  C10 UNL     1      -8.195  14.748  20.223  1.00  0.00     0.043 A 
ENDROOT
BRANCH   1  15
HETATM   15  S1  UNL     1      -6.773  16.966  19.516  1.00  0.00     0.258 S 
HETATM   16  O1  UNL     1      -6.770  18.373  20.029  1.00  0.00    -0.201 OA
HETATM   17  O2  UNL     1      -6.983  17.060  18.017  1.00  0.00    -0.201 OA
BRANCH  15  18
HETATM   18  N2  UNL     1      -5.244  16.212  19.752  1.00  0.00    -0.314 N 
ATOM     19  H2  UNL     1      -4.839  15.968  20.655  1.00  0.00     0.172 HD
BRANCH  18  20
HETATM   20  C2  UNL     1      -4.629  15.983  18.478  1.00  0.00     0.159 C 
BRANCH  20  21
HETATM   21  C1  UNL     1      -4.440  14.537  18.145  1.00  0.00     0.249 C 
BRANCH  21  22
HETATM   22  N1  UNL     1      -5.754  14.015  17.747  1.00  0.00    -0.078 N 
ATOM     23  H13 UNL     1      -6.489  14.221  18.422  1.00  0.00     0.274 HD
ATOM     24  H12 UNL     1      -6.161  14.514  16.955  1.00  0.00     0.274 HD
ATOM     25  H11 UNL     1      -5.636  13.016  17.573  1.00  0.00     0.274 HD
ENDBRANCH  21  22
ENDBRANCH  20  21
ENDBRANCH  18  20
ENDBRANCH  15  18
ENDBRANCH   1  15
TORSDOF 5
ENDMDL
MODEL 2
REMARK VINA RESULT: -6.419135312      2.465      4.075
REMARK  5 active torsions:
REMARK  status: ('A' for Active; 'I' for Inactive)
REMARK    1  A    between atoms: N1_1  and  C1_5 
REMARK    2  A    between atoms: C1_5  and  C2_6 
REMARK    3  A    between atoms: C2_6  and  N2_7 
REMARK    4  A    between atoms: N2_7  and  S1_9 
REMARK    5  A    between atoms: S1_9  and  C3_12 
ROOT
HETATM    1  C3  UNL     1      -9.342  13.336  20.434  1.00  0.00     0.080 A 
HETATM    2  C4  UNL     1     -10.341  13.083  21.340  1.00  0.00     0.026 A 
HETATM    3  C5  UNL     1     -11.037  14.127  21.965  1.00  0.00     0.020 A 
HETATM    4  C6  UNL     1     -10.714  15.423  21.665  1.00  0.00     0.049 A 
HETATM    5  C7  UNL     1     -11.360  16.509  22.243  1.00  0.00     0.271 A 
HETATM    6  O3  UNL     1     -12.269  16.244  23.069  1.00  0.00    -0.266 OA
HETATM    7  N3  UNL     1     -11.043  17.783  21.947  1.00  0.00    -0.263 N 
ATOM      8  H3  UNL     1     -11.541  18.552  22.393  1.00  0.00     0.190 HD
HETATM    9  N4  UNL     1     -10.082  18.031  21.075  1.00  0.00    -0.263 N 
ATOM     10  H4  UNL     1      -9.838  18.994  20.848  1.00  0.00     0.190 HD
HETATM   11  C8  UNL     1      -9.422  17.011  20.483  1.00  0.00     0.271 A 
HETATM   12  O4  UNL     1      -8.517  17.260  19.661  1.00  0.00    -0.266 OA
HETATM   13  C9  UNL     1      -9.712  15.701  20.755  1.00  0.00     0.051 A 
HETATM   14  C10 UNL     1      -9.043  14.643  20.154  1.00  0.00     0.043 A 
ENDROOT
BRANCH   1  15
HETATM   15  S1  UNL     1      -8.511  12.009  19.690  1.00  0.00     0.258 S 
HETATM   16  O1  UNL     1      -9.504  11.228  18.886  1.00  0.00    -0.201 OA
HETATM   17  O2  UNL     1      -7.951  11.050  20.723  1.00  0.00    -0.201 OA
BRANCH  15  18
HETATM   18  N2  UNL     1      -7.184  12.517  18.718  1.00  0.00    -0.314 N 
ATOM     19  H2  UNL     1      -6.905  12.095  17.833  1.00  0.00     0.172 HD
BRANCH  18  20
HETATM   20  C2  UNL     1      -6.534  13.626  19.350  1.00  0.00     0.159 C 
BRANCH  20  21
HETATM   21  C1  UNL     1      -5.663  14.425  18.434  1.00  0.00     0.249 C 
BRANCH  21  22
HETATM   22  N1  UNL     1      -6.335  15.714  18.222  1.00  0.00    -0.078 N 
ATOM     23  H13 UNL     1      -6.440  16.257  19.078  1.00  0.00     0.274 HD
ATOM     24  H12 UNL     1      -5.761  16.386  17.711  1.00  0.00     0.274 HD
ATOM     25  H11 UNL     1      -7.223  15.513  17.761  1.00  0.00     0.274 HD
ENDBRANCH  21  22
ENDBRANCH  20  21
ENDBRANCH  18  20
ENDBRANCH  15  18
ENDBRANCH   1  15
TORSDOF 5
ENDMDL
MODEL 3
REMARK VINA RESULT: -6.231682184      1.946      3.607
REMARK  5 active torsions:
REMARK  status: ('A' for Active; 'I' for Inactive)
REMARK    1  A    between atoms: N1_1  and  C1_5 
REMARK    2  A    between atoms: C1_5  and  C2_6 
REMARK    3  A    between atoms: C2_6  and  N2_7 
REMARK    4  A    between atoms: N2_7  and  S1_9 
REMARK    5  A    between atoms: S1_9  and  C3_12 
ROOT
HETATM    1  C3  UNL     1      -7.401  15.188  19.994  1.00  0.00     0.080 A 
HETATM    2  C4  UNL     1      -6.928  14.051  19.387  1.00  0.00     0.026 A 
HETATM    3  C5  UNL     1      -7.581  12.821  19.537  1.00  0.00     0.020 A 
HETATM    4  C6  UNL     1      -8.715  12.752  20.304  1.00  0.00     0.049 A 
HETATM    5  C7  UNL     1      -9.416  11.568  20.497  1.00  0.00     0.271 A 
HETATM    6  O3  UNL     1      -8.957  10.546  19.929  1.00  0.00    -0.266 OA
HETATM    7  N3  UNL     1     -10.530  11.501  21.250  1.00  0.00    -0.263 N 
ATOM      8  H3  UNL     1     -11.016  10.613  21.368  1.00  0.00     0.190 HD
HETATM    9  N4  UNL     1     -10.989  12.592  21.836  1.00  0.00    -0.263 N 
ATOM     10  H4  UNL     1     -11.832  12.546  22.407  1.00  0.00     0.190 HD
HETATM   11  C8  UNL     1     -10.344  13.770  21.680  1.00  0.00     0.271 A 
HETATM   12  O4  UNL     1     -10.790  14.793  22.239  1.00  0.00    -0.266 OA
HETATM   13  C9  UNL     1      -9.209  13.884  20.924  1.00  0.00     0.051 A 
HETATM   14  C10 UNL     1      -8.537  15.086  20.753  1.00  0.00     0.043 A 
ENDROOT
BRANCH   1  15
HETATM   15  S1  UNL     1      -6.555  16.685  19.777  1.00  0.00     0.258 S 
HETATM   16  O1  UNL     1      -6.924  17.240  18.436  1.00  0.00    -0.201 OA
HETATM   17  O2  UNL     1      -5.052  16.479  19.753  1.00  0.00    -0.201 OA
BRANCH  15  18
HETATM   18  N2  UNL     1      -6.877  17.818  21.032  1.00  0.00    -0.314 N 
ATOM     19  H2  UNL     1      -6.374  17.878  21.917  1.00  0.00     0.172 HD
BRANCH  18  20
HETATM   20  C2  UNL     1      -7.963  18.664  20.636  1.00  0.00     0.159 C 
BRANCH  20  21
HETATM   21  C1  UNL     1      -9.261  18.344  21.306  1.00  0.00     0.249 C 
BRANCH  21  22
HETATM   22  N1  UNL     1     -10.188  17.905  20.255  1.00  0.00    -0.078 N 
ATOM     23  H13 UNL     1     -10.702  18.675  19.827  1.00  0.00     0.274 HD
ATOM     24  H12 UNL     1      -9.714  17.582  19.412  1.00  0.00     0.274 HD
ATOM     25  H11 UNL     1     -10.795  17.199  20.670  1.00  0.00     0.274 HD
ENDBRANCH  21  22
ENDBRANCH  20  21
ENDBRANCH  18  20
ENDBRANCH  15  18
ENDBRANCH   1  15
TORSDOF 5
ENDMDL
MODEL 4
REMARK VINA RESULT: -6.225019631      2.540      5.551
REMARK  5 active torsions:
REMARK  status: ('A' for Active; 'I' for Inactive)
REMARK    1  A    between atoms: N1_1  and  C1_5 
REMARK    2  A    between atoms: C1_5  and  C2_6 
REMARK    3  A    between atoms: C2_6  and  N2_7 
REMARK    4  A    between atoms: N2_7  and  S1_9 
REMARK    5  A    between atoms: S1_9  and  C3_12 
ROOT
HETATM    1  C3  UNL     1      -8.023  14.904  21.441  1.00  0.00     0.080 A 
HETATM    2  C4  UNL     1      -7.197  15.999  21.499  1.00  0.00     0.026 A 
HETATM    3  C5  UNL     1      -6.146  16.168  20.587  1.00  0.00     0.020 A 
HETATM    4  C6  UNL     1      -5.941  15.222  19.618  1.00  0.00     0.049 A 
HETATM    5  C7  UNL     1      -4.922  15.322  18.679  1.00  0.00     0.271 A 
HETATM    6  O3  UNL     1      -4.183  16.334  18.760  1.00  0.00    -0.266 OA
HETATM    7  N3  UNL     1      -4.721  14.392  17.726  1.00  0.00    -0.263 N 
ATOM      8  H3  UNL     1      -3.961  14.502  17.055  1.00  0.00     0.190 HD
HETATM    9  N4  UNL     1      -5.513  13.338  17.665  1.00  0.00    -0.263 N 
ATOM     10  H4  UNL     1      -5.365  12.631  16.946  1.00  0.00     0.190 HD
HETATM   11  C8  UNL     1      -6.521  13.192  18.555  1.00  0.00     0.271 A 
HETATM   12  O4  UNL     1      -7.262  12.191  18.485  1.00  0.00    -0.266 OA
HETATM   13  C9  UNL     1      -6.761  14.112  19.539  1.00  0.00     0.051 A 
HETATM   14  C10 UNL     1      -7.792  13.977  20.459  1.00  0.00     0.043 A 
ENDROOT
BRANCH   1  15
HETATM   15  S1  UNL     1      -9.307  14.743  22.593  1.00  0.00     0.258 S 
HETATM   16  O1  UNL     1      -8.698  14.595  23.953  1.00  0.00    -0.201 OA
HETATM   17  O2  UNL     1     -10.120  13.486  22.352  1.00  0.00    -0.201 OA
BRANCH  15  18
HETATM   18  N2  UNL     1     -10.412  16.061  22.545  1.00  0.00    -0.314 N 
ATOM     19  H2  UNL     1     -10.608  16.696  23.318  1.00  0.00     0.172 HD
BRANCH  18  20
HETATM   20  C2  UNL     1     -11.014  16.125  21.246  1.00  0.00     0.159 C 
BRANCH  20  21
HETATM   21  C1  UNL     1     -10.394  17.138  20.337  1.00  0.00     0.249 C 
BRANCH  21  22
HETATM   22  N1  UNL     1     -10.238  18.373  21.116  1.00  0.00    -0.078 N 
ATOM     23  H13 UNL     1     -10.936  19.081  20.889  1.00  0.00     0.274 HD
ATOM     24  H12 UNL     1     -10.484  18.260  22.100  1.00  0.00     0.274 HD
ATOM     25  H11 UNL     1      -9.280  18.694  20.976  1.00  0.00     0.274 HD
ENDBRANCH  21  22
ENDBRANCH  20  21
ENDBRANCH  18  20
ENDBRANCH  15  18
ENDBRANCH   1  15
TORSDOF 5
ENDMDL
MODEL 5
REMARK VINA RESULT: -6.201860897      2.597      4.971
REMARK  5 active torsions:
REMARK  status: ('A' for Active; 'I' for Inactive)
REMARK    1  A    between atoms: N1_1  and  C1_5 
REMARK    2  A    between atoms: C1_5  and  C2_6 
REMARK    3  A    between atoms: C2_6  and  N2_7 
REMARK    4  A    between atoms: N2_7  and  S1_9 
REMARK    5  A    between atoms: S1_9  and  C3_12 
ROOT
HETATM    1  C3  UNL     1      -9.977  14.779  20.386  1.00  0.00     0.080 A 
HETATM    2  C4  UNL     1     -10.830  15.830  20.613  1.00  0.00     0.026 A 
HETATM    3  C5  UNL     1     -10.346  17.129  20.820  1.00  0.00     0.020 A 
HETATM    4  C6  UNL     1      -8.995  17.353  20.796  1.00  0.00     0.049 A 
HETATM    5  C7  UNL     1      -8.442  18.612  20.993  1.00  0.00     0.271 A 
HETATM    6  O3  UNL     1      -9.249  19.553  21.198  1.00  0.00    -0.266 OA
HETATM    7  N3  UNL     1      -7.115  18.832  20.968  1.00  0.00    -0.263 N 
ATOM      8  H3  UNL     1      -6.748  19.772  21.116  1.00  0.00     0.190 HD
HETATM    9  N4  UNL     1      -6.290  17.824  20.750  1.00  0.00    -0.263 N 
ATOM     10  H4  UNL     1      -5.283  17.986  20.730  1.00  0.00     0.190 HD
HETATM   11  C8  UNL     1      -6.775  16.579  20.552  1.00  0.00     0.271 A 
HETATM   12  O4  UNL     1      -5.984  15.636  20.347  1.00  0.00    -0.266 OA
HETATM   13  C9  UNL     1      -8.118  16.310  20.569  1.00  0.00     0.051 A 
HETATM   14  C10 UNL     1      -8.631  15.037  20.367  1.00  0.00     0.043 A 
ENDROOT
BRANCH   1  15
HETATM   15  S1  UNL     1     -10.628  13.193  20.136  1.00  0.00     0.258 S 
HETATM   16  O1  UNL     1     -12.048  13.336  19.683  1.00  0.00    -0.201 OA
HETATM   17  O2  UNL     1     -10.671  12.396  21.426  1.00  0.00    -0.201 OA
BRANCH  15  18
HETATM   18  N2  UNL     1      -9.706  12.266  19.016  1.00  0.00    -0.314 N 
ATOM     19  H2  UNL     1      -9.739  12.361  18.002  1.00  0.00     0.172 HD
BRANCH  18  20
HETATM   20  C2  UNL     1      -8.883  11.339  19.736  1.00  0.00     0.159 C 
BRANCH  20  21
HETATM   21  C1  UNL     1      -7.531  11.871  20.089  1.00  0.00     0.249 C 
BRANCH  21  22
HETATM   22  N1  UNL     1      -6.970  12.459  18.865  1.00  0.00    -0.078 N 
ATOM     23  H13 UNL     1      -6.901  13.476  18.903  1.00  0.00     0.274 HD
ATOM     24  H12 UNL     1      -5.975  12.266  18.747  1.00  0.00     0.274 HD
ATOM     25  H11 UNL     1      -7.539  12.124  18.087  1.00  0.00     0.274 HD
ENDBRANCH  21  22
ENDBRANCH  20  21
ENDBRANCH  18  20
ENDBRANCH  15  18
ENDBRANCH   1  15
TORSDOF 5
ENDMDL
