MODEL 1
REMARK VINA RESULT: -6.796137962      0.000      0.000
REMARK  4 active torsions:
REMARK  status: ('A' for Active; 'I' for Inactive)
REMARK    1  A    between atoms: N1_1  and  C1_4 
REMARK    2  A    between atoms: C2_7  and  N3_8 
REMARK    3  A    between atoms: C7_16  and  N5_17 
REMARK    4  A    between atoms: C11_22  and  C12_23 
ROOT
HETATM    1  C1  UNL     1      -1.210   8.888  19.738  1.00  0.00     0.129 A 
HETATM    2  N2  UNL     1      -2.508   8.940  19.425  1.00  0.00    -0.176 N 
ATOM      3  H2  UNL     1      -2.959   9.855  19.397  1.00  0.00     0.186 HD
HETATM    4  C2  UNL     1      -3.259   7.853  19.144  1.00  0.00     0.683 A 
HETATM    5  N4  UNL     1      -2.668   6.652  19.182  1.00  0.00    -0.175 N 
ATOM      6  H4  UNL     1      -3.217   5.818  18.973  1.00  0.00     0.186 HD
HETATM    7  C7  UNL     1      -1.340   6.521  19.495  1.00  0.00     0.140 A 
HETATM    8  C11 UNL     1      -0.592   7.641  19.777  1.00  0.00     0.063 A 
ENDROOT
BRANCH   4   9
HETATM    9  N3  UNL     1      -4.645   7.977  18.813  1.00  0.00    -0.213 N 
HETATM   10  C3  UNL     1      -5.626   7.121  19.455  1.00  0.00     0.167 C 
HETATM   11  C4  UNL     1      -6.947   7.820  19.530  1.00  0.00     0.188 C 
HETATM   12  O1  UNL     1      -7.320   8.163  18.220  1.00  0.00    -0.388 OA
HETATM   13  C5  UNL     1      -6.547   9.237  17.858  1.00  0.00     0.188 C 
HETATM   14  C6  UNL     1      -5.070   8.943  17.854  1.00  0.00     0.167 C 
ENDBRANCH   4   9
BRANCH   1  15
HETATM   15  N1  UNL     1      -0.475   9.899  20.013  1.00  0.00    -0.384 N 
ATOM     16  H12 UNL     1      -0.847  10.563  20.692  1.00  0.00     0.157 HD
ATOM     17  H11 UNL     1       0.441  10.091  19.606  1.00  0.00     0.157 HD
ENDBRANCH   1  15
BRANCH   7  18
HETATM   18  N5  UNL     1      -0.721   5.252  19.538  1.00  0.00    -0.302 N 
HETATM   19  C8  UNL     1      -0.576   4.174  20.482  1.00  0.00     0.143 C 
HETATM   20  C9  UNL     1      -0.660   3.285  19.229  1.00  0.00     0.123 C 
HETATM   21  C10 UNL     1       0.037   4.481  18.623  1.00  0.00     0.227 C 
HETATM   22  O2  UNL     1       0.893   4.691  17.722  1.00  0.00    -0.273 OA
ENDBRANCH   7  18
BRANCH   8  23
HETATM   23  C12 UNL     1       0.819   7.516  20.115  1.00  0.00    -0.018 A 
HETATM   24  C13 UNL     1       1.772   7.659  19.162  1.00  0.00     0.012 A 
HETATM   25  C14 UNL     1       3.098   7.532  19.485  1.00  0.00     0.001 A 
HETATM   26  C15 UNL     1       3.437   7.257  20.792  1.00  0.00     0.000 A 
HETATM   27  C16 UNL     1       2.497   7.105  21.787  1.00  0.00     0.001 A 
HETATM   28  C17 UNL     1       1.172   7.241  21.420  1.00  0.00     0.012 A 
ENDBRANCH   8  23
TORSDOF 4
ENDMDL
MODEL 2
REMARK VINA RESULT: -6.752336327      3.017      4.827
REMARK  4 active torsions:
REMARK  status: ('A' for Active; 'I' for Inactive)
REMARK    1  A    between atoms: N1_1  and  C1_4 
REMARK    2  A    between atoms: C2_7  and  N3_8 
REMARK    3  A    between atoms: C7_16  and  N5_17 
REMARK    4  A    between atoms: C11_22  and  C12_23 
ROOT
HETATM    1  C1  UNL     1      -2.389   8.553  19.631  1.00  0.00     0.129 A 
HETATM    2  N2  UNL     1      -2.508   9.883  19.690  1.00  0.00    -0.176 N 
ATOM      3  H2  UNL     1      -3.448  10.281  19.689  1.00  0.00     0.186 HD
HETATM    4  C2  UNL     1      -1.460  10.732  19.751  1.00  0.00     0.683 A 
HETATM    5  N4  UNL     1      -0.226  10.210  19.752  1.00  0.00    -0.175 N 
ATOM      6  H4  UNL     1       0.580  10.833  19.797  1.00  0.00     0.186 HD
HETATM    7  C7  UNL     1      -0.026   8.855  19.694  1.00  0.00     0.140 A 
HETATM    8  C11 UNL     1      -1.108   8.008  19.633  1.00  0.00     0.063 A 
ENDROOT
BRANCH   4   9
HETATM    9  N3  UNL     1      -1.656  12.147  19.815  1.00  0.00    -0.213 N 
HETATM   10  C3  UNL     1      -2.814  12.751  19.182  1.00  0.00     0.167 C 
HETATM   11  C4  UNL     1      -3.203  14.001  19.906  1.00  0.00     0.188 C 
HETATM   12  O1  UNL     1      -2.089  14.858  19.900  1.00  0.00    -0.388 OA
HETATM   13  C5  UNL     1      -1.204  14.360  20.823  1.00  0.00     0.188 C 
HETATM   14  C6  UNL     1      -0.717  12.971  20.504  1.00  0.00     0.167 C 
ENDBRANCH   4   9
BRANCH   1  15
HETATM   15  N1  UNL     1      -3.363   7.726  19.569  1.00  0.00    -0.384 N 
ATOM     16  H12 UNL     1      -3.956   7.656  20.395  1.00  0.00     0.157 HD
ATOM     17  H11 UNL     1      -3.585   7.136  18.766  1.00  0.00     0.157 HD
ENDBRANCH   1  15
BRANCH   7  18
HETATM   18  N5  UNL     1       1.277   8.309  19.690  1.00  0.00    -0.302 N 
HETATM   19  C8  UNL     1       2.246   7.872  20.661  1.00  0.00     0.143 C 
HETATM   20  C9  UNL     1       2.582   6.808  19.602  1.00  0.00     0.123 C 
HETATM   21  C10 UNL     1       2.203   7.944  18.681  1.00  0.00     0.227 C 
HETATM   22  O2  UNL     1       2.548   8.367  17.546  1.00  0.00    -0.273 OA
ENDBRANCH   7  18
BRANCH   8  23
HETATM   23  C12 UNL     1      -0.909   6.567  19.567  1.00  0.00    -0.018 A 
HETATM   24  C13 UNL     1      -0.805   5.831  20.702  1.00  0.00     0.012 A 
HETATM   25  C14 UNL     1      -0.610   4.477  20.632  1.00  0.00     0.001 A 
HETATM   26  C15 UNL     1      -0.522   3.884  19.392  1.00  0.00     0.000 A 
HETATM   27  C16 UNL     1      -0.622   4.598  18.219  1.00  0.00     0.001 A 
HETATM   28  C17 UNL     1      -0.819   5.960  18.332  1.00  0.00     0.012 A 
ENDBRANCH   8  23
TORSDOF 4
ENDMDL
MODEL 3
REMARK VINA RESULT: -6.690267578      2.449      6.659
REMARK  4 active torsions:
REMARK  status: ('A' for Active; 'I' for Inactive)
REMARK    1  A    between atoms: N1_1  and  C1_4 
REMARK    2  A    between atoms: C2_7  and  N3_8 
REMARK    3  A    between atoms: C7_16  and  N5_17 
REMARK    4  A    between atoms: C11_22  and  C12_23 
ROOT
HETATM    1  C1  UNL     1      -0.167   8.382  20.120  1.00  0.00     0.129 A 
HETATM    2  N2  UNL     1       1.165   8.364  20.018  1.00  0.00    -0.176 N 
ATOM      3  H2  UNL     1       1.685   9.161  20.388  1.00  0.00     0.186 HD
HETATM    4  C2  UNL     1       1.865   7.356  19.455  1.00  0.00     0.683 A 
HETATM    5  N4  UNL     1       1.183   6.311  18.969  1.00  0.00    -0.175 N 
ATOM      6  H4  UNL     1       1.692   5.538  18.539  1.00  0.00     0.186 HD
HETATM    7  C7  UNL     1      -0.185   6.259  19.037  1.00  0.00     0.140 A 
HETATM    8  C11 UNL     1      -0.879   7.296  19.616  1.00  0.00     0.063 A 
ENDROOT
BRANCH   4   9
HETATM    9  N3  UNL     1       3.293   7.397  19.380  1.00  0.00    -0.213 N 
HETATM   10  C3  UNL     1       4.088   7.312  20.591  1.00  0.00     0.167 C 
HETATM   11  C4  UNL     1       5.416   6.690  20.291  1.00  0.00     0.188 C 
HETATM   12  O1  UNL     1       6.037   7.473  19.304  1.00  0.00    -0.388 OA
HETATM   13  C5  UNL     1       5.410   7.183  18.119  1.00  0.00     0.188 C 
HETATM   14  C6  UNL     1       3.942   7.519  18.115  1.00  0.00     0.167 C 
ENDBRANCH   4   9
BRANCH   1  15
HETATM   15  N1  UNL     1      -0.856   9.324  20.644  1.00  0.00    -0.384 N 
ATOM     16  H12 UNL     1      -1.661   9.044  21.203  1.00  0.00     0.157 HD
ATOM     17  H11 UNL     1      -0.664  10.322  20.542  1.00  0.00     0.157 HD
ENDBRANCH   1  15
BRANCH   7  18
HETATM   18  N5  UNL     1      -0.901   5.156  18.519  1.00  0.00    -0.302 N 
HETATM   19  C8  UNL     1      -1.784   4.890  17.414  1.00  0.00     0.143 C 
HETATM   20  C9  UNL     1      -1.091   3.517  17.405  1.00  0.00     0.123 C 
HETATM   21  C10 UNL     1      -1.041   3.796  18.889  1.00  0.00     0.227 C 
HETATM   22  O2  UNL     1      -1.097   3.128  19.956  1.00  0.00    -0.273 OA
ENDBRANCH   7  18
BRANCH   8  23
HETATM   23  C12 UNL     1      -2.332   7.255  19.692  1.00  0.00    -0.018 A 
HETATM   24  C13 UNL     1      -2.952   6.595  20.702  1.00  0.00     0.012 A 
HETATM   25  C14 UNL     1      -4.320   6.554  20.763  1.00  0.00     0.001 A 
HETATM   26  C15 UNL     1      -5.047   7.194  19.782  1.00  0.00     0.000 A 
HETATM   27  C16 UNL     1      -4.452   7.873  18.742  1.00  0.00     0.001 A 
HETATM   28  C17 UNL     1      -3.071   7.892  18.717  1.00  0.00     0.012 A 
ENDBRANCH   8  23
TORSDOF 4
ENDMDL
MODEL 4
REMARK VINA RESULT: -6.687561139      0.584      1.138
REMARK  4 active torsions:
REMARK  status: ('A' for Active; 'I' for Inactive)
REMARK    1  A    between atoms: N1_1  and  C1_4 
REMARK    2  A    between atoms: C2_7  and  N3_8 
REMARK    3  A    between atoms: C7_16  and  N5_17 
REMARK    4  A    between atoms: C11_22  and  C12_23 
ROOT
HETATM    1  C1  UNL     1      -0.713   9.187  19.709  1.00  0.00     0.129 A 
HETATM    2  N2  UNL     1      -1.995   9.359  19.372  1.00  0.00    -0.176 N 
ATOM      3  H2  UNL     1      -2.359  10.312  19.338  1.00  0.00     0.186 HD
HETATM    4  C2  UNL     1      -2.839   8.348  19.074  1.00  0.00     0.683 A 
HETATM    5  N4  UNL     1      -2.362   7.097  19.119  1.00  0.00    -0.175 N 
ATOM      6  H4  UNL     1      -2.982   6.317  18.897  1.00  0.00     0.186 HD
HETATM    7  C7  UNL     1      -1.058   6.842  19.456  1.00  0.00     0.140 A 
HETATM    8  C11 UNL     1      -0.215   7.888  19.755  1.00  0.00     0.063 A 
ENDROOT
BRANCH   4   9
HETATM    9  N3  UNL     1      -4.201   8.600  18.718  1.00  0.00    -0.213 N 
HETATM   10  C3  UNL     1      -5.237   7.654  19.089  1.00  0.00     0.167 C 
HETATM   11  C4  UNL     1      -6.541   8.365  19.268  1.00  0.00     0.188 C 
HETATM   12  O1  UNL     1      -6.833   9.024  18.062  1.00  0.00    -0.388 OA
HETATM   13  C5  UNL     1      -6.014  10.123  18.005  1.00  0.00     0.188 C 
HETATM   14  C6  UNL     1      -4.547   9.782  17.999  1.00  0.00     0.167 C 
ENDBRANCH   4   9
BRANCH   1  15
HETATM   15  N1  UNL     1       0.107  10.126  20.000  1.00  0.00    -0.384 N 
ATOM     16  H12 UNL     1      -0.094  11.045  19.607  1.00  0.00     0.157 HD
ATOM     17  H11 UNL     1       0.936  10.023  20.586  1.00  0.00     0.157 HD
ENDBRANCH   1  15
BRANCH   7  18
HETATM   18  N5  UNL     1      -0.560   5.521  19.506  1.00  0.00    -0.302 N 
HETATM   19  C8  UNL     1      -0.535   4.433  20.448  1.00  0.00     0.143 C 
HETATM   20  C9  UNL     1      -0.675   3.559  19.190  1.00  0.00     0.123 C 
HETATM   21  C10 UNL     1       0.143   4.686  18.604  1.00  0.00     0.227 C 
HETATM   22  O2  UNL     1       1.034   4.818  17.723  1.00  0.00    -0.273 OA
ENDBRANCH   7  18
BRANCH   8  23
HETATM   23  C12 UNL     1       1.172   7.632  20.119  1.00  0.00    -0.018 A 
HETATM   24  C13 UNL     1       1.512   7.380  21.407  1.00  0.00     0.012 A 
HETATM   25  C14 UNL     1       2.820   7.147  21.743  1.00  0.00     0.001 A 
HETATM   26  C15 UNL     1       3.774   7.175  20.749  1.00  0.00     0.000 A 
HETATM   27  C16 UNL     1       3.466   7.427  19.431  1.00  0.00     0.001 A 
HETATM   28  C17 UNL     1       2.137   7.656  19.133  1.00  0.00     0.012 A 
ENDBRANCH   8  23
TORSDOF 4
ENDMDL
MODEL 5
REMARK VINA RESULT: -6.669082373      1.593      2.061
REMARK  4 active torsions:
REMARK  status: ('A' for Active; 'I' for Inactive)
REMARK    1  A    between atoms: N1_1  and  C1_4 
REMARK    2  A    between atoms: C2_7  and  N3_8 
REMARK    3  A    between atoms: C7_16  and  N5_17 
REMARK    4  A    between atoms: C11_22  and  C12_23 
ROOT
HETATM    1  C1  UNL     1      -0.977   9.858  19.567  1.00  0.00     0.129 A 
HETATM    2  N2  UNL     1      -2.165  10.167  19.040  1.00  0.00    -0.176 N 
ATOM      3  H2  UNL     1      -2.394  11.154  18.918  1.00  0.00     0.186 HD
HETATM    4  C2  UNL     1      -3.081   9.251  18.658  1.00  0.00     0.683 A 
HETATM    5  N4  UNL     1      -2.781   7.956  18.818  1.00  0.00    -0.175 N 
ATOM      6  H4  UNL     1      -3.459   7.247  18.537  1.00  0.00     0.186 HD
HETATM    7  C7  UNL     1      -1.581   7.563  19.353  1.00  0.00     0.140 A 
HETATM    8  C11 UNL     1      -0.661   8.512  19.734  1.00  0.00     0.063 A 
ENDROOT
BRANCH   4   9
HETATM    9  N3  UNL     1      -4.335   9.648  18.096  1.00  0.00    -0.213 N 
HETATM   10  C3  UNL     1      -5.380   8.664  17.879  1.00  0.00     0.167 C 
HETATM   11  C4  UNL     1      -6.725   9.312  17.972  1.00  0.00     0.188 C 
HETATM   12  O1  UNL     1      -6.764  10.345  17.020  1.00  0.00    -0.388 OA
HETATM   13  C5  UNL     1      -6.011  11.375  17.525  1.00  0.00     0.188 C 
HETATM   14  C6  UNL     1      -4.567  11.013  17.751  1.00  0.00     0.167 C 
ENDBRANCH   4   9
BRANCH   1  15
HETATM   15  N1  UNL     1      -0.092  10.704  19.941  1.00  0.00    -0.384 N 
ATOM     16  H12 UNL     1      -0.431  11.622  20.227  1.00  0.00     0.157 HD
ATOM     17  H11 UNL     1       0.913  10.531  19.972  1.00  0.00     0.157 HD
ENDBRANCH   1  15
BRANCH   7  18
HETATM   18  N5  UNL     1      -1.271   6.195  19.524  1.00  0.00    -0.302 N 
HETATM   19  C8  UNL     1      -0.811   5.102  18.709  1.00  0.00     0.143 C 
HETATM   20  C9  UNL     1      -0.056   4.686  19.983  1.00  0.00     0.123 C 
HETATM   21  C10 UNL     1      -1.278   5.302  20.624  1.00  0.00     0.227 C 
HETATM   22  O2  UNL     1      -1.976   5.110  21.655  1.00  0.00    -0.273 OA
ENDBRANCH   7  18
BRANCH   8  23
HETATM   23  C12 UNL     1       0.615   8.109  20.307  1.00  0.00    -0.018 A 
HETATM   24  C13 UNL     1       0.758   7.974  21.649  1.00  0.00     0.012 A 
HETATM   25  C14 UNL     1       1.964   7.602  22.181  1.00  0.00     0.001 A 
HETATM   26  C15 UNL     1       3.021   7.368  21.328  1.00  0.00     0.000 A 
HETATM   27  C16 UNL     1       2.913   7.494  19.961  1.00  0.00     0.001 A 
HETATM   28  C17 UNL     1       1.681   7.871  19.464  1.00  0.00     0.012 A 
ENDBRANCH   8  23
TORSDOF 4
ENDMDL
