MODEL 1
REMARK VINA RESULT: -6.676941542      0.000      0.000
REMARK  8 active torsions:
REMARK  status: ('A' for Active; 'I' for Inactive)
REMARK    1  A    between atoms: N1_3  and  C4_5 
REMARK    2  A    between atoms: C4_5  and  C5_6 
REMARK    3  A    between atoms: C5_6  and  N2_7 
REMARK    4  A    between atoms: N2_7  and  C7_9 
REMARK    5  A    between atoms: C7_9  and  C8_10 
REMARK    6  A    between atoms: C8_10  and  C9_11 
REMARK    7  A    between atoms: C9_11  and  N3_12 
REMARK    8  A    between atoms: C11_19  and  N6_20 
ROOT
HETATM    1  C1  UNL     1     -22.235   2.980  -6.884  1.00  0.00     0.037 C 
HETATM    2  C2  UNL     1     -22.917   2.061  -6.509  1.00  0.00    -0.004 C 
HETATM    3  N1  UNL     1     -23.729   1.019  -6.077  1.00  0.00    -0.345 N 
HETATM    4  C3  UNL     1     -23.307  -0.350  -6.271  1.00  0.00     0.160 C 
ENDROOT
BRANCH   3   5
HETATM    5  C4  UNL     1     -25.031   1.228  -5.440  1.00  0.00     0.151 C 
BRANCH   5   6
HETATM    6  C5  UNL     1     -26.122   1.580  -6.378  1.00  0.00     0.141 C 
BRANCH   6   7
HETATM    7  N2  UNL     1     -26.822   0.505  -6.996  1.00  0.00    -0.396 N 
HETATM    8  C6  UNL     1     -27.942   0.084  -6.286  1.00  0.00     0.148 C 
BRANCH   7   9
HETATM    9  C7  UNL     1     -26.652   0.411  -8.355  1.00  0.00     0.059 C 
BRANCH   9  10
HETATM   10  C8  UNL     1     -25.637   1.301  -9.046  1.00  0.00     0.064 C 
BRANCH  10  11
HETATM   11  C9  UNL     1     -24.492   0.534  -9.657  1.00  0.00     0.127 C 
BRANCH  11  12
HETATM   12  N3  UNL     1     -23.427   1.388 -10.069  1.00  0.00    -0.369 N 
HETATM   13  C10 UNL     1     -22.205   1.027 -10.199  1.00  0.00     0.162 A 
HETATM   14  N4  UNL     1     -21.591  -0.140 -10.013  1.00  0.00    -0.278 N 
HETATM   15  S1  UNL     1     -20.882   2.023 -10.712  1.00  0.00    -0.016 SA
HETATM   16  N5  UNL     1     -20.337  -0.235 -10.230  1.00  0.00    -0.278 N 
ATOM     17  H4  UNL     1     -22.119  -0.954  -9.698  1.00  0.00     0.189 HD
HETATM   18  C11 UNL     1     -19.665   0.836 -10.638  1.00  0.00     0.160 A 
ATOM     19  H5  UNL     1     -19.855  -1.124 -10.093  1.00  0.00     0.189 HD
ATOM     20  H3  UNL     1     -23.656   2.361 -10.275  1.00  0.00     0.161 HD
BRANCH  18  21
HETATM   21  N6  UNL     1     -18.385   0.940 -10.911  1.00  0.00    -0.379 N 
ATOM     22  H62 UNL     1     -17.842   0.488 -11.647  1.00  0.00     0.158 HD
ATOM     23  H61 UNL     1     -17.679   1.498 -10.431  1.00  0.00     0.158 HD
ENDBRANCH  18  21
ENDBRANCH  11  12
ENDBRANCH  10  11
ENDBRANCH   9  10
ENDBRANCH   7   9
ENDBRANCH   6   7
ENDBRANCH   5   6
ENDBRANCH   3   5
TORSDOF 8
ENDMDL
MODEL 2
REMARK VINA RESULT: -6.549759086      1.007      1.199
REMARK  8 active torsions:
REMARK  status: ('A' for Active; 'I' for Inactive)
REMARK    1  A    between atoms: N1_3  and  C4_5 
REMARK    2  A    between atoms: C4_5  and  C5_6 
REMARK    3  A    between atoms: C5_6  and  N2_7 
REMARK    4  A    between atoms: N2_7  and  C7_9 
REMARK    5  A    between atoms: C7_9  and  C8_10 
REMARK    6  A    between atoms: C8_10  and  C9_11 
REMARK    7  A    between atoms: C9_11  and  N3_12 
REMARK    8  A    between atoms: C11_19  and  N6_20 
ROOT
HETATM    1  C1  UNL     1     -21.414   3.435  -7.333  1.00  0.00     0.037 C 
HETATM    2  C2  UNL     1     -22.374   2.867  -6.880  1.00  0.00    -0.004 C 
HETATM    3  N1  UNL     1     -23.499   2.220  -6.380  1.00  0.00    -0.345 N 
HETATM    4  C3  UNL     1     -23.348   1.162  -5.407  1.00  0.00     0.160 C 
ENDROOT
BRANCH   3   5
HETATM    5  C4  UNL     1     -24.863   2.539  -6.809  1.00  0.00     0.151 C 
BRANCH   5   6
HETATM    6  C5  UNL     1     -25.859   1.484  -6.516  1.00  0.00     0.141 C 
BRANCH   6   7
HETATM    7  N2  UNL     1     -26.231   0.622  -7.588  1.00  0.00    -0.396 N 
HETATM    8  C6  UNL     1     -27.514   0.097  -7.464  1.00  0.00     0.148 C 
BRANCH   7   9
HETATM    9  C7  UNL     1     -25.567   0.849  -8.767  1.00  0.00     0.059 C 
BRANCH   9  10
HETATM   10  C8  UNL     1     -24.840  -0.294  -9.449  1.00  0.00     0.064 C 
BRANCH  10  11
HETATM   11  C9  UNL     1     -23.380  -0.375  -9.083  1.00  0.00     0.127 C 
BRANCH  11  12
HETATM   12  N3  UNL     1     -22.627   0.711  -9.618  1.00  0.00    -0.369 N 
HETATM   13  C10 UNL     1     -21.411   0.636 -10.013  1.00  0.00     0.162 A 
HETATM   14  N4  UNL     1     -20.540  -0.371 -10.050  1.00  0.00    -0.278 N 
HETATM   15  S1  UNL     1     -20.462   1.922 -10.685  1.00  0.00    -0.016 SA
HETATM   16  N5  UNL     1     -19.368  -0.175 -10.513  1.00  0.00    -0.278 N 
ATOM     17  H4  UNL     1     -20.810  -1.294  -9.710  1.00  0.00     0.189 HD
HETATM   18  C11 UNL     1     -19.035   1.034 -10.949  1.00  0.00     0.160 A 
ATOM     19  H5  UNL     1     -18.693  -0.940 -10.548  1.00  0.00     0.189 HD
ATOM     20  H3  UNL     1     -23.092   1.616  -9.692  1.00  0.00     0.161 HD
BRANCH  18  21
HETATM   21  N6  UNL     1     -17.890   1.431 -11.455  1.00  0.00    -0.379 N 
ATOM     22  H62 UNL     1     -17.043   0.893 -11.639  1.00  0.00     0.158 HD
ATOM     23  H61 UNL     1     -17.625   2.366 -11.765  1.00  0.00     0.158 HD
ENDBRANCH  18  21
ENDBRANCH  11  12
ENDBRANCH  10  11
ENDBRANCH   9  10
ENDBRANCH   7   9
ENDBRANCH   6   7
ENDBRANCH   5   6
ENDBRANCH   3   5
TORSDOF 8
ENDMDL
MODEL 3
REMARK VINA RESULT: -6.381823235      1.189      2.896
REMARK  8 active torsions:
REMARK  status: ('A' for Active; 'I' for Inactive)
REMARK    1  A    between atoms: N1_3  and  C4_5 
REMARK    2  A    between atoms: C4_5  and  C5_6 
REMARK    3  A    between atoms: C5_6  and  N2_7 
REMARK    4  A    between atoms: N2_7  and  C7_9 
REMARK    5  A    between atoms: C7_9  and  C8_10 
REMARK    6  A    between atoms: C8_10  and  C9_11 
REMARK    7  A    between atoms: C9_11  and  N3_12 
REMARK    8  A    between atoms: C11_19  and  N6_20 
ROOT
HETATM    1  C1  UNL     1     -28.178   0.424  -6.359  1.00  0.00     0.037 C 
HETATM    2  C2  UNL     1     -27.338  -0.003  -5.610  1.00  0.00    -0.004 C 
HETATM    3  N1  UNL     1     -26.353  -0.473  -4.749  1.00  0.00    -0.345 N 
HETATM    4  C3  UNL     1     -26.682  -1.464  -3.750  1.00  0.00     0.160 C 
ENDROOT
BRANCH   3   5
HETATM    5  C4  UNL     1     -24.968   0.006  -4.780  1.00  0.00     0.151 C 
BRANCH   5   6
HETATM    6  C5  UNL     1     -24.804   1.370  -5.331  1.00  0.00     0.141 C 
BRANCH   6   7
HETATM    7  N2  UNL     1     -24.019   1.506  -6.512  1.00  0.00    -0.396 N 
HETATM    8  C6  UNL     1     -22.929   2.358  -6.365  1.00  0.00     0.148 C 
BRANCH   7   9
HETATM    9  C7  UNL     1     -24.098   0.448  -7.382  1.00  0.00     0.059 C 
BRANCH   9  10
HETATM   10  C8  UNL     1     -24.900   0.588  -8.662  1.00  0.00     0.064 C 
BRANCH  10  11
HETATM   11  C9  UNL     1     -24.135   0.171  -9.892  1.00  0.00     0.127 C 
BRANCH  11  12
HETATM   12  N3  UNL     1     -23.163   1.139 -10.280  1.00  0.00    -0.369 N 
HETATM   13  C10 UNL     1     -21.910   0.908 -10.410  1.00  0.00     0.162 A 
HETATM   14  N4  UNL     1     -21.178  -0.192 -10.243  1.00  0.00    -0.278 N 
HETATM   15  S1  UNL     1     -20.695   2.046 -10.894  1.00  0.00    -0.016 SA
HETATM   16  N5  UNL     1     -19.921  -0.152 -10.454  1.00  0.00    -0.278 N 
ATOM     17  H4  UNL     1     -21.621  -1.063  -9.948  1.00  0.00     0.189 HD
HETATM   18  C11 UNL     1     -19.361   0.991 -10.836  1.00  0.00     0.160 A 
ATOM     19  H5  UNL     1     -19.350  -0.989 -10.332  1.00  0.00     0.189 HD
ATOM     20  H3  UNL     1     -23.490   2.086 -10.468  1.00  0.00     0.161 HD
BRANCH  18  21
HETATM   21  N6  UNL     1     -18.098   1.232 -11.098  1.00  0.00    -0.379 N 
ATOM     22  H62 UNL     1     -17.575   1.075 -11.960  1.00  0.00     0.158 HD
ATOM     23  H61 UNL     1     -17.388   1.628 -10.482  1.00  0.00     0.158 HD
ENDBRANCH  18  21
ENDBRANCH  11  12
ENDBRANCH  10  11
ENDBRANCH   9  10
ENDBRANCH   7   9
ENDBRANCH   6   7
ENDBRANCH   5   6
ENDBRANCH   3   5
TORSDOF 8
ENDMDL
MODEL 4
REMARK VINA RESULT: -6.352205909      1.520      3.158
REMARK  8 active torsions:
REMARK  status: ('A' for Active; 'I' for Inactive)
REMARK    1  A    between atoms: N1_3  and  C4_5 
REMARK    2  A    between atoms: C4_5  and  C5_6 
REMARK    3  A    between atoms: C5_6  and  N2_7 
REMARK    4  A    between atoms: N2_7  and  C7_9 
REMARK    5  A    between atoms: C7_9  and  C8_10 
REMARK    6  A    between atoms: C8_10  and  C9_11 
REMARK    7  A    between atoms: C9_11  and  N3_12 
REMARK    8  A    between atoms: C11_19  and  N6_20 
ROOT
HETATM    1  C1  UNL     1     -26.658  -1.530  -3.759  1.00  0.00     0.037 C 
HETATM    2  C2  UNL     1     -27.154  -0.711  -4.488  1.00  0.00    -0.004 C 
HETATM    3  N1  UNL     1     -27.715   0.221  -5.354  1.00  0.00    -0.345 N 
HETATM    4  C3  UNL     1     -28.875   0.980  -4.942  1.00  0.00     0.160 C 
ENDROOT
BRANCH   3   5
HETATM    5  C4  UNL     1     -27.202   0.472  -6.703  1.00  0.00     0.151 C 
BRANCH   5   6
HETATM    6  C5  UNL     1     -25.735   0.659  -6.775  1.00  0.00     0.141 C 
BRANCH   6   7
HETATM    7  N2  UNL     1     -25.248   1.648  -7.677  1.00  0.00    -0.396 N 
HETATM    8  C6  UNL     1     -24.482   2.636  -7.063  1.00  0.00     0.148 C 
BRANCH   7   9
HETATM    9  C7  UNL     1     -25.127   1.233  -8.979  1.00  0.00     0.059 C 
BRANCH   9  10
HETATM   10  C8  UNL     1     -24.694  -0.190  -9.275  1.00  0.00     0.064 C 
BRANCH  10  11
HETATM   11  C9  UNL     1     -23.203  -0.390  -9.182  1.00  0.00     0.127 C 
BRANCH  11  12
HETATM   12  N3  UNL     1     -22.475   0.720  -9.704  1.00  0.00    -0.369 N 
HETATM   13  C10 UNL     1     -21.258   0.677 -10.102  1.00  0.00     0.162 A 
HETATM   14  N4  UNL     1     -20.366  -0.311 -10.154  1.00  0.00    -0.278 N 
HETATM   15  S1  UNL     1     -20.339   1.992 -10.758  1.00  0.00    -0.016 SA
HETATM   16  N5  UNL     1     -19.199  -0.083 -10.616  1.00  0.00    -0.278 N 
ATOM     17  H4  UNL     1     -20.614  -1.244  -9.826  1.00  0.00     0.189 HD
HETATM   18  C11 UNL     1     -18.893   1.140 -11.037  1.00  0.00     0.160 A 
ATOM     19  H5  UNL     1     -18.508  -0.831 -10.663  1.00  0.00     0.189 HD
ATOM     20  H3  UNL     1     -22.960   1.615  -9.764  1.00  0.00     0.161 HD
BRANCH  18  21
HETATM   21  N6  UNL     1     -17.758   1.568 -11.539  1.00  0.00    -0.379 N 
ATOM     22  H62 UNL     1     -16.861   1.088 -11.611  1.00  0.00     0.158 HD
ATOM     23  H61 UNL     1     -17.554   2.475 -11.959  1.00  0.00     0.158 HD
ENDBRANCH  18  21
ENDBRANCH  11  12
ENDBRANCH  10  11
ENDBRANCH   9  10
ENDBRANCH   7   9
ENDBRANCH   6   7
ENDBRANCH   5   6
ENDBRANCH   3   5
TORSDOF 8
ENDMDL
MODEL 5
REMARK VINA RESULT: -6.241200527      1.683      2.214
REMARK  8 active torsions:
REMARK  status: ('A' for Active; 'I' for Inactive)
REMARK    1  A    between atoms: N1_3  and  C4_5 
REMARK    2  A    between atoms: C4_5  and  C5_6 
REMARK    3  A    between atoms: C5_6  and  N2_7 
REMARK    4  A    between atoms: N2_7  and  C7_9 
REMARK    5  A    between atoms: C7_9  and  C8_10 
REMARK    6  A    between atoms: C8_10  and  C9_11 
REMARK    7  A    between atoms: C9_11  and  N3_12 
REMARK    8  A    between atoms: C11_19  and  N6_20 
ROOT
HETATM    1  C1  UNL     1     -24.005   0.789  -4.413  1.00  0.00     0.037 C 
HETATM    2  C2  UNL     1     -25.069   0.231  -4.493  1.00  0.00    -0.004 C 
HETATM    3  N1  UNL     1     -26.301  -0.403  -4.613  1.00  0.00    -0.345 N 
HETATM    4  C3  UNL     1     -26.612  -1.536  -3.771  1.00  0.00     0.160 C 
ENDROOT
BRANCH   3   5
HETATM    5  C4  UNL     1     -27.321   0.005  -5.582  1.00  0.00     0.151 C 
BRANCH   5   6
HETATM    6  C5  UNL     1     -26.838   0.944  -6.620  1.00  0.00     0.141 C 
BRANCH   6   7
HETATM    7  N2  UNL     1     -26.461   0.389  -7.877  1.00  0.00    -0.396 N 
HETATM    8  C6  UNL     1     -27.540  -0.027  -8.651  1.00  0.00     0.148 C 
BRANCH   7   9
HETATM    9  C7  UNL     1     -25.247   0.815  -8.355  1.00  0.00     0.059 C 
BRANCH   9  10
HETATM   10  C8  UNL     1     -24.001  -0.002  -8.071  1.00  0.00     0.064 C 
BRANCH  10  11
HETATM   11  C9  UNL     1     -23.206  -0.323  -9.311  1.00  0.00     0.127 C 
BRANCH  11  12
HETATM   12  N3  UNL     1     -22.427   0.785  -9.757  1.00  0.00    -0.369 N 
HETATM   13  C10 UNL     1     -21.210   0.716 -10.148  1.00  0.00     0.162 A 
HETATM   14  N4  UNL     1     -20.359  -0.303 -10.255  1.00  0.00    -0.278 N 
HETATM   15  S1  UNL     1     -20.230   2.029 -10.714  1.00  0.00    -0.016 SA
HETATM   16  N5  UNL     1     -19.179  -0.097 -10.694  1.00  0.00    -0.278 N 
ATOM     17  H4  UNL     1     -20.649  -1.244  -9.988  1.00  0.00     0.189 HD
HETATM   18  C11 UNL     1     -18.818   1.136 -11.035  1.00  0.00     0.160 A 
ATOM     19  H5  UNL     1     -18.519  -0.869 -10.783  1.00  0.00     0.189 HD
ATOM     20  H3  UNL     1     -22.874   1.702  -9.765  1.00  0.00     0.161 HD
BRANCH  18  21
HETATM   21  N6  UNL     1     -17.662   1.546 -11.501  1.00  0.00    -0.379 N 
ATOM     22  H62 UNL     1     -16.740   1.121 -11.409  1.00  0.00     0.158 HD
ATOM     23  H61 UNL     1     -17.462   2.381 -12.052  1.00  0.00     0.158 HD
ENDBRANCH  18  21
ENDBRANCH  11  12
ENDBRANCH  10  11
ENDBRANCH   9  10
ENDBRANCH   7   9
ENDBRANCH   6   7
ENDBRANCH   5   6
ENDBRANCH   3   5
TORSDOF 8
ENDMDL
