MODEL 1
REMARK VINA RESULT: -5.981592965      0.000      0.000
REMARK  8 active torsions:
REMARK  status: ('A' for Active; 'I' for Inactive)
REMARK    1  A    between atoms: S1_2  and  C2_3 
REMARK    2  A    between atoms: C2_3  and  C3_4 
REMARK    3  A    between atoms: C3_4  and  N1_5 
REMARK    4  A    between atoms: N1_5  and  C4_7 
REMARK    5  A    between atoms: C4_7  and  C5_8 
REMARK    6  A    between atoms: C5_8  and  C6_9 
REMARK    7  A    between atoms: C11_17  and  C12_18 
REMARK    8  A    between atoms: C12_18  and  O1_19 
ROOT
HETATM    1  C6  UNL     1     -23.811   2.643  -7.812  1.00  0.00     0.125 C 
HETATM    2  C7  UNL     1     -24.366   2.669  -6.432  1.00  0.00     0.065 C 
HETATM    3  C8  UNL     1     -23.981   1.549  -5.536  1.00  0.00     0.191 C 
HETATM    4  C9  UNL     1     -25.019   0.448  -5.804  1.00  0.00     0.068 C 
HETATM    5  C10 UNL     1     -23.970  -0.072  -6.713  1.00  0.00     0.219 C 
HETATM    6  N2  UNL     1     -22.986   0.651  -5.959  1.00  0.00    -0.064 N 
ATOM      7  H21 UNL     1     -22.409   0.166  -5.272  1.00  0.00     0.278 HD
ATOM      8  H22 UNL     1     -22.144   0.999  -6.418  1.00  0.00     0.278 HD
HETATM    9  C11 UNL     1     -24.064   0.328  -8.137  1.00  0.00     0.176 C 
HETATM   10  O2  UNL     1     -23.574   1.537  -8.474  1.00  0.00    -0.376 OA
ENDROOT
BRANCH   1  11
HETATM   11  C5  UNL     1     -22.615   3.577  -7.880  1.00  0.00     0.051 C 
BRANCH  11  12
HETATM   12  C4  UNL     1     -21.433   2.985  -8.637  1.00  0.00     0.116 C 
BRANCH  12  13
HETATM   13  N1  UNL     1     -21.721   3.209 -10.032  1.00  0.00    -0.420 N 
ATOM     14  H1  UNL     1     -22.660   3.434 -10.361  1.00  0.00     0.153 HD
BRANCH  13  15
HETATM   15  C3  UNL     1     -20.619   3.096 -10.920  1.00  0.00     0.124 C 
BRANCH  15  16
HETATM   16  C2  UNL     1     -19.618   2.128 -10.262  1.00  0.00     0.092 C 
BRANCH  16  17
HETATM   17  S1  UNL     1     -19.673   0.526 -11.075  1.00  0.00    -0.172 SA
HETATM   18  C1  UNL     1     -21.229  -0.308 -10.592  1.00  0.00     0.089 C 
ENDBRANCH  16  17
ENDBRANCH  15  16
ENDBRANCH  13  15
ENDBRANCH  12  13
ENDBRANCH  11  12
ENDBRANCH   1  11
BRANCH   9  19
HETATM   19  C12 UNL     1     -25.503   0.238  -8.590  1.00  0.00     0.198 C 
BRANCH  19  20
HETATM   20  O1  UNL     1     -25.825  -0.889  -9.283  1.00  0.00    -0.398 OA
ATOM     21  H1  UNL     1     -26.368  -0.753 -10.050  1.00  0.00     0.209 HD
ENDBRANCH  19  20
ENDBRANCH   9  19
TORSDOF 8
ENDMDL
MODEL 2
REMARK VINA RESULT: -5.924874176      1.178      1.180
REMARK  8 active torsions:
REMARK  status: ('A' for Active; 'I' for Inactive)
REMARK    1  A    between atoms: S1_2  and  C2_3 
REMARK    2  A    between atoms: C2_3  and  C3_4 
REMARK    3  A    between atoms: C3_4  and  N1_5 
REMARK    4  A    between atoms: N1_5  and  C4_7 
REMARK    5  A    between atoms: C4_7  and  C5_8 
REMARK    6  A    between atoms: C5_8  and  C6_9 
REMARK    7  A    between atoms: C11_17  and  C12_18 
REMARK    8  A    between atoms: C12_18  and  O1_19 
ROOT
HETATM    1  C6  UNL     1     -23.346   2.651  -7.271  1.00  0.00     0.125 C 
HETATM    2  C7  UNL     1     -24.282   2.751  -6.120  1.00  0.00     0.065 C 
HETATM    3  C8  UNL     1     -24.602   1.487  -5.408  1.00  0.00     0.191 C 
HETATM    4  C9  UNL     1     -25.794   0.888  -6.171  1.00  0.00     0.068 C 
HETATM    5  C10 UNL     1     -24.737   0.102  -6.849  1.00  0.00     0.219 C 
HETATM    6  N2  UNL     1     -23.876   0.326  -5.723  1.00  0.00    -0.064 N 
ATOM      7  H21 UNL     1     -23.749  -0.404  -5.022  1.00  0.00     0.278 HD
ATOM      8  H22 UNL     1     -22.865   0.374  -5.852  1.00  0.00     0.278 HD
HETATM    9  C11 UNL     1     -24.221   0.644  -8.129  1.00  0.00     0.176 C 
HETATM   10  O2  UNL     1     -23.280   1.605  -8.060  1.00  0.00    -0.376 OA
ENDROOT
BRANCH   1  11
HETATM   11  C5  UNL     1     -21.958   3.068  -6.815  1.00  0.00     0.051 C 
BRANCH  11  12
HETATM   12  C4  UNL     1     -21.156   3.776  -7.899  1.00  0.00     0.116 C 
BRANCH  12  13
HETATM   13  N1  UNL     1     -20.844   2.758  -8.872  1.00  0.00    -0.420 N 
ATOM     14  H1  UNL     1     -21.461   1.963  -9.039  1.00  0.00     0.153 HD
BRANCH  13  15
HETATM   15  C3  UNL     1     -19.628   2.930  -9.582  1.00  0.00     0.124 C 
BRANCH  15  16
HETATM   16  C2  UNL     1     -19.572   1.812 -10.641  1.00  0.00     0.092 C 
BRANCH  16  17
HETATM   17  S1  UNL     1     -21.235   1.314 -11.109  1.00  0.00    -0.172 SA
HETATM   18  C1  UNL     1     -21.525  -0.377 -10.476  1.00  0.00     0.089 C 
ENDBRANCH  16  17
ENDBRANCH  15  16
ENDBRANCH  13  15
ENDBRANCH  12  13
ENDBRANCH  11  12
ENDBRANCH   1  11
BRANCH   9  19
HETATM   19  C12 UNL     1     -25.376   1.146  -8.964  1.00  0.00     0.198 C 
BRANCH  19  20
HETATM   20  O1  UNL     1     -25.063   1.485 -10.245  1.00  0.00    -0.398 OA
ATOM     21  H1  UNL     1     -25.769   1.393 -10.873  1.00  0.00     0.209 HD
ENDBRANCH  19  20
ENDBRANCH   9  19
TORSDOF 8
ENDMDL
MODEL 3
REMARK VINA RESULT: -5.858969006      1.175      1.250
REMARK  8 active torsions:
REMARK  status: ('A' for Active; 'I' for Inactive)
REMARK    1  A    between atoms: S1_2  and  C2_3 
REMARK    2  A    between atoms: C2_3  and  C3_4 
REMARK    3  A    between atoms: C3_4  and  N1_5 
REMARK    4  A    between atoms: N1_5  and  C4_7 
REMARK    5  A    between atoms: C4_7  and  C5_8 
REMARK    6  A    between atoms: C5_8  and  C6_9 
REMARK    7  A    between atoms: C11_17  and  C12_18 
REMARK    8  A    between atoms: C12_18  and  O1_19 
ROOT
HETATM    1  C6  UNL     1     -23.220   2.640  -7.542  1.00  0.00     0.125 C 
HETATM    2  C7  UNL     1     -23.788   2.567  -6.169  1.00  0.00     0.065 C 
HETATM    3  C8  UNL     1     -23.714   1.251  -5.484  1.00  0.00     0.191 C 
HETATM    4  C9  UNL     1     -24.983   0.501  -5.919  1.00  0.00     0.068 C 
HETATM    5  C10 UNL     1     -24.070  -0.099  -6.921  1.00  0.00     0.219 C 
HETATM    6  N2  UNL     1     -22.959   0.221  -6.070  1.00  0.00    -0.064 N 
ATOM      7  H21 UNL     1     -22.537  -0.501  -5.485  1.00  0.00     0.278 HD
ATOM      8  H22 UNL     1     -22.045   0.423  -6.475  1.00  0.00     0.278 HD
HETATM    9  C11 UNL     1     -24.024   0.547  -8.254  1.00  0.00     0.176 C 
HETATM   10  O2  UNL     1     -23.244   1.637  -8.387  1.00  0.00    -0.376 OA
ENDROOT
BRANCH   1  11
HETATM   11  C5  UNL     1     -21.830   3.247  -7.467  1.00  0.00     0.051 C 
BRANCH  11  12
HETATM   12  C4  UNL     1     -21.265   3.623  -8.831  1.00  0.00     0.116 C 
BRANCH  12  13
HETATM   13  N1  UNL     1     -20.698   2.407  -9.360  1.00  0.00    -0.420 N 
ATOM     14  H1  UNL     1     -21.142   1.499  -9.223  1.00  0.00     0.153 HD
BRANCH  13  15
HETATM   15  C3  UNL     1     -19.484   2.550 -10.082  1.00  0.00     0.124 C 
BRANCH  15  16
HETATM   16  C2  UNL     1     -19.250   1.221 -10.822  1.00  0.00     0.092 C 
BRANCH  16  17
HETATM   17  S1  UNL     1     -20.783   0.641 -11.560  1.00  0.00    -0.172 SA
HETATM   18  C1  UNL     1     -20.665   0.864 -13.373  1.00  0.00     0.089 C 
ENDBRANCH  16  17
ENDBRANCH  15  16
ENDBRANCH  13  15
ENDBRANCH  12  13
ENDBRANCH  11  12
ENDBRANCH   1  11
BRANCH   9  19
HETATM   19  C12 UNL     1     -25.429   0.893  -8.692  1.00  0.00     0.198 C 
BRANCH  19  20
HETATM   20  O1  UNL     1     -25.516   1.619  -9.841  1.00  0.00    -0.398 OA
ATOM     21  H1  UNL     1     -26.337   1.536 -10.311  1.00  0.00     0.209 HD
ENDBRANCH  19  20
ENDBRANCH   9  19
TORSDOF 8
ENDMDL
MODEL 4
REMARK VINA RESULT: -5.789799722      1.030      1.408
REMARK  8 active torsions:
REMARK  status: ('A' for Active; 'I' for Inactive)
REMARK    1  A    between atoms: S1_2  and  C2_3 
REMARK    2  A    between atoms: C2_3  and  C3_4 
REMARK    3  A    between atoms: C3_4  and  N1_5 
REMARK    4  A    between atoms: N1_5  and  C4_7 
REMARK    5  A    between atoms: C4_7  and  C5_8 
REMARK    6  A    between atoms: C5_8  and  C6_9 
REMARK    7  A    between atoms: C11_17  and  C12_18 
REMARK    8  A    between atoms: C12_18  and  O1_19 
ROOT
HETATM    1  C6  UNL     1     -23.212   2.784  -7.872  1.00  0.00     0.125 C 
HETATM    2  C7  UNL     1     -23.985   2.846  -6.602  1.00  0.00     0.065 C 
HETATM    3  C8  UNL     1     -23.945   1.642  -5.735  1.00  0.00     0.191 C 
HETATM    4  C9  UNL     1     -25.084   0.743  -6.245  1.00  0.00     0.068 C 
HETATM    5  C10 UNL     1     -23.990   0.091  -7.004  1.00  0.00     0.219 C 
HETATM    6  N2  UNL     1     -23.049   0.606  -6.050  1.00  0.00    -0.064 N 
ATOM      7  H21 UNL     1     -22.684   0.003  -5.314  1.00  0.00     0.278 HD
ATOM      8  H22 UNL     1     -22.096   0.825  -6.340  1.00  0.00     0.278 HD
HETATM    9  C11 UNL     1     -23.771   0.560  -8.393  1.00  0.00     0.176 C 
HETATM   10  O2  UNL     1     -23.044   1.681  -8.561  1.00  0.00    -0.376 OA
ENDROOT
BRANCH   1  11
HETATM   11  C5  UNL     1     -21.888   3.504  -7.677  1.00  0.00     0.051 C 
BRANCH  11  12
HETATM   12  C4  UNL     1     -20.864   3.178  -8.757  1.00  0.00     0.116 C 
BRANCH  12  13
HETATM   13  N1  UNL     1     -21.409   3.716  -9.978  1.00  0.00    -0.420 N 
ATOM     14  H1  UNL     1     -22.195   4.366  -9.979  1.00  0.00     0.153 HD
BRANCH  13  15
HETATM   15  C3  UNL     1     -20.786   3.287 -11.179  1.00  0.00     0.124 C 
BRANCH  15  16
HETATM   16  C2  UNL     1     -20.734   1.749 -11.125  1.00  0.00     0.092 C 
BRANCH  16  17
HETATM   17  S1  UNL     1     -19.063   1.170 -11.454  1.00  0.00    -0.172 SA
HETATM   18  C1  UNL     1     -18.094   2.572 -12.121  1.00  0.00     0.089 C 
ENDBRANCH  16  17
ENDBRANCH  15  16
ENDBRANCH  13  15
ENDBRANCH  12  13
ENDBRANCH  11  12
ENDBRANCH   1  11
BRANCH   9  19
HETATM   19  C12 UNL     1     -25.106   0.734  -9.080  1.00  0.00     0.198 C 
BRANCH  19  20
HETATM   20  O1  UNL     1     -25.056   1.329 -10.304  1.00  0.00    -0.398 OA
ATOM     21  H1  UNL     1     -25.309   0.776 -11.034  1.00  0.00     0.209 HD
ENDBRANCH  19  20
ENDBRANCH   9  19
TORSDOF 8
ENDMDL
MODEL 5
REMARK VINA RESULT: -5.781312911      1.825      2.974
REMARK  8 active torsions:
REMARK  status: ('A' for Active; 'I' for Inactive)
REMARK    1  A    between atoms: S1_2  and  C2_3 
REMARK    2  A    between atoms: C2_3  and  C3_4 
REMARK    3  A    between atoms: C3_4  and  N1_5 
REMARK    4  A    between atoms: N1_5  and  C4_7 
REMARK    5  A    between atoms: C4_7  and  C5_8 
REMARK    6  A    between atoms: C5_8  and  C6_9 
REMARK    7  A    between atoms: C11_17  and  C12_18 
REMARK    8  A    between atoms: C12_18  and  O1_19 
ROOT
HETATM    1  C6  UNL     1     -24.326   0.087  -8.168  1.00  0.00     0.125 C 
HETATM    2  C7  UNL     1     -24.184   1.503  -8.601  1.00  0.00     0.065 C 
HETATM    3  C8  UNL     1     -23.534   2.433  -7.643  1.00  0.00     0.191 C 
HETATM    4  C9  UNL     1     -24.673   2.947  -6.748  1.00  0.00     0.068 C 
HETATM    5  C10 UNL     1     -24.205   1.871  -5.841  1.00  0.00     0.219 C 
HETATM    6  N2  UNL     1     -22.926   1.907  -6.491  1.00  0.00    -0.064 N 
ATOM      7  H21 UNL     1     -22.145   2.397  -6.055  1.00  0.00     0.278 HD
ATOM      8  H22 UNL     1     -22.359   1.062  -6.552  1.00  0.00     0.278 HD
HETATM    9  C11 UNL     1     -24.903   0.567  -5.939  1.00  0.00     0.176 C 
HETATM   10  O2  UNL     1     -24.516  -0.270  -6.920  1.00  0.00    -0.376 OA
ENDROOT
BRANCH   1  11
HETATM   11  C5  UNL     1     -23.214  -0.734  -8.798  1.00  0.00     0.051 C 
BRANCH  11  12
HETATM   12  C4  UNL     1     -22.645  -0.104 -10.063  1.00  0.00     0.116 C 
BRANCH  12  13
HETATM   13  N1  UNL     1     -21.232  -0.392 -10.033  1.00  0.00    -0.420 N 
ATOM     14  H1  UNL     1     -20.857  -1.206  -9.545  1.00  0.00     0.153 HD
BRANCH  13  15
HETATM   15  C3  UNL     1     -20.396   0.524 -10.722  1.00  0.00     0.124 C 
BRANCH  15  16
HETATM   16  C2  UNL     1     -20.922   1.934 -10.396  1.00  0.00     0.092 C 
BRANCH  16  17
HETATM   17  S1  UNL     1     -19.584   2.976  -9.800  1.00  0.00    -0.172 SA
HETATM   18  C1  UNL     1     -20.166   3.854  -8.303  1.00  0.00     0.089 C 
ENDBRANCH  16  17
ENDBRANCH  15  16
ENDBRANCH  13  15
ENDBRANCH  12  13
ENDBRANCH  11  12
ENDBRANCH   1  11
BRANCH   9  19
HETATM   19  C12 UNL     1     -26.392   0.802  -6.053  1.00  0.00     0.198 C 
BRANCH  19  20
HETATM   20  O1  UNL     1     -27.160  -0.323  -6.040  1.00  0.00    -0.398 OA
ATOM     21  H1  UNL     1     -28.018  -0.223  -5.646  1.00  0.00     0.209 HD
ENDBRANCH  19  20
ENDBRANCH   9  19
TORSDOF 8
ENDMDL
