MODEL 1
REMARK VINA RESULT: -9.513777174      0.000      0.000
REMARK  17 active torsions:
REMARK  status: ('A' for Active; 'I' for Inactive)
REMARK    1  A    between atoms: C6_9  and  C7_10 
REMARK    2  A    between atoms: C8_11  and  O2_12 
REMARK    3  A    between atoms: C11_16  and  N3_17 
REMARK    4  A    between atoms: N4_19  and  N5_21 
REMARK       I    between atoms: N5_21  and  C12_23 
REMARK       I    between atoms: C12_23  and  N7_27 
REMARK    5  A    between atoms: N7_27  and  C13_29 
REMARK    6  A    between atoms: C13_29  and  C14_30 
REMARK    7  A    between atoms: C14_30  and  S1_31 
REMARK    8  A    between atoms: S1_31  and  S2_32 
REMARK    9  A    between atoms: S2_32  and  C15_33 
REMARK   10  A    between atoms: C15_33  and  C16_34 
REMARK   11  A    between atoms: C16_34  and  N8_35 
REMARK       I    between atoms: N8_35  and  C17_37 
REMARK   12  A    between atoms: C17_37  and  C18_39 
REMARK   13  A    between atoms: C19_40  and  N9_41 
REMARK   14  A    between atoms: N9_41  and  O4_43 
REMARK   15  A    between atoms: O4_43  and  C20_44 
REMARK   16  A    between atoms: C20_44  and  N10_45 
REMARK   17  A    between atoms: C22_50  and  N11_51 
ROOT
HETATM    1  C1  UNL     1     115.984  40.394  92.407  1.00  0.00     0.077 C 
HETATM    2  C2  UNL     1     115.856  40.787  90.981  1.00  0.00     0.065 A 
HETATM    3  O1  UNL     1     116.878  40.536  90.162  1.00  0.00    -0.301 OA
HETATM    4  C3  UNL     1     116.642  40.901  88.982  1.00  0.00     0.180 A 
HETATM    5  C4  UNL     1     117.471  40.813  87.791  1.00  0.00     0.127 C 
HETATM    6  N1  UNL     1     118.144  40.724  86.842  1.00  0.00    -0.189 NA
HETATM    7  C5  UNL     1     115.349  41.454  88.990  1.00  0.00     0.106 A 
HETATM    8  N2  UNL     1     114.785  42.084  87.871  1.00  0.00    -0.098 NA
HETATM    9  C6  UNL     1     114.830  41.378  90.301  1.00  0.00     0.051 A 
ENDROOT
BRANCH   9  10
HETATM   10  C7  UNL     1     113.663  42.089  90.842  1.00  0.00     0.084 A 
HETATM   11  C8  UNL     1     112.353  41.686  90.817  1.00  0.00     0.106 A 
HETATM   12  C9  UNL     1     111.548  42.763  91.182  1.00  0.00     0.031 A 
HETATM   13  C10 UNL     1     110.187  42.874  91.272  1.00  0.00     0.047 A 
HETATM   14  C23 UNL     1     112.347  43.848  91.443  1.00  0.00     0.081 A 
HETATM   15  C11 UNL     1     109.581  44.057  91.622  1.00  0.00     0.052 A 
HETATM   16  C21 UNL     1     110.364  45.135  91.887  1.00  0.00     0.069 A 
HETATM   17  C22 UNL     1     111.791  45.059  91.809  1.00  0.00     0.132 A 
HETATM   18  N12 UNL     1     113.610  43.413  91.220  1.00  0.00    -0.345 N 
HETATM   19  C24 UNL     1     114.724  44.334  91.115  1.00  0.00     0.156 C 
BRANCH  11  20
HETATM   20  O2  UNL     1     111.813  40.449  90.512  1.00  0.00    -0.357 OA
ATOM     21  H2  UNL     1     112.232  39.599  90.459  1.00  0.00     0.217 HD
ENDBRANCH  11  20
BRANCH  15  22
HETATM   22  N3  UNL     1     108.146  44.157  91.698  1.00  0.00    -0.286 N 
HETATM   23  N4  UNL     1     107.647  45.110  92.383  1.00  0.00    -0.228 N 
ATOM     24  H4  UNL     1     106.631  45.177  92.436  1.00  0.00     0.209 HD
ATOM     25  H3  UNL     1     107.548  43.485  91.219  1.00  0.00     0.188 HD
BRANCH  23  26
HETATM   26  N5  UNL     1     108.399  46.064  93.064  1.00  0.00    -0.118 N 
HETATM   27  C12 UNL     1     108.144  47.458  93.053  1.00  0.00     0.687 C 
HETATM   28  N6  UNL     1     109.098  48.286  92.754  1.00  0.00    -0.234 N 
HETATM   29  N7  UNL     1     106.841  47.923  93.373  1.00  0.00    -0.224 N 
ATOM     30  H62 UNL     1     110.034  47.952  92.523  1.00  0.00     0.174 HD
ATOM     31  H61 UNL     1     108.915  49.289  92.746  1.00  0.00     0.174 HD
ATOM     32  H7  UNL     1     106.299  48.418  92.665  1.00  0.00     0.177 HD
ATOM     33  H5  UNL     1     109.194  45.735  93.612  1.00  0.00     0.207 HD
BRANCH  29  34
HETATM   34  C13 UNL     1     106.267  47.710  94.685  1.00  0.00     0.149 C 
BRANCH  34  35
HETATM   35  C14 UNL     1     107.336  48.027  95.714  1.00  0.00     0.106 C 
BRANCH  35  36
HETATM   36  S1  UNL     1     107.162  46.980  97.175  1.00  0.00    -0.096 SA
BRANCH  36  37
HETATM   37  S2  UNL     1     108.584  45.379  97.131  1.00  0.00    -0.096 SA
BRANCH  37  38
HETATM   38  C15 UNL     1     107.704  43.790  97.294  1.00  0.00     0.105 C 
BRANCH  38  39
HETATM   39  C16 UNL     1     107.982  43.186  98.633  1.00  0.00     0.134 C 
BRANCH  39  40
HETATM   40  N8  UNL     1     108.852  42.048  98.534  1.00  0.00    -0.349 N 
HETATM   41  C17 UNL     1     108.662  40.923  99.369  1.00  0.00     0.298 C 
HETATM   42  O3  UNL     1     107.757  40.828 100.235  1.00  0.00    -0.258 OA
ATOM     43  H8  UNL     1     109.612  42.052  97.855  1.00  0.00     0.163 HD
BRANCH  41  44
HETATM   44  C18 UNL     1     109.544  39.765  99.265  1.00  0.00     0.019 C 
HETATM   45  C19 UNL     1     110.259  38.801  99.155  1.00  0.00     0.042 C 
BRANCH  45  46
HETATM   46  N9  UNL     1     111.081  37.681  98.993  1.00  0.00    -0.221 N 
ATOM     47  H9  UNL     1     110.994  37.088  98.168  1.00  0.00     0.205 HD
BRANCH  46  48
HETATM   48  O4  UNL     1     112.009  37.396  99.964  1.00  0.00    -0.245 OA
BRANCH  48  49
HETATM   49  C20 UNL     1     111.696  36.141 100.470  1.00  0.00     0.430 C 
BRANCH  49  50
HETATM   50  N10 UNL     1     112.374  35.851 101.696  1.00  0.00    -0.056 N 
ATOM     51 3H10 UNL     1     113.370  35.700 101.536  1.00  0.00     0.276 HD
ATOM     52 2H10 UNL     1     112.425  36.679 102.290  1.00  0.00     0.276 HD
ATOM     53 1H10 UNL     1     111.963  35.066 102.201  1.00  0.00     0.276 HD
ENDBRANCH  49  50
ENDBRANCH  48  49
ENDBRANCH  46  48
ENDBRANCH  45  46
ENDBRANCH  41  44
ENDBRANCH  39  40
ENDBRANCH  38  39
ENDBRANCH  37  38
ENDBRANCH  36  37
ENDBRANCH  35  36
ENDBRANCH  34  35
ENDBRANCH  29  34
ENDBRANCH  23  26
ENDBRANCH  15  22
BRANCH  17  54
HETATM   54  N11 UNL     1     112.468  46.217  92.151  1.00  0.00    -0.113 N 
HETATM   55  O5  UNL     1     112.944  46.239  93.355  1.00  0.00    -0.532 OA
HETATM   56  O6  UNL     1     112.721  47.338  91.470  1.00  0.00    -0.532 OA
ENDBRANCH  17  54
ENDBRANCH   9  10
TORSDOF 17
ENDMDL
MODEL 2
REMARK VINA RESULT: -9.493488225      1.307      1.599
REMARK  17 active torsions:
REMARK  status: ('A' for Active; 'I' for Inactive)
REMARK    1  A    between atoms: C6_9  and  C7_10 
REMARK    2  A    between atoms: C8_11  and  O2_12 
REMARK    3  A    between atoms: C11_16  and  N3_17 
REMARK    4  A    between atoms: N4_19  and  N5_21 
REMARK       I    between atoms: N5_21  and  C12_23 
REMARK       I    between atoms: C12_23  and  N7_27 
REMARK    5  A    between atoms: N7_27  and  C13_29 
REMARK    6  A    between atoms: C13_29  and  C14_30 
REMARK    7  A    between atoms: C14_30  and  S1_31 
REMARK    8  A    between atoms: S1_31  and  S2_32 
REMARK    9  A    between atoms: S2_32  and  C15_33 
REMARK   10  A    between atoms: C15_33  and  C16_34 
REMARK   11  A    between atoms: C16_34  and  N8_35 
REMARK       I    between atoms: N8_35  and  C17_37 
REMARK   12  A    between atoms: C17_37  and  C18_39 
REMARK   13  A    between atoms: C19_40  and  N9_41 
REMARK   14  A    between atoms: N9_41  and  O4_43 
REMARK   15  A    between atoms: O4_43  and  C20_44 
REMARK   16  A    between atoms: C20_44  and  N10_45 
REMARK   17  A    between atoms: C22_50  and  N11_51 
ROOT
HETATM    1  C1  UNL     1     115.777  40.991  92.620  1.00  0.00     0.077 C 
HETATM    2  C2  UNL     1     115.627  41.210  91.160  1.00  0.00     0.065 A 
HETATM    3  O1  UNL     1     116.673  40.955  90.372  1.00  0.00    -0.301 OA
HETATM    4  C3  UNL     1     116.416  41.165  89.159  1.00  0.00     0.180 A 
HETATM    5  C4  UNL     1     117.258  41.013  87.984  1.00  0.00     0.127 C 
HETATM    6  N1  UNL     1     117.944  40.874  87.050  1.00  0.00    -0.189 NA
HETATM    7  C5  UNL     1     115.082  41.606  89.108  1.00  0.00     0.106 A 
HETATM    8  N2  UNL     1     114.476  42.057  87.926  1.00  0.00    -0.098 NA
HETATM    9  C6  UNL     1     114.561  41.634  90.420  1.00  0.00     0.051 A 
ENDROOT
BRANCH   9  10
HETATM   10  C7  UNL     1     113.336  42.302  90.880  1.00  0.00     0.084 A 
HETATM   11  C8  UNL     1     112.039  41.925  90.643  1.00  0.00     0.106 A 
HETATM   12  C9  UNL     1     111.195  42.970  91.016  1.00  0.00     0.031 A 
HETATM   13  C10 UNL     1     109.834  43.093  90.941  1.00  0.00     0.047 A 
HETATM   14  C23 UNL     1     111.957  44.008  91.493  1.00  0.00     0.081 A 
HETATM   15  C11 UNL     1     109.191  44.242  91.336  1.00  0.00     0.052 A 
HETATM   16  C21 UNL     1     109.935  45.272  91.815  1.00  0.00     0.069 A 
HETATM   17  C22 UNL     1     111.360  45.181  91.913  1.00  0.00     0.132 A 
HETATM   18  N12 UNL     1     113.236  43.578  91.389  1.00  0.00    -0.345 N 
HETATM   19  C24 UNL     1     114.357  44.487  91.529  1.00  0.00     0.156 C 
BRANCH  11  20
HETATM   20  O2  UNL     1     111.540  40.737  90.138  1.00  0.00    -0.357 OA
ATOM     21  H2  UNL     1     110.642  40.436  90.069  1.00  0.00     0.217 HD
ENDBRANCH  11  20
BRANCH  15  22
HETATM   22  N3  UNL     1     107.759  44.356  91.237  1.00  0.00    -0.286 N 
HETATM   23  N4  UNL     1     107.213  45.431  91.652  1.00  0.00    -0.228 N 
ATOM     24  H4  UNL     1     106.198  45.508  91.582  1.00  0.00     0.209 HD
ATOM     25  H3  UNL     1     107.198  43.598  90.847  1.00  0.00     0.188 HD
BRANCH  23  26
HETATM   26  N5  UNL     1     107.912  46.506  92.195  1.00  0.00    -0.118 N 
HETATM   27  C12 UNL     1     107.664  47.074  93.470  1.00  0.00     0.687 C 
HETATM   28  N6  UNL     1     107.476  48.355  93.579  1.00  0.00    -0.234 N 
HETATM   29  N7  UNL     1     107.628  46.227  94.608  1.00  0.00    -0.224 N 
ATOM     30  H62 UNL     1     107.502  48.964  92.761  1.00  0.00     0.174 HD
ATOM     31  H61 UNL     1     107.299  48.764  94.497  1.00  0.00     0.174 HD
ATOM     32  H7  UNL     1     106.760  46.135  95.136  1.00  0.00     0.177 HD
ATOM     33  H5  UNL     1     108.658  46.915  91.634  1.00  0.00     0.207 HD
BRANCH  29  34
HETATM   34  C13 UNL     1     108.798  45.489  95.036  1.00  0.00     0.149 C 
BRANCH  34  35
HETATM   35  C14 UNL     1     109.178  45.987  96.418  1.00  0.00     0.106 C 
BRANCH  35  36
HETATM   36  S1  UNL     1     109.261  44.623  97.600  1.00  0.00    -0.096 SA
BRANCH  36  37
HETATM   37  S2  UNL     1     107.392  43.579  97.680  1.00  0.00    -0.096 SA
BRANCH  37  38
HETATM   38  C15 UNL     1     107.632  41.987  98.536  1.00  0.00     0.105 C 
BRANCH  38  39
HETATM   39  C16 UNL     1     108.972  41.960  99.199  1.00  0.00     0.134 C 
BRANCH  39  40
HETATM   40  N8  UNL     1     109.303  40.647  99.677  1.00  0.00    -0.349 N 
HETATM   41  C17 UNL     1     110.290  39.872  99.025  1.00  0.00     0.298 C 
HETATM   42  O3  UNL     1     110.934  40.248  98.014  1.00  0.00    -0.258 OA
ATOM     43  H8  UNL     1     108.822  40.270 100.493  1.00  0.00     0.163 HD
BRANCH  41  44
HETATM   44  C18 UNL     1     110.629  38.539  99.514  1.00  0.00     0.019 C 
HETATM   45  C19 UNL     1     110.937  37.444  99.915  1.00  0.00     0.042 C 
BRANCH  45  46
HETATM   46  N9  UNL     1     111.325  36.187 100.387  1.00  0.00    -0.221 N 
ATOM     47  H9  UNL     1     111.197  35.354  99.813  1.00  0.00     0.205 HD
BRANCH  46  48
HETATM   48  O4  UNL     1     111.882  36.095 101.639  1.00  0.00    -0.245 OA
BRANCH  48  49
HETATM   49  C20 UNL     1     113.259  36.040 101.469  1.00  0.00     0.430 C 
BRANCH  49  50
HETATM   50  N10 UNL     1     113.975  36.092 102.707  1.00  0.00    -0.056 N 
ATOM     51 3H10 UNL     1     113.381  35.808 103.485  1.00  0.00     0.276 HD
ATOM     52 2H10 UNL     1     114.677  35.353 102.754  1.00  0.00     0.276 HD
ATOM     53 1H10 UNL     1     114.395  37.005 102.884  1.00  0.00     0.276 HD
ENDBRANCH  49  50
ENDBRANCH  48  49
ENDBRANCH  46  48
ENDBRANCH  45  46
ENDBRANCH  41  44
ENDBRANCH  39  40
ENDBRANCH  38  39
ENDBRANCH  37  38
ENDBRANCH  36  37
ENDBRANCH  35  36
ENDBRANCH  34  35
ENDBRANCH  29  34
ENDBRANCH  23  26
ENDBRANCH  15  22
BRANCH  17  54
HETATM   54  N11 UNL     1     111.990  46.285  92.464  1.00  0.00    -0.113 N 
HETATM   55  O5  UNL     1     112.197  47.265  91.644  1.00  0.00    -0.532 OA
HETATM   56  O6  UNL     1     112.441  46.532  93.697  1.00  0.00    -0.532 OA
ENDBRANCH  17  54
ENDBRANCH   9  10
TORSDOF 17
ENDMDL
MODEL 3
REMARK VINA RESULT: -9.297855930      2.783      4.786
REMARK  17 active torsions:
REMARK  status: ('A' for Active; 'I' for Inactive)
REMARK    1  A    between atoms: C6_9  and  C7_10 
REMARK    2  A    between atoms: C8_11  and  O2_12 
REMARK    3  A    between atoms: C11_16  and  N3_17 
REMARK    4  A    between atoms: N4_19  and  N5_21 
REMARK       I    between atoms: N5_21  and  C12_23 
REMARK       I    between atoms: C12_23  and  N7_27 
REMARK    5  A    between atoms: N7_27  and  C13_29 
REMARK    6  A    between atoms: C13_29  and  C14_30 
REMARK    7  A    between atoms: C14_30  and  S1_31 
REMARK    8  A    between atoms: S1_31  and  S2_32 
REMARK    9  A    between atoms: S2_32  and  C15_33 
REMARK   10  A    between atoms: C15_33  and  C16_34 
REMARK   11  A    between atoms: C16_34  and  N8_35 
REMARK       I    between atoms: N8_35  and  C17_37 
REMARK   12  A    between atoms: C17_37  and  C18_39 
REMARK   13  A    between atoms: C19_40  and  N9_41 
REMARK   14  A    between atoms: N9_41  and  O4_43 
REMARK   15  A    between atoms: O4_43  and  C20_44 
REMARK   16  A    between atoms: C20_44  and  N10_45 
REMARK   17  A    between atoms: C22_50  and  N11_51 
ROOT
HETATM    1  C1  UNL     1     115.499  40.908  86.831  1.00  0.00     0.077 C 
HETATM    2  C2  UNL     1     114.315  40.194  87.370  1.00  0.00     0.065 A 
HETATM    3  O1  UNL     1     113.602  39.433  86.538  1.00  0.00    -0.301 OA
HETATM    4  C3  UNL     1     112.637  38.873  87.116  1.00  0.00     0.180 A 
HETATM    5  C4  UNL     1     111.626  37.969  86.590  1.00  0.00     0.127 C 
HETATM    6  N1  UNL     1     110.830  37.237  86.153  1.00  0.00    -0.189 NA
HETATM    7  C5  UNL     1     112.686  39.286  88.459  1.00  0.00     0.106 A 
HETATM    8  N2  UNL     1     111.689  38.960  89.391  1.00  0.00    -0.098 NA
HETATM    9  C6  UNL     1     113.788  40.152  88.629  1.00  0.00     0.051 A 
ENDROOT
BRANCH   9  10
HETATM   10  C7  UNL     1     114.051  41.050  89.762  1.00  0.00     0.084 A 
HETATM   11  C8  UNL     1     113.314  42.135  90.158  1.00  0.00     0.106 A 
HETATM   12  C9  UNL     1     114.052  42.861  91.090  1.00  0.00     0.031 A 
HETATM   13  C10 UNL     1     113.769  44.029  91.745  1.00  0.00     0.047 A 
HETATM   14  C23 UNL     1     115.257  42.234  91.289  1.00  0.00     0.081 A 
HETATM   15  C11 UNL     1     114.666  44.606  92.613  1.00  0.00     0.052 A 
HETATM   16  C21 UNL     1     115.858  43.989  92.821  1.00  0.00     0.069 A 
HETATM   17  C22 UNL     1     116.191  42.765  92.159  1.00  0.00     0.132 A 
HETATM   18  N12 UNL     1     115.228  41.155  90.471  1.00  0.00    -0.345 N 
HETATM   19  C24 UNL     1     116.424  40.390  90.180  1.00  0.00     0.156 C 
BRANCH  11  20
HETATM   20  O2  UNL     1     112.044  42.530  89.775  1.00  0.00    -0.357 OA
ATOM     21  H2  UNL     1     111.199  42.297  90.139  1.00  0.00     0.217 HD
ENDBRANCH  11  20
BRANCH  15  22
HETATM   22  N3  UNL     1     114.353  45.842  93.282  1.00  0.00    -0.286 N 
HETATM   23  N4  UNL     1     113.162  46.288  93.193  1.00  0.00    -0.228 N 
ATOM     24  H4  UNL     1     112.944  47.164  93.667  1.00  0.00     0.209 HD
ATOM     25  H3  UNL     1     115.064  46.346  93.812  1.00  0.00     0.188 HD
BRANCH  23  26
HETATM   26  N5  UNL     1     112.139  45.657  92.488  1.00  0.00    -0.118 N 
HETATM   27  C12 UNL     1     110.841  45.403  92.996  1.00  0.00     0.687 C 
HETATM   28  N6  UNL     1     110.348  44.202  92.934  1.00  0.00    -0.234 N 
HETATM   29  N7  UNL     1     110.100  46.472  93.564  1.00  0.00    -0.224 N 
ATOM     30  H62 UNL     1     110.881  43.433  92.526  1.00  0.00     0.174 HD
ATOM     31  H61 UNL     1     109.414  44.019  93.300  1.00  0.00     0.174 HD
ATOM     32  H7  UNL     1     109.850  46.438  94.552  1.00  0.00     0.177 HD
ATOM     33  H5  UNL     1     112.340  45.355  91.535  1.00  0.00     0.207 HD
BRANCH  29  34
HETATM   34  C13 UNL     1     109.693  47.612  92.769  1.00  0.00     0.149 C 
BRANCH  34  35
HETATM   35  C14 UNL     1     108.564  47.160  91.861  1.00  0.00     0.106 C 
BRANCH  35  36
HETATM   36  S1  UNL     1     107.197  46.469  92.818  1.00  0.00    -0.096 SA
BRANCH  36  37
HETATM   37  S2  UNL     1     106.244  47.992  93.984  1.00  0.00    -0.096 SA
BRANCH  37  38
HETATM   38  C15 UNL     1     106.429  47.596  95.754  1.00  0.00     0.105 C 
BRANCH  38  39
HETATM   39  C16 UNL     1     107.852  47.247  96.054  1.00  0.00     0.134 C 
BRANCH  39  40
HETATM   40  N8  UNL     1     107.950  46.244  97.076  1.00  0.00    -0.349 N 
HETATM   41  C17 UNL     1     108.391  44.938  96.762  1.00  0.00     0.298 C 
HETATM   42  O3  UNL     1     108.718  44.558  95.610  1.00  0.00    -0.258 OA
ATOM     43  H8  UNL     1     107.700  46.476  98.037  1.00  0.00     0.163 HD
BRANCH  41  44
HETATM   44  C18 UNL     1     108.495  43.920  97.803  1.00  0.00     0.019 C 
HETATM   45  C19 UNL     1     108.600  43.065  98.647  1.00  0.00     0.042 C 
BRANCH  45  46
HETATM   46  N9  UNL     1     108.753  42.066  99.613  1.00  0.00    -0.221 N 
ATOM     47  H9  UNL     1     107.984  41.825 100.237  1.00  0.00     0.205 HD
BRANCH  46  48
HETATM   48  O4  UNL     1     109.959  41.415  99.705  1.00  0.00    -0.245 OA
BRANCH  48  49
HETATM   49  C20 UNL     1     109.856  40.258  98.944  1.00  0.00     0.430 C 
BRANCH  49  50
HETATM   50  N10 UNL     1     110.950  39.358  99.149  1.00  0.00    -0.056 N 
ATOM     51 3H10 UNL     1     111.082  39.163 100.141  1.00  0.00     0.276 HD
ATOM     52 2H10 UNL     1     110.716  38.419  98.825  1.00  0.00     0.276 HD
ATOM     53 1H10 UNL     1     111.817  39.685  98.723  1.00  0.00     0.276 HD
ENDBRANCH  49  50
ENDBRANCH  48  49
ENDBRANCH  46  48
ENDBRANCH  45  46
ENDBRANCH  41  44
ENDBRANCH  39  40
ENDBRANCH  38  39
ENDBRANCH  37  38
ENDBRANCH  36  37
ENDBRANCH  35  36
ENDBRANCH  34  35
ENDBRANCH  29  34
ENDBRANCH  23  26
ENDBRANCH  15  22
BRANCH  17  54
HETATM   54  N11 UNL     1     117.418  42.219  92.499  1.00  0.00    -0.113 N 
HETATM   55  O5  UNL     1     118.437  42.750  91.905  1.00  0.00    -0.532 OA
HETATM   56  O6  UNL     1     117.754  41.227  93.328  1.00  0.00    -0.532 OA
ENDBRANCH  17  54
ENDBRANCH   9  10
TORSDOF 17
ENDMDL
MODEL 4
REMARK VINA RESULT: -9.213349350      1.596      1.914
REMARK  17 active torsions:
REMARK  status: ('A' for Active; 'I' for Inactive)
REMARK    1  A    between atoms: C6_9  and  C7_10 
REMARK    2  A    between atoms: C8_11  and  O2_12 
REMARK    3  A    between atoms: C11_16  and  N3_17 
REMARK    4  A    between atoms: N4_19  and  N5_21 
REMARK       I    between atoms: N5_21  and  C12_23 
REMARK       I    between atoms: C12_23  and  N7_27 
REMARK    5  A    between atoms: N7_27  and  C13_29 
REMARK    6  A    between atoms: C13_29  and  C14_30 
REMARK    7  A    between atoms: C14_30  and  S1_31 
REMARK    8  A    between atoms: S1_31  and  S2_32 
REMARK    9  A    between atoms: S2_32  and  C15_33 
REMARK   10  A    between atoms: C15_33  and  C16_34 
REMARK   11  A    between atoms: C16_34  and  N8_35 
REMARK       I    between atoms: N8_35  and  C17_37 
REMARK   12  A    between atoms: C17_37  and  C18_39 
REMARK   13  A    between atoms: C19_40  and  N9_41 
REMARK   14  A    between atoms: N9_41  and  O4_43 
REMARK   15  A    between atoms: O4_43  and  C20_44 
REMARK   16  A    between atoms: C20_44  and  N10_45 
REMARK   17  A    between atoms: C22_50  and  N11_51 
ROOT
HETATM    1  C1  UNL     1     115.983  38.257  91.870  1.00  0.00     0.077 C 
HETATM    2  C2  UNL     1     115.771  38.577  90.436  1.00  0.00     0.065 A 
HETATM    3  O1  UNL     1     116.635  38.089  89.544  1.00  0.00    -0.301 OA
HETATM    4  C3  UNL     1     116.339  38.419  88.368  1.00  0.00     0.180 A 
HETATM    5  C4  UNL     1     117.002  38.103  87.112  1.00  0.00     0.127 C 
HETATM    6  N1  UNL     1     117.539  37.830  86.114  1.00  0.00    -0.189 NA
HETATM    7  C5  UNL     1     115.176  39.203  88.457  1.00  0.00     0.106 A 
HETATM    8  N2  UNL     1     114.615  39.857  87.350  1.00  0.00    -0.098 NA
HETATM    9  C6  UNL     1     114.800  39.307  89.813  1.00  0.00     0.051 A 
ENDROOT
BRANCH   9  10
HETATM   10  C7  UNL     1     113.847  40.257  90.406  1.00  0.00     0.084 A 
HETATM   11  C8  UNL     1     112.483  40.270  90.266  1.00  0.00     0.106 A 
HETATM   12  C9  UNL     1     111.996  41.480  90.754  1.00  0.00     0.031 A 
HETATM   13  C10 UNL     1     110.723  41.980  90.803  1.00  0.00     0.047 A 
HETATM   14  C23 UNL     1     113.050  42.234  91.208  1.00  0.00     0.081 A 
HETATM   15  C11 UNL     1     110.458  43.233  91.301  1.00  0.00     0.052 A 
HETATM   16  C21 UNL     1     111.494  43.984  91.757  1.00  0.00     0.069 A 
HETATM   17  C22 UNL     1     112.839  43.497  91.728  1.00  0.00     0.132 A 
HETATM   18  N12 UNL     1     114.147  41.475  90.976  1.00  0.00    -0.345 N 
HETATM   19  C24 UNL     1     115.485  42.027  91.056  1.00  0.00     0.156 C 
BRANCH  11  20
HETATM   20  O2  UNL     1     111.636  39.302  89.757  1.00  0.00    -0.357 OA
ATOM     21  H2  UNL     1     110.932  38.826  90.180  1.00  0.00     0.217 HD
ENDBRANCH  11  20
BRANCH  15  22
HETATM   22  N3  UNL     1     109.112  43.745  91.331  1.00  0.00    -0.286 N 
HETATM   23  N4  UNL     1     108.948  44.988  91.566  1.00  0.00    -0.228 N 
ATOM     24  H4  UNL     1     107.994  45.347  91.588  1.00  0.00     0.209 HD
ATOM     25  H3  UNL     1     108.313  43.131  91.170  1.00  0.00     0.188 HD
BRANCH  23  26
HETATM   26  N5  UNL     1     109.987  45.886  91.794  1.00  0.00    -0.118 N 
HETATM   27  C12 UNL     1     109.838  47.291  91.896  1.00  0.00     0.687 C 
HETATM   28  N6  UNL     1     110.578  48.073  91.169  1.00  0.00    -0.234 N 
HETATM   29  N7  UNL     1     108.877  47.820  92.798  1.00  0.00    -0.224 N 
ATOM     30  H62 UNL     1     111.269  47.693  90.520  1.00  0.00     0.174 HD
ATOM     31  H61 UNL     1     110.471  49.085  91.242  1.00  0.00     0.174 HD
ATOM     32  H7  UNL     1     108.091  48.358  92.433  1.00  0.00     0.177 HD
ATOM     33  H5  UNL     1     110.928  45.503  91.897  1.00  0.00     0.207 HD
BRANCH  29  34
HETATM   34  C13 UNL     1     108.991  47.612  94.226  1.00  0.00     0.149 C 
BRANCH  34  35
HETATM   35  C14 UNL     1     108.297  46.304  94.558  1.00  0.00     0.106 C 
BRANCH  35  36
HETATM   36  S1  UNL     1     109.461  45.111  95.257  1.00  0.00    -0.096 SA
BRANCH  36  37
HETATM   37  S2  UNL     1     108.963  44.675  97.294  1.00  0.00    -0.096 SA
BRANCH  37  38
HETATM   38  C15 UNL     1     107.355  43.817  97.348  1.00  0.00     0.105 C 
BRANCH  38  39
HETATM   39  C16 UNL     1     107.322  42.863  98.499  1.00  0.00     0.134 C 
BRANCH  39  40
HETATM   40  N8  UNL     1     108.306  41.827  98.359  1.00  0.00    -0.349 N 
HETATM   41  C17 UNL     1     108.434  40.819  99.342  1.00  0.00     0.298 C 
HETATM   42  O3  UNL     1     107.730  40.748 100.380  1.00  0.00    -0.258 OA
ATOM     43  H8  UNL     1     108.918  41.819  97.543  1.00  0.00     0.163 HD
BRANCH  41  44
HETATM   44  C18 UNL     1     109.432  39.764  99.198  1.00  0.00     0.019 C 
HETATM   45  C19 UNL     1     110.242  38.877  99.097  1.00  0.00     0.042 C 
BRANCH  45  46
HETATM   46  N9  UNL     1     111.158  37.825  98.994  1.00  0.00    -0.221 N 
ATOM     47  H9  UNL     1     111.228  37.280  98.135  1.00  0.00     0.205 HD
BRANCH  46  48
HETATM   48  O4  UNL     1     111.962  37.541 100.070  1.00  0.00    -0.245 OA
BRANCH  48  49
HETATM   49  C20 UNL     1     111.643  36.256 100.488  1.00  0.00     0.430 C 
BRANCH  49  50
HETATM   50  N10 UNL     1     112.422  35.825 101.609  1.00  0.00    -0.056 N 
ATOM     51 3H10 UNL     1     112.890  34.941 101.410  1.00  0.00     0.276 HD
ATOM     52 2H10 UNL     1     113.240  36.422 101.735  1.00  0.00     0.276 HD
ATOM     53 1H10 UNL     1     111.878  35.765 102.470  1.00  0.00     0.276 HD
ENDBRANCH  49  50
ENDBRANCH  48  49
ENDBRANCH  46  48
ENDBRANCH  45  46
ENDBRANCH  41  44
ENDBRANCH  39  40
ENDBRANCH  38  39
ENDBRANCH  37  38
ENDBRANCH  36  37
ENDBRANCH  35  36
ENDBRANCH  34  35
ENDBRANCH  29  34
ENDBRANCH  23  26
ENDBRANCH  15  22
BRANCH  17  54
HETATM   54  N11 UNL     1     113.791  44.345  92.269  1.00  0.00    -0.113 N 
HETATM   55  O5  UNL     1     113.576  45.606  92.073  1.00  0.00    -0.532 OA
HETATM   56  O6  UNL     1     114.911  44.106  92.956  1.00  0.00    -0.532 OA
ENDBRANCH  17  54
ENDBRANCH   9  10
TORSDOF 17
ENDMDL
MODEL 5
REMARK VINA RESULT: -9.165923331      2.386      4.407
REMARK  17 active torsions:
REMARK  status: ('A' for Active; 'I' for Inactive)
REMARK    1  A    between atoms: C6_9  and  C7_10 
REMARK    2  A    between atoms: C8_11  and  O2_12 
REMARK    3  A    between atoms: C11_16  and  N3_17 
REMARK    4  A    between atoms: N4_19  and  N5_21 
REMARK       I    between atoms: N5_21  and  C12_23 
REMARK       I    between atoms: C12_23  and  N7_27 
REMARK    5  A    between atoms: N7_27  and  C13_29 
REMARK    6  A    between atoms: C13_29  and  C14_30 
REMARK    7  A    between atoms: C14_30  and  S1_31 
REMARK    8  A    between atoms: S1_31  and  S2_32 
REMARK    9  A    between atoms: S2_32  and  C15_33 
REMARK   10  A    between atoms: C15_33  and  C16_34 
REMARK   11  A    between atoms: C16_34  and  N8_35 
REMARK       I    between atoms: N8_35  and  C17_37 
REMARK   12  A    between atoms: C17_37  and  C18_39 
REMARK   13  A    between atoms: C19_40  and  N9_41 
REMARK   14  A    between atoms: N9_41  and  O4_43 
REMARK   15  A    between atoms: O4_43  and  C20_44 
REMARK   16  A    between atoms: C20_44  and  N10_45 
REMARK   17  A    between atoms: C22_50  and  N11_51 
ROOT
HETATM    1  C1  UNL     1     114.635  40.103  85.369  1.00  0.00     0.077 C 
HETATM    2  C2  UNL     1     115.671  39.573  86.290  1.00  0.00     0.065 A 
HETATM    3  O1  UNL     1     116.366  38.500  85.910  1.00  0.00    -0.301 OA
HETATM    4  C3  UNL     1     117.220  38.159  86.767  1.00  0.00     0.180 A 
HETATM    5  C4  UNL     1     118.176  37.063  86.752  1.00  0.00     0.127 C 
HETATM    6  N1  UNL     1     118.945  36.187  86.719  1.00  0.00    -0.189 NA
HETATM    7  C5  UNL     1     117.100  39.071  87.830  1.00  0.00     0.106 A 
HETATM    8  N2  UNL     1     117.811  38.935  89.032  1.00  0.00    -0.098 NA
HETATM    9  C6  UNL     1     116.086  40.002  87.518  1.00  0.00     0.051 A 
ENDROOT
BRANCH   9  10
HETATM   10  C7  UNL     1     115.414  40.932  88.437  1.00  0.00     0.084 A 
HETATM   11  C8  UNL     1     115.979  41.961  89.145  1.00  0.00     0.106 A 
HETATM   12  C9  UNL     1     115.060  42.409  90.092  1.00  0.00     0.031 A 
HETATM   13  C10 UNL     1     115.162  43.380  91.051  1.00  0.00     0.047 A 
HETATM   14  C23 UNL     1     113.910  41.667  89.982  1.00  0.00     0.081 A 
HETATM   15  C11 UNL     1     114.133  43.644  91.923  1.00  0.00     0.052 A 
HETATM   16  C21 UNL     1     112.989  42.919  91.818  1.00  0.00     0.069 A 
HETATM   17  C22 UNL     1     112.841  41.898  90.827  1.00  0.00     0.132 A 
HETATM   18  N12 UNL     1     114.159  40.784  88.986  1.00  0.00    -0.345 N 
HETATM   19  C24 UNL     1     113.299  39.641  88.750  1.00  0.00     0.156 C 
BRANCH  11  20
HETATM   20  O2  UNL     1     117.228  42.543  89.018  1.00  0.00    -0.357 OA
ATOM     21  H2  UNL     1     117.850  42.800  89.688  1.00  0.00     0.217 HD
ENDBRANCH  11  20
BRANCH  15  22
HETATM   22  N3  UNL     1     114.265  44.662  92.933  1.00  0.00    -0.286 N 
HETATM   23  N4  UNL     1     113.426  45.623  92.930  1.00  0.00    -0.228 N 
ATOM     24  H4  UNL     1     113.523  46.343  93.646  1.00  0.00     0.209 HD
ATOM     25  H3  UNL     1     115.008  44.616  93.630  1.00  0.00     0.188 HD
BRANCH  23  26
HETATM   26  N5  UNL     1     112.387  45.752  92.012  1.00  0.00    -0.118 N 
HETATM   27  C12 UNL     1     111.010  45.615  92.319  1.00  0.00     0.687 C 
HETATM   28  N6  UNL     1     110.271  44.807  91.621  1.00  0.00    -0.234 N 
HETATM   29  N7  UNL     1     110.464  46.368  93.391  1.00  0.00    -0.224 N 
ATOM     30  H62 UNL     1     110.664  44.265  90.851  1.00  0.00     0.174 HD
ATOM     31  H61 UNL     1     109.280  44.708  91.842  1.00  0.00     0.174 HD
ATOM     32  H7  UNL     1     110.087  45.881  94.204  1.00  0.00     0.177 HD
ATOM     33  H5  UNL     1     112.635  45.963  91.045  1.00  0.00     0.207 HD
BRANCH  29  34
HETATM   34  C13 UNL     1     110.430  47.815  93.354  1.00  0.00     0.149 C 
BRANCH  34  35
HETATM   35  C14 UNL     1     108.992  48.236  93.112  1.00  0.00     0.106 C 
BRANCH  35  36
HETATM   36  S1  UNL     1     107.838  46.995  93.735  1.00  0.00    -0.096 SA
BRANCH  36  37
HETATM   37  S2  UNL     1     106.566  47.834  95.241  1.00  0.00    -0.096 SA
BRANCH  37  38
HETATM   38  C15 UNL     1     107.188  47.352  96.887  1.00  0.00     0.105 C 
BRANCH  38  39
HETATM   39  C16 UNL     1     108.270  46.331  96.745  1.00  0.00     0.134 C 
BRANCH  39  40
HETATM   40  N8  UNL     1     107.948  45.114  97.436  1.00  0.00    -0.349 N 
HETATM   41  C17 UNL     1     108.957  44.172  97.742  1.00  0.00     0.298 C 
HETATM   42  O3  UNL     1     110.170  44.311  97.446  1.00  0.00    -0.258 OA
ATOM     43  H8  UNL     1     106.983  44.929  97.709  1.00  0.00     0.163 HD
BRANCH  41  44
HETATM   44  C18 UNL     1     108.629  42.937  98.448  1.00  0.00     0.019 C 
HETATM   45  C19 UNL     1     108.370  41.903  99.010  1.00  0.00     0.042 C 
BRANCH  45  46
HETATM   46  N9  UNL     1     108.095  40.687  99.643  1.00  0.00    -0.221 N 
ATOM     47  H9  UNL     1     107.132  40.399  99.820  1.00  0.00     0.205 HD
BRANCH  46  48
HETATM   48  O4  UNL     1     109.144  39.887 100.023  1.00  0.00    -0.245 OA
BRANCH  48  49
HETATM   49  C20 UNL     1     109.619  39.265  98.875  1.00  0.00     0.430 C 
BRANCH  49  50
HETATM   50  N10 UNL     1     110.354  38.069  99.154  1.00  0.00    -0.056 N 
ATOM     51 3H10 UNL     1     111.352  38.211  99.004  1.00  0.00     0.276 HD
ATOM     52 2H10 UNL     1     110.362  37.871 100.154  1.00  0.00     0.276 HD
ATOM     53 1H10 UNL     1     110.017  37.265  98.625  1.00  0.00     0.276 HD
ENDBRANCH  49  50
ENDBRANCH  48  49
ENDBRANCH  46  48
ENDBRANCH  45  46
ENDBRANCH  41  44
ENDBRANCH  39  40
ENDBRANCH  38  39
ENDBRANCH  37  38
ENDBRANCH  36  37
ENDBRANCH  35  36
ENDBRANCH  34  35
ENDBRANCH  29  34
ENDBRANCH  23  26
ENDBRANCH  15  22
BRANCH  17  54
HETATM   54  N11 UNL     1     111.607  41.269  90.799  1.00  0.00    -0.113 N 
HETATM   55  O5  UNL     1     110.614  42.026  90.457  1.00  0.00    -0.532 OA
HETATM   56  O6  UNL     1     111.238  40.015  91.070  1.00  0.00    -0.532 OA
ENDBRANCH  17  54
ENDBRANCH   9  10
TORSDOF 17
ENDMDL
