MODEL 1
REMARK VINA RESULT: -9.014089402      0.000      0.000
REMARK  20 active torsions:
REMARK  status: ('A' for Active; 'I' for Inactive)
REMARK    1  A    between atoms: N1_1  and  N2_4 
REMARK    2  A    between atoms: N2_4  and  N3_5 
REMARK    3  A    between atoms: C1_6  and  S1_7 
REMARK    4  A    between atoms: S1_7  and  S2_8 
REMARK    5  A    between atoms: S2_8  and  C2_9 
REMARK    6  A    between atoms: C3_12  and  S3_13 
REMARK    7  A    between atoms: S3_13  and  C4_14 
REMARK    8  A    between atoms: C5_15  and  C6_16 
REMARK    9  A    between atoms: C6_16  and  O1_17 
REMARK   10  A    between atoms: C6_16  and  N5_19 
REMARK       I    between atoms: N5_19  and  C7_21 
REMARK   11  A    between atoms: C7_21  and  C8_23 
REMARK   12  A    between atoms: C8_23  and  C9_24 
REMARK   13  A    between atoms: C8_23  and  C10_29 
REMARK   14  A    between atoms: C9_24  and  N6_25 
REMARK   15  A    between atoms: C10_29  and  N7_30 
REMARK   16  A    between atoms: N7_30  and  C11_32 
REMARK   17  A    between atoms: C15_36  and  O3_37 
REMARK   18  A    between atoms: C17_42  and  C18_43 
REMARK   19  A    between atoms: C19_46  and  O6_47 
REMARK   20  A    between atoms: N9_49  and  C20_50 
ROOT
HETATM    1  C2  UNL     1     111.991  42.785  91.408  1.00  0.00     0.117 A 
HETATM    2  N4  UNL     1     111.160  43.873  91.653  1.00  0.00    -0.328 N 
ATOM      3  H4  UNL     1     111.383  44.650  92.275  1.00  0.00     0.168 HD
HETATM    4  C3  UNL     1     110.041  43.754  90.964  1.00  0.00     0.150 A 
HETATM    5  N8  UNL     1     110.131  42.621  90.286  1.00  0.00    -0.329 N 
ATOM      6  H8  UNL     1     109.411  42.262  89.660  1.00  0.00     0.168 HD
HETATM    7  C17 UNL     1     111.325  41.997  90.542  1.00  0.00     0.146 A 
ENDROOT
BRANCH   4   8
HETATM    8  S3  UNL     1     108.634  44.885  90.921  1.00  0.00    -0.066 SA
BRANCH   8   9
HETATM    9  C4  UNL     1     109.214  46.538  90.836  1.00  0.00     0.057 C 
HETATM   10  C5  UNL     1     109.797  47.356  91.595  1.00  0.00     0.063 C 
BRANCH  10  11
HETATM   11  C6  UNL     1     110.311  47.444  92.889  1.00  0.00     0.142 C 
BRANCH  11  12
HETATM   12  O1  UNL     1     111.519  48.148  92.893  1.00  0.00    -0.346 OA
ATOM     13  H1  UNL     1     112.203  47.636  93.309  1.00  0.00     0.219 HD
ENDBRANCH  11  12
BRANCH  11  14
HETATM   14  N5  UNL     1     110.027  47.075  94.156  1.00  0.00    -0.307 N 
HETATM   15  C7  UNL     1     109.778  45.926  94.880  1.00  0.00     0.231 C 
HETATM   16  O2  UNL     1     109.750  44.736  94.549  1.00  0.00    -0.273 OA
ATOM     17  H5  UNL     1     109.983  47.894  94.762  1.00  0.00     0.171 HD
BRANCH  15  18
HETATM   18  C8  UNL     1     109.472  46.149  96.383  1.00  0.00     0.121 C 
BRANCH  18  19
HETATM   19  C9  UNL     1     109.929  44.952  97.142  1.00  0.00     0.245 C 
BRANCH  19  20
HETATM   20  N6  UNL     1     108.847  44.079  97.530  1.00  0.00    -0.078 N 
ATOM     21  H63 UNL     1     108.790  44.000  98.545  1.00  0.00     0.274 HD
ATOM     22  H62 UNL     1     107.944  44.514  97.345  1.00  0.00     0.274 HD
ATOM     23  H61 UNL     1     108.902  43.156  97.097  1.00  0.00     0.274 HD
ENDBRANCH  19  20
ENDBRANCH  18  19
BRANCH  18  24
HETATM   24  C10 UNL     1     107.984  46.359  96.453  1.00  0.00     0.135 C 
BRANCH  24  25
HETATM   25  N7  UNL     1     107.563  47.600  95.883  1.00  0.00    -0.389 N 
ATOM     26  H7  UNL     1     107.986  48.471  96.204  1.00  0.00     0.159 HD
BRANCH  25  27
HETATM   27  C11 UNL     1     106.565  47.638  94.877  1.00  0.00     0.030 A 
HETATM   28  C12 UNL     1     106.744  47.127  93.608  1.00  0.00     0.029 A 
HETATM   29  C13 UNL     1     105.760  47.180  92.648  1.00  0.00     0.005 A 
HETATM   30  C14 UNL     1     104.543  47.762  92.948  1.00  0.00     0.036 A 
HETATM   31  C15 UNL     1     104.329  48.284  94.211  1.00  0.00     0.067 A 
HETATM   32  C16 UNL     1     105.329  48.221  95.158  1.00  0.00     0.065 A 
BRANCH  31  33
HETATM   33  O3  UNL     1     103.095  48.876  94.518  1.00  0.00    -0.361 OA
ATOM     34  H3  UNL     1     103.014  49.420  95.293  1.00  0.00     0.217 HD
ENDBRANCH  31  33
ENDBRANCH  25  27
ENDBRANCH  24  25
ENDBRANCH  18  24
ENDBRANCH  15  18
ENDBRANCH  11  14
ENDBRANCH  10  11
ENDBRANCH   8   9
ENDBRANCH   4   8
BRANCH   1  35
HETATM   35  S2  UNL     1     113.537  42.646  92.224  1.00  0.00    -0.030 SA
BRANCH  35  36
HETATM   36  S1  UNL     1     115.215  42.651  91.046  1.00  0.00    -0.025 SA
BRANCH  36  37
HETATM   37  C1  UNL     1     115.118  41.420  89.782  1.00  0.00     0.189 A 
HETATM   38  N3  UNL     1     115.083  40.081  90.062  1.00  0.00     0.012 N 
HETATM   39  C21 UNL     1     115.012  39.412  88.898  1.00  0.00     0.721 A 
HETATM   40  N9  UNL     1     114.999  40.281  87.869  1.00  0.00    -0.098 N 
HETATM   41  N11 UNL     1     114.960  38.128  88.745  1.00  0.00    -0.231 N 
HETATM   42  C19 UNL     1     115.066  41.532  88.437  1.00  0.00     0.204 A 
ATOM     43 2H11 UNL     1     114.971  37.469  89.524  1.00  0.00     0.174 HD
ATOM     44 1H11 UNL     1     114.906  37.620  87.862  1.00  0.00     0.174 HD
BRANCH  38  45
HETATM   45  N2  UNL     1     115.116  39.529  91.297  1.00  0.00    -0.220 NA
BRANCH  45  46
HETATM   46  N1  UNL     1     115.160  39.067  92.337  1.00  0.00    -0.259 N 
ATOM     47  H12 UNL     1     115.748  39.364  91.558  1.00  0.00     0.193 HD
ATOM     48  H11 UNL     1     115.184  38.654  93.269  1.00  0.00     0.193 HD
ENDBRANCH  45  46
ENDBRANCH  38  45
BRANCH  40  49
HETATM   49  C20 UNL     1     114.930  39.999  86.478  1.00  0.00     0.209 C 
HETATM   50  N10 UNL     1     113.877  40.491  85.701  1.00  0.00    -0.069 NA
HETATM   51  S4  UNL     1     116.098  39.092  85.797  1.00  0.00    -0.043 SA
ENDBRANCH  40  49
BRANCH  42  52
HETATM   52  O6  UNL     1     115.077  42.697  87.695  1.00  0.00    -0.343 OA
ATOM     53  H6  UNL     1     114.682  42.840  86.843  1.00  0.00     0.219 HD
ENDBRANCH  42  52
ENDBRANCH  36  37
ENDBRANCH  35  36
ENDBRANCH   1  35
BRANCH   7  54
HETATM   54  C18 UNL     1     111.623  40.728  89.956  1.00  0.00     0.229 C 
HETATM   55  O4  UNL     1     111.709  40.518  88.749  1.00  0.00    -0.643 OA
HETATM   56  O5  UNL     1     111.849  39.583  90.758  1.00  0.00    -0.643 OA
ENDBRANCH   7  54
TORSDOF 20
ENDMDL
MODEL 2
REMARK VINA RESULT: -9.008393692      2.972     11.073
REMARK  20 active torsions:
REMARK  status: ('A' for Active; 'I' for Inactive)
REMARK    1  A    between atoms: N1_1  and  N2_4 
REMARK    2  A    between atoms: N2_4  and  N3_5 
REMARK    3  A    between atoms: C1_6  and  S1_7 
REMARK    4  A    between atoms: S1_7  and  S2_8 
REMARK    5  A    between atoms: S2_8  and  C2_9 
REMARK    6  A    between atoms: C3_12  and  S3_13 
REMARK    7  A    between atoms: S3_13  and  C4_14 
REMARK    8  A    between atoms: C5_15  and  C6_16 
REMARK    9  A    between atoms: C6_16  and  O1_17 
REMARK   10  A    between atoms: C6_16  and  N5_19 
REMARK       I    between atoms: N5_19  and  C7_21 
REMARK   11  A    between atoms: C7_21  and  C8_23 
REMARK   12  A    between atoms: C8_23  and  C9_24 
REMARK   13  A    between atoms: C8_23  and  C10_29 
REMARK   14  A    between atoms: C9_24  and  N6_25 
REMARK   15  A    between atoms: C10_29  and  N7_30 
REMARK   16  A    between atoms: N7_30  and  C11_32 
REMARK   17  A    between atoms: C15_36  and  O3_37 
REMARK   18  A    between atoms: C17_42  and  C18_43 
REMARK   19  A    between atoms: C19_46  and  O6_47 
REMARK   20  A    between atoms: N9_49  and  C20_50 
ROOT
HETATM    1  C2  UNL     1     110.443  45.814  92.564  1.00  0.00     0.117 A 
HETATM    2  N4  UNL     1     109.725  44.865  91.845  1.00  0.00    -0.328 N 
ATOM      3  H4  UNL     1     108.713  44.869  91.721  1.00  0.00     0.168 HD
HETATM    4  C3  UNL     1     110.544  43.958  91.346  1.00  0.00     0.150 A 
HETATM    5  N8  UNL     1     111.765  44.298  91.726  1.00  0.00    -0.329 N 
ATOM      6  H8  UNL     1     112.611  43.781  91.489  1.00  0.00     0.168 HD
HETATM    7  C17 UNL     1     111.736  45.442  92.484  1.00  0.00     0.146 A 
ENDROOT
BRANCH   4   8
HETATM    8  S3  UNL     1     110.130  42.518  90.339  1.00  0.00    -0.066 SA
BRANCH   8   9
HETATM    9  C4  UNL     1     111.057  41.133  90.888  1.00  0.00     0.057 C 
HETATM   10  C5  UNL     1     111.730  40.204  90.370  1.00  0.00     0.063 C 
BRANCH  10  11
HETATM   11  C6  UNL     1     112.129  39.735  89.118  1.00  0.00     0.142 C 
BRANCH  11  12
HETATM   12  O1  UNL     1     111.377  38.616  88.747  1.00  0.00    -0.346 OA
ATOM     13  H1  UNL     1     110.594  38.879  88.278  1.00  0.00     0.219 HD
ENDBRANCH  11  12
BRANCH  11  14
HETATM   14  N5  UNL     1     113.010  40.004  88.131  1.00  0.00    -0.307 N 
HETATM   15  C7  UNL     1     113.181  40.904  87.098  1.00  0.00     0.231 C 
HETATM   16  O2  UNL     1     112.502  41.867  86.726  1.00  0.00    -0.273 OA
ATOM     17  H5  UNL     1     113.784  39.340  88.155  1.00  0.00     0.171 HD
BRANCH  15  18
HETATM   18  C8  UNL     1     114.448  40.680  86.233  1.00  0.00     0.121 C 
BRANCH  18  19
HETATM   19  C9  UNL     1     114.496  39.249  85.825  1.00  0.00     0.245 C 
BRANCH  19  20
HETATM   20  N6  UNL     1     115.546  38.964  84.876  1.00  0.00    -0.078 N 
ATOM     21  H63 UNL     1     116.425  39.390  85.168  1.00  0.00     0.274 HD
ATOM     22  H62 UNL     1     115.814  37.981  84.915  1.00  0.00     0.274 HD
ATOM     23  H61 UNL     1     115.310  39.239  83.922  1.00  0.00     0.274 HD
ENDBRANCH  19  20
ENDBRANCH  18  19
BRANCH  18  24
HETATM   24  C10 UNL     1     115.600  41.082  87.114  1.00  0.00     0.135 C 
BRANCH  24  25
HETATM   25  N7  UNL     1     115.370  42.303  87.820  1.00  0.00    -0.389 N 
ATOM     26  H7  UNL     1     114.955  43.096  87.331  1.00  0.00     0.159 HD
BRANCH  25  27
HETATM   27  C11 UNL     1     115.713  42.427  89.190  1.00  0.00     0.030 A 
HETATM   28  C12 UNL     1     117.000  42.640  89.635  1.00  0.00     0.029 A 
HETATM   29  C13 UNL     1     117.306  42.754  90.972  1.00  0.00     0.005 A 
HETATM   30  C14 UNL     1     116.301  42.652  91.914  1.00  0.00     0.036 A 
HETATM   31  C15 UNL     1     114.998  42.438  91.503  1.00  0.00     0.067 A 
HETATM   32  C16 UNL     1     114.713  42.327  90.158  1.00  0.00     0.065 A 
BRANCH  31  33
HETATM   33  O3  UNL     1     113.976  42.334  92.457  1.00  0.00    -0.361 OA
ATOM     34  H3  UNL     1     113.265  41.719  92.319  1.00  0.00     0.217 HD
ENDBRANCH  31  33
ENDBRANCH  25  27
ENDBRANCH  24  25
ENDBRANCH  18  24
ENDBRANCH  15  18
ENDBRANCH  11  14
ENDBRANCH  10  11
ENDBRANCH   8   9
ENDBRANCH   4   8
BRANCH   1  35
HETATM   35  S2  UNL     1     109.614  47.124  93.383  1.00  0.00    -0.030 SA
BRANCH  35  36
HETATM   36  S1  UNL     1     108.124  46.608  94.694  1.00  0.00    -0.025 SA
BRANCH  36  37
HETATM   37  C1  UNL     1     106.560  47.249  94.177  1.00  0.00     0.189 A 
HETATM   38  N3  UNL     1     105.730  47.932  95.023  1.00  0.00     0.012 N 
HETATM   39  C21 UNL     1     104.629  48.283  94.336  1.00  0.00     0.721 A 
HETATM   40  N9  UNL     1     104.723  47.848  93.065  1.00  0.00    -0.098 N 
HETATM   41  N11 UNL     1     103.611  48.942  94.789  1.00  0.00    -0.231 N 
HETATM   42  C19 UNL     1     105.935  47.203  92.980  1.00  0.00     0.204 A 
ATOM     43 2H11 UNL     1     103.539  49.271  95.751  1.00  0.00     0.174 HD
ATOM     44 1H11 UNL     1     102.776  49.208  94.268  1.00  0.00     0.174 HD
BRANCH  38  45
HETATM   45  N2  UNL     1     105.977  48.203  96.326  1.00  0.00    -0.220 NA
BRANCH  45  46
HETATM   46  N1  UNL     1     106.198  48.422  97.421  1.00  0.00    -0.259 N 
ATOM     47  H12 UNL     1     106.311  47.710  96.699  1.00  0.00     0.193 HD
ATOM     48  H11 UNL     1     106.390  48.632  98.400  1.00  0.00     0.193 HD
ENDBRANCH  45  46
ENDBRANCH  38  45
BRANCH  40  49
HETATM   49  C20 UNL     1     103.786  48.005  92.009  1.00  0.00     0.209 C 
HETATM   50  N10 UNL     1     104.217  48.267  90.705  1.00  0.00    -0.069 NA
HETATM   51  S4  UNL     1     102.197  47.874  92.336  1.00  0.00    -0.043 SA
ENDBRANCH  40  49
BRANCH  42  52
HETATM   52  O6  UNL     1     106.396  46.613  91.819  1.00  0.00    -0.343 OA
ATOM     53  H6  UNL     1     106.056  45.833  91.397  1.00  0.00     0.219 HD
ENDBRANCH  42  52
ENDBRANCH  36  37
ENDBRANCH  35  36
ENDBRANCH   1  35
BRANCH   7  54
HETATM   54  C18 UNL     1     112.937  45.972  93.047  1.00  0.00     0.229 C 
HETATM   55  O4  UNL     1     113.010  47.029  93.669  1.00  0.00    -0.643 OA
HETATM   56  O5  UNL     1     114.171  45.288  92.923  1.00  0.00    -0.643 OA
ENDBRANCH   7  54
TORSDOF 20
ENDMDL
MODEL 3
REMARK VINA RESULT: -8.983785129      2.361      4.580
REMARK  20 active torsions:
REMARK  status: ('A' for Active; 'I' for Inactive)
REMARK    1  A    between atoms: N1_1  and  N2_4 
REMARK    2  A    between atoms: N2_4  and  N3_5 
REMARK    3  A    between atoms: C1_6  and  S1_7 
REMARK    4  A    between atoms: S1_7  and  S2_8 
REMARK    5  A    between atoms: S2_8  and  C2_9 
REMARK    6  A    between atoms: C3_12  and  S3_13 
REMARK    7  A    between atoms: S3_13  and  C4_14 
REMARK    8  A    between atoms: C5_15  and  C6_16 
REMARK    9  A    between atoms: C6_16  and  O1_17 
REMARK   10  A    between atoms: C6_16  and  N5_19 
REMARK       I    between atoms: N5_19  and  C7_21 
REMARK   11  A    between atoms: C7_21  and  C8_23 
REMARK   12  A    between atoms: C8_23  and  C9_24 
REMARK   13  A    between atoms: C8_23  and  C10_29 
REMARK   14  A    between atoms: C9_24  and  N6_25 
REMARK   15  A    between atoms: C10_29  and  N7_30 
REMARK   16  A    between atoms: N7_30  and  C11_32 
REMARK   17  A    between atoms: C15_36  and  O3_37 
REMARK   18  A    between atoms: C17_42  and  C18_43 
REMARK   19  A    between atoms: C19_46  and  O6_47 
REMARK   20  A    between atoms: N9_49  and  C20_50 
ROOT
HETATM    1  C2  UNL     1     112.965  44.761  92.276  1.00  0.00     0.117 A 
HETATM    2  N4  UNL     1     112.128  43.811  91.701  1.00  0.00    -0.328 N 
ATOM      3  H4  UNL     1     112.426  42.892  91.373  1.00  0.00     0.168 HD
HETATM    4  C3  UNL     1     110.892  44.270  91.641  1.00  0.00     0.150 A 
HETATM    5  N8  UNL     1     110.914  45.487  92.159  1.00  0.00    -0.329 N 
ATOM      6  H8  UNL     1     110.099  46.093  92.249  1.00  0.00     0.168 HD
HETATM    7  C17 UNL     1     112.183  45.822  92.559  1.00  0.00     0.146 A 
ENDROOT
BRANCH   4   8
HETATM    8  S3  UNL     1     109.427  43.441  90.989  1.00  0.00    -0.066 SA
BRANCH   8   9
HETATM    9  C4  UNL     1     108.427  44.603  90.137  1.00  0.00     0.057 C 
HETATM   10  C5  UNL     1     107.780  45.648  90.413  1.00  0.00     0.063 C 
BRANCH  10  11
HETATM   11  C6  UNL     1     107.483  46.474  91.498  1.00  0.00     0.142 C 
BRANCH  11  12
HETATM   12  O1  UNL     1     108.622  47.167  91.917  1.00  0.00    -0.346 OA
ATOM     13  H1  UNL     1     109.400  46.634  91.804  1.00  0.00     0.219 HD
ENDBRANCH  11  12
BRANCH  11  14
HETATM   14  N5  UNL     1     106.449  46.833  92.287  1.00  0.00    -0.307 N 
HETATM   15  C7  UNL     1     105.216  47.444  92.183  1.00  0.00     0.231 C 
HETATM   16  O2  UNL     1     104.599  47.890  91.209  1.00  0.00    -0.273 OA
ATOM     17  H5  UNL     1     106.637  46.576  93.256  1.00  0.00     0.171 HD
BRANCH  15  18
HETATM   18  C8  UNL     1     104.450  47.614  93.520  1.00  0.00     0.121 C 
BRANCH  18  19
HETATM   19  C9  UNL     1     103.012  47.851  93.215  1.00  0.00     0.245 C 
BRANCH  19  20
HETATM   20  N6  UNL     1     102.708  49.238  92.953  1.00  0.00    -0.078 N 
ATOM     21  H63 UNL     1     103.103  49.839  93.676  1.00  0.00     0.274 HD
ATOM     22  H62 UNL     1     103.231  49.579  92.146  1.00  0.00     0.274 HD
ATOM     23  H61 UNL     1     101.710  49.415  92.839  1.00  0.00     0.274 HD
ENDBRANCH  19  20
ENDBRANCH  18  19
BRANCH  18  24
HETATM   24  C10 UNL     1     105.108  48.781  94.203  1.00  0.00     0.135 C 
BRANCH  24  25
HETATM   25  N7  UNL     1     105.415  48.531  95.576  1.00  0.00    -0.389 N 
ATOM     26  H7  UNL     1     104.842  48.956  96.305  1.00  0.00     0.159 HD
BRANCH  25  27
HETATM   27  C11 UNL     1     106.504  47.700  95.939  1.00  0.00     0.030 A 
HETATM   28  C12 UNL     1     106.529  46.937  97.088  1.00  0.00     0.029 A 
HETATM   29  C13 UNL     1     107.602  46.141  97.419  1.00  0.00     0.005 A 
HETATM   30  C14 UNL     1     108.701  46.093  96.583  1.00  0.00     0.036 A 
HETATM   31  C15 UNL     1     108.710  46.845  95.422  1.00  0.00     0.067 A 
HETATM   32  C16 UNL     1     107.625  47.636  95.110  1.00  0.00     0.065 A 
BRANCH  31  33
HETATM   33  O3  UNL     1     109.824  46.799  94.573  1.00  0.00    -0.361 OA
ATOM     34  H3  UNL     1     110.065  47.568  94.070  1.00  0.00     0.217 HD
ENDBRANCH  31  33
ENDBRANCH  25  27
ENDBRANCH  24  25
ENDBRANCH  18  24
ENDBRANCH  15  18
ENDBRANCH  11  14
ENDBRANCH  10  11
ENDBRANCH   8   9
ENDBRANCH   4   8
BRANCH   1  35
HETATM   35  S2  UNL     1     114.682  44.448  92.446  1.00  0.00    -0.030 SA
BRANCH  35  36
HETATM   36  S1  UNL     1     115.332  42.556  91.998  1.00  0.00    -0.025 SA
BRANCH  36  37
HETATM   37  C1  UNL     1     114.977  42.134  90.319  1.00  0.00     0.189 A 
HETATM   38  N3  UNL     1     115.883  42.314  89.309  1.00  0.00     0.012 N 
HETATM   39  C21 UNL     1     115.317  41.903  88.161  1.00  0.00     0.721 A 
HETATM   40  N9  UNL     1     114.068  41.460  88.399  1.00  0.00    -0.098 N 
HETATM   41  N11 UNL     1     115.857  41.913  86.985  1.00  0.00    -0.231 N 
HETATM   42  C19 UNL     1     113.869  41.610  89.751  1.00  0.00     0.204 A 
ATOM     43 2H11 UNL     1     116.803  42.249  86.804  1.00  0.00     0.174 HD
ATOM     44 1H11 UNL     1     115.428  41.601  86.114  1.00  0.00     0.174 HD
BRANCH  38  45
HETATM   45  N2  UNL     1     117.131  42.820  89.446  1.00  0.00    -0.220 NA
BRANCH  45  46
HETATM   46  N1  UNL     1     118.187  43.231  89.553  1.00  0.00    -0.259 N 
ATOM     47  H12 UNL     1     117.660  42.446  89.171  1.00  0.00     0.193 HD
ATOM     48  H11 UNL     1     119.127  43.612  89.656  1.00  0.00     0.193 HD
ENDBRANCH  45  46
ENDBRANCH  38  45
BRANCH  40  49
HETATM   49  C20 UNL     1     113.127  40.938  87.470  1.00  0.00     0.209 C 
HETATM   50  N10 UNL     1     112.533  41.766  86.513  1.00  0.00    -0.069 NA
HETATM   51  S4  UNL     1     112.748  39.356  87.534  1.00  0.00    -0.043 SA
ENDBRANCH  40  49
BRANCH  42  52
HETATM   52  O6  UNL     1     112.692  41.263  90.384  1.00  0.00    -0.343 OA
ATOM     53  H6  UNL     1     112.021  40.670  90.065  1.00  0.00     0.219 HD
ENDBRANCH  42  52
ENDBRANCH  36  37
ENDBRANCH  35  36
ENDBRANCH   1  35
BRANCH   7  54
HETATM   54  C18 UNL     1     112.457  47.113  93.106  1.00  0.00     0.229 C 
HETATM   55  O4  UNL     1     113.387  47.367  93.867  1.00  0.00    -0.643 OA
HETATM   56  O5  UNL     1     111.645  48.230  92.794  1.00  0.00    -0.643 OA
ENDBRANCH   7  54
TORSDOF 20
ENDMDL
MODEL 4
REMARK VINA RESULT: -8.914513337      2.141      3.184
REMARK  20 active torsions:
REMARK  status: ('A' for Active; 'I' for Inactive)
REMARK    1  A    between atoms: N1_1  and  N2_4 
REMARK    2  A    between atoms: N2_4  and  N3_5 
REMARK    3  A    between atoms: C1_6  and  S1_7 
REMARK    4  A    between atoms: S1_7  and  S2_8 
REMARK    5  A    between atoms: S2_8  and  C2_9 
REMARK    6  A    between atoms: C3_12  and  S3_13 
REMARK    7  A    between atoms: S3_13  and  C4_14 
REMARK    8  A    between atoms: C5_15  and  C6_16 
REMARK    9  A    between atoms: C6_16  and  O1_17 
REMARK   10  A    between atoms: C6_16  and  N5_19 
REMARK       I    between atoms: N5_19  and  C7_21 
REMARK   11  A    between atoms: C7_21  and  C8_23 
REMARK   12  A    between atoms: C8_23  and  C9_24 
REMARK   13  A    between atoms: C8_23  and  C10_29 
REMARK   14  A    between atoms: C9_24  and  N6_25 
REMARK   15  A    between atoms: C10_29  and  N7_30 
REMARK   16  A    between atoms: N7_30  and  C11_32 
REMARK   17  A    between atoms: C15_36  and  O3_37 
REMARK   18  A    between atoms: C17_42  and  C18_43 
REMARK   19  A    between atoms: C19_46  and  O6_47 
REMARK   20  A    between atoms: N9_49  and  C20_50 
ROOT
HETATM    1  C2  UNL     1     111.375  42.080  91.164  1.00  0.00     0.117 A 
HETATM    2  N4  UNL     1     112.612  42.444  91.686  1.00  0.00    -0.328 N 
ATOM      3  H4  UNL     1     113.398  41.808  91.821  1.00  0.00     0.168 HD
HETATM    4  C3  UNL     1     112.620  43.730  91.982  1.00  0.00     0.150 A 
HETATM    5  N8  UNL     1     111.424  44.200  91.666  1.00  0.00    -0.329 N 
ATOM      6  H8  UNL     1     111.133  45.170  91.783  1.00  0.00     0.168 HD
HETATM    7  C17 UNL     1     110.629  43.203  91.159  1.00  0.00     0.146 A 
ENDROOT
BRANCH   4   8
HETATM    8  S3  UNL     1     113.970  44.702  92.682  1.00  0.00    -0.066 SA
BRANCH   8   9
HETATM    9  C4  UNL     1     113.420  46.342  92.976  1.00  0.00     0.057 C 
HETATM   10  C5  UNL     1     112.371  46.909  93.379  1.00  0.00     0.063 C 
BRANCH  10  11
HETATM   11  C6  UNL     1     111.081  46.602  93.814  1.00  0.00     0.142 C 
BRANCH  11  12
HETATM   12  O1  UNL     1     110.208  46.484  92.728  1.00  0.00    -0.346 OA
ATOM     13  H1  UNL     1     109.348  46.818  92.952  1.00  0.00     0.219 HD
ENDBRANCH  11  12
BRANCH  11  14
HETATM   14  N5  UNL     1     110.385  46.375  94.948  1.00  0.00    -0.307 N 
HETATM   15  C7  UNL     1     109.423  45.511  95.430  1.00  0.00     0.231 C 
HETATM   16  O2  UNL     1     108.843  44.553  94.908  1.00  0.00    -0.273 OA
ATOM     17  H5  UNL     1     110.651  47.047  95.668  1.00  0.00     0.171 HD
BRANCH  15  18
HETATM   18  C8  UNL     1     108.969  45.778  96.888  1.00  0.00     0.121 C 
BRANCH  18  19
HETATM   19  C9  UNL     1     108.637  44.474  97.526  1.00  0.00     0.245 C 
BRANCH  19  20
HETATM   20  N6  UNL     1     109.793  43.640  97.750  1.00  0.00    -0.078 N 
ATOM     21  H63 UNL     1     110.371  44.014  98.502  1.00  0.00     0.274 HD
ATOM     22  H62 UNL     1     109.524  42.751  98.172  1.00  0.00     0.274 HD
ATOM     23  H61 UNL     1     110.348  43.489  96.907  1.00  0.00     0.274 HD
ENDBRANCH  19  20
ENDBRANCH  18  19
BRANCH  18  24
HETATM   24  C10 UNL     1     107.784  46.696  96.769  1.00  0.00     0.135 C 
BRANCH  24  25
HETATM   25  N7  UNL     1     107.840  47.541  95.618  1.00  0.00    -0.389 N 
ATOM     26  H7  UNL     1     108.666  48.118  95.457  1.00  0.00     0.159 HD
BRANCH  25  27
HETATM   27  C11 UNL     1     106.763  47.589  94.697  1.00  0.00     0.030 A 
HETATM   28  C12 UNL     1     106.831  47.075  93.420  1.00  0.00     0.029 A 
HETATM   29  C13 UNL     1     105.772  47.138  92.544  1.00  0.00     0.005 A 
HETATM   30  C14 UNL     1     104.591  47.735  92.941  1.00  0.00     0.036 A 
HETATM   31  C15 UNL     1     104.488  48.262  94.216  1.00  0.00     0.067 A 
HETATM   32  C16 UNL     1     105.561  48.188  95.077  1.00  0.00     0.065 A 
BRANCH  31  33
HETATM   33  O3  UNL     1     103.291  48.870  94.622  1.00  0.00    -0.361 OA
ATOM     34  H3  UNL     1     102.942  48.691  95.487  1.00  0.00     0.217 HD
ENDBRANCH  31  33
ENDBRANCH  25  27
ENDBRANCH  24  25
ENDBRANCH  18  24
ENDBRANCH  15  18
ENDBRANCH  11  14
ENDBRANCH  10  11
ENDBRANCH   8   9
ENDBRANCH   4   8
BRANCH   1  35
HETATM   35  S2  UNL     1     111.051  40.415  90.720  1.00  0.00    -0.030 SA
BRANCH  35  36
HETATM   36  S1  UNL     1     112.123  39.646  89.150  1.00  0.00    -0.025 SA
BRANCH  36  37
HETATM   37  C1  UNL     1     113.809  40.175  89.201  1.00  0.00     0.189 A 
HETATM   38  N3  UNL     1     114.380  40.904  88.194  1.00  0.00     0.012 N 
HETATM   39  C21 UNL     1     115.660  41.146  88.527  1.00  0.00     0.721 A 
HETATM   40  N9  UNL     1     115.935  40.593  89.724  1.00  0.00    -0.098 N 
HETATM   41  N11 UNL     1     116.530  41.806  87.833  1.00  0.00    -0.231 N 
HETATM   42  C19 UNL     1     114.768  39.989  90.133  1.00  0.00     0.204 A 
ATOM     43 2H11 UNL     1     116.323  42.224  86.926  1.00  0.00     0.174 HD
ATOM     44 1H11 UNL     1     117.501  41.989  88.085  1.00  0.00     0.174 HD
BRANCH  38  45
HETATM   45  N2  UNL     1     113.762  41.310  87.061  1.00  0.00    -0.220 NA
BRANCH  45  46
HETATM   46  N1  UNL     1     113.254  41.663  86.105  1.00  0.00    -0.259 N 
ATOM     47  H12 UNL     1     114.116  41.751  86.643  1.00  0.00     0.193 HD
ATOM     48  H11 UNL     1     112.787  41.970  85.253  1.00  0.00     0.193 HD
ENDBRANCH  45  46
ENDBRANCH  38  45
BRANCH  40  49
HETATM   49  C20 UNL     1     117.160  40.611  90.443  1.00  0.00     0.209 C 
HETATM   50  N10 UNL     1     117.583  41.768  91.105  1.00  0.00    -0.069 NA
HETATM   51  S4  UNL     1     118.071  39.262  90.488  1.00  0.00    -0.043 SA
ENDBRANCH  40  49
BRANCH  42  52
HETATM   52  O6  UNL     1     114.650  39.307  91.328  1.00  0.00    -0.343 OA
ATOM     53  H6  UNL     1     114.523  38.373  91.447  1.00  0.00     0.219 HD
ENDBRANCH  42  52
ENDBRANCH  36  37
ENDBRANCH  35  36
ENDBRANCH   1  35
BRANCH   7  54
HETATM   54  C18 UNL     1     109.274  43.468  90.794  1.00  0.00     0.229 C 
HETATM   55  O4  UNL     1     108.740  43.078  89.759  1.00  0.00    -0.643 OA
HETATM   56  O5  UNL     1     108.421  44.225  91.633  1.00  0.00    -0.643 OA
ENDBRANCH   7  54
TORSDOF 20
ENDMDL
MODEL 5
REMARK VINA RESULT: -8.827753179      2.252      3.953
REMARK  20 active torsions:
REMARK  status: ('A' for Active; 'I' for Inactive)
REMARK    1  A    between atoms: N1_1  and  N2_4 
REMARK    2  A    between atoms: N2_4  and  N3_5 
REMARK    3  A    between atoms: C1_6  and  S1_7 
REMARK    4  A    between atoms: S1_7  and  S2_8 
REMARK    5  A    between atoms: S2_8  and  C2_9 
REMARK    6  A    between atoms: C3_12  and  S3_13 
REMARK    7  A    between atoms: S3_13  and  C4_14 
REMARK    8  A    between atoms: C5_15  and  C6_16 
REMARK    9  A    between atoms: C6_16  and  O1_17 
REMARK   10  A    between atoms: C6_16  and  N5_19 
REMARK       I    between atoms: N5_19  and  C7_21 
REMARK   11  A    between atoms: C7_21  and  C8_23 
REMARK   12  A    between atoms: C8_23  and  C9_24 
REMARK   13  A    between atoms: C8_23  and  C10_29 
REMARK   14  A    between atoms: C9_24  and  N6_25 
REMARK   15  A    between atoms: C10_29  and  N7_30 
REMARK   16  A    between atoms: N7_30  and  C11_32 
REMARK   17  A    between atoms: C15_36  and  O3_37 
REMARK   18  A    between atoms: C17_42  and  C18_43 
REMARK   19  A    between atoms: C19_46  and  O6_47 
REMARK   20  A    between atoms: N9_49  and  C20_50 
ROOT
HETATM    1  C2  UNL     1     113.337  43.834  92.240  1.00  0.00     0.117 A 
HETATM    2  N4  UNL     1     112.614  42.747  91.760  1.00  0.00    -0.328 N 
ATOM      3  H4  UNL     1     112.974  41.796  91.683  1.00  0.00     0.168 HD
HETATM    4  C3  UNL     1     111.397  43.125  91.419  1.00  0.00     0.150 A 
HETATM    5  N8  UNL     1     111.320  44.423  91.665  1.00  0.00    -0.329 N 
ATOM      6  H8  UNL     1     110.492  44.996  91.501  1.00  0.00     0.168 HD
HETATM    7  C17 UNL     1     112.505  44.892  92.172  1.00  0.00     0.146 A 
ENDROOT
BRANCH   4   8
HETATM    8  S3  UNL     1     110.065  42.112  90.744  1.00  0.00    -0.066 SA
BRANCH   8   9
HETATM    9  C4  UNL     1     108.911  43.139  89.912  1.00  0.00     0.057 C 
HETATM   10  C5  UNL     1     108.443  44.300  90.040  1.00  0.00     0.063 C 
BRANCH  10  11
HETATM   11  C6  UNL     1     108.550  45.417  90.870  1.00  0.00     0.142 C 
BRANCH  11  12
HETATM   12  O1  UNL     1     109.556  46.275  90.415  1.00  0.00    -0.346 OA
ATOM     13  H1  UNL     1     109.568  47.078  90.923  1.00  0.00     0.219 HD
ENDBRANCH  11  12
BRANCH  11  14
HETATM   14  N5  UNL     1     107.999  45.955  91.978  1.00  0.00    -0.307 N 
HETATM   15  C7  UNL     1     108.207  47.009  92.844  1.00  0.00     0.231 C 
HETATM   16  O2  UNL     1     109.061  47.902  92.862  1.00  0.00    -0.273 OA
ATOM     17  H5  UNL     1     107.179  45.418  92.263  1.00  0.00     0.171 HD
BRANCH  15  18
HETATM   18  C8  UNL     1     107.200  47.106  94.019  1.00  0.00     0.121 C 
BRANCH  18  19
HETATM   19  C9  UNL     1     105.989  47.832  93.545  1.00  0.00     0.245 C 
BRANCH  19  20
HETATM   20  N6  UNL     1     105.735  49.050  94.277  1.00  0.00    -0.078 N 
ATOM     21  H63 UNL     1     106.151  49.852  93.803  1.00  0.00     0.274 HD
ATOM     22  H62 UNL     1     104.751  49.312  94.217  1.00  0.00     0.274 HD
ATOM     23  H61 UNL     1     106.040  49.005  95.250  1.00  0.00     0.274 HD
ENDBRANCH  19  20
ENDBRANCH  18  19
BRANCH  18  24
HETATM   24  C10 UNL     1     107.937  47.834  95.109  1.00  0.00     0.135 C 
BRANCH  24  25
HETATM   25  N7  UNL     1     107.602  47.374  96.420  1.00  0.00    -0.389 N 
ATOM     26  H7  UNL     1     107.010  47.950  97.019  1.00  0.00     0.159 HD
BRANCH  25  27
HETATM   27  C11 UNL     1     108.082  46.129  96.899  1.00  0.00     0.030 A 
HETATM   28  C12 UNL     1     109.421  45.820  97.004  1.00  0.00     0.029 A 
HETATM   29  C13 UNL     1     109.860  44.601  97.468  1.00  0.00     0.005 A 
HETATM   30  C14 UNL     1     108.941  43.643  97.848  1.00  0.00     0.036 A 
HETATM   31  C15 UNL     1     107.589  43.919  97.756  1.00  0.00     0.067 A 
HETATM   32  C16 UNL     1     107.170  45.146  97.287  1.00  0.00     0.065 A 
BRANCH  31  33
HETATM   33  O3  UNL     1     106.653  42.948  98.140  1.00  0.00    -0.361 OA
ATOM     34  H3  UNL     1     105.912  42.760  97.576  1.00  0.00     0.217 HD
ENDBRANCH  31  33
ENDBRANCH  25  27
ENDBRANCH  24  25
ENDBRANCH  18  24
ENDBRANCH  15  18
ENDBRANCH  11  14
ENDBRANCH  10  11
ENDBRANCH   8   9
ENDBRANCH   4   8
BRANCH   1  35
HETATM   35  S2  UNL     1     115.010  43.645  92.729  1.00  0.00    -0.030 SA
BRANCH  35  36
HETATM   36  S1  UNL     1     116.314  42.914  91.326  1.00  0.00    -0.025 SA
BRANCH  36  37
HETATM   37  C1  UNL     1     115.477  41.920  90.126  1.00  0.00     0.189 A 
HETATM   38  N3  UNL     1     115.037  40.654  90.399  1.00  0.00     0.012 N 
HETATM   39  C21 UNL     1     114.449  40.168  89.292  1.00  0.00     0.721 A 
HETATM   40  N9  UNL     1     114.495  41.086  88.308  1.00  0.00    -0.098 N 
HETATM   41  N11 UNL     1     113.907  39.001  89.152  1.00  0.00    -0.231 N 
HETATM   42  C19 UNL     1     115.141  42.176  88.843  1.00  0.00     0.204 A 
ATOM     43 2H11 UNL     1     113.872  38.306  89.897  1.00  0.00     0.174 HD
ATOM     44 1H11 UNL     1     113.461  38.633  88.313  1.00  0.00     0.174 HD
BRANCH  38  45
HETATM   45  N2  UNL     1     115.172  40.006  91.579  1.00  0.00    -0.220 NA
BRANCH  45  46
HETATM   46  N1  UNL     1     115.298  39.452  92.566  1.00  0.00    -0.259 N 
ATOM     47  H12 UNL     1     115.788  39.690  91.704  1.00  0.00     0.193 HD
ATOM     48  H11 UNL     1     115.397  38.959  93.453  1.00  0.00     0.193 HD
ENDBRANCH  45  46
ENDBRANCH  38  45
BRANCH  40  49
HETATM   49  C20 UNL     1     113.991  40.983  86.983  1.00  0.00     0.209 C 
HETATM   50  N10 UNL     1     112.971  41.829  86.539  1.00  0.00    -0.069 NA
HETATM   51  S4  UNL     1     114.619  39.862  85.984  1.00  0.00    -0.043 SA
ENDBRANCH  40  49
BRANCH  42  52
HETATM   52  O6  UNL     1     115.384  43.334  88.131  1.00  0.00    -0.343 OA
ATOM     53  H6  UNL     1     114.870  44.133  88.141  1.00  0.00     0.219 HD
ENDBRANCH  42  52
ENDBRANCH  36  37
ENDBRANCH  35  36
ENDBRANCH   1  35
BRANCH   7  54
HETATM   54  C18 UNL     1     112.672  46.280  92.467  1.00  0.00     0.229 C 
HETATM   55  O4  UNL     1     113.106  46.722  93.528  1.00  0.00    -0.643 OA
HETATM   56  O5  UNL     1     112.335  47.278  91.521  1.00  0.00    -0.643 OA
ENDBRANCH   7  54
TORSDOF 20
ENDMDL
