MODEL 1
REMARK VINA RESULT: -9.870400366      0.000      0.000
REMARK  18 active torsions:
REMARK  status: ('A' for Active; 'I' for Inactive)
REMARK    1  A    between atoms: C2_2  and  O2_4 
REMARK    2  A    between atoms: O2_4  and  C3_5 
REMARK    3  A    between atoms: C6_8  and  C7_9 
REMARK       I    between atoms: C7_9  and  N1_11 
REMARK    4  A    between atoms: N1_11  and  C8_13 
REMARK    5  A    between atoms: C8_13  and  C9_14 
REMARK    6  A    between atoms: C9_14  and  C10_15 
REMARK    7  A    between atoms: C10_15  and  O4_16 
REMARK    8  A    between atoms: C10_15  and  N2_18 
REMARK    9  A    between atoms: N2_18  and  N3_20 
REMARK   10  A    between atoms: N3_20  and  C11_21 
REMARK   11  A    between atoms: C11_21  and  O5_22 
REMARK   12  A    between atoms: C11_21  and  C12_24 
REMARK   13  A    between atoms: C12_24  and  C13_25 
REMARK   14  A    between atoms: C15_29  and  N5_30 
REMARK   15  A    between atoms: C16_34  and  O6_35 
REMARK   16  A    between atoms: C21_43  and  N7_44 
REMARK   17  A    between atoms: C22_47  and  O9_48 
REMARK   18  A    between atoms: C23_50  and  N8_51 
ROOT
HETATM    1  C3  UNL     1     112.908  42.355  91.086  1.00  0.00     0.106 A 
HETATM    2  C4  UNL     1     111.682  42.978  91.297  1.00  0.00     0.027 A 
HETATM    3  C5  UNL     1     111.466  43.805  92.362  1.00  0.00     0.036 A 
HETATM    4  C6  UNL     1     110.258  44.441  92.621  1.00  0.00     0.066 A 
HETATM    5  C16 UNL     1     109.205  44.226  91.747  1.00  0.00     0.083 A 
HETATM    6  C17 UNL     1     109.400  43.392  90.661  1.00  0.00     0.067 A 
HETATM    7  C18 UNL     1     110.614  42.773  90.434  1.00  0.00     0.048 A 
HETATM    8  N6  UNL     1     110.785  41.965  89.401  1.00  0.00    -0.355 N 
ATOM      9  H6  UNL     1     109.999  41.817  88.768  1.00  0.00     0.166 HD
HETATM   10  C19 UNL     1     111.945  41.326  89.139  1.00  0.00     0.050 A 
HETATM   11  C20 UNL     1     112.038  40.492  88.060  1.00  0.00     0.069 A 
HETATM   12  C21 UNL     1     113.214  39.791  87.759  1.00  0.00     0.140 A 
HETATM   13  C22 UNL     1     114.272  39.971  88.588  1.00  0.00     0.133 A 
HETATM   14  C23 UNL     1     114.161  40.837  89.696  1.00  0.00     0.153 A 
HETATM   15  C24 UNL     1     113.034  41.528  90.007  1.00  0.00     0.061 A 
ENDROOT
BRANCH   4  16
HETATM   16  C7  UNL     1     110.120  45.298  93.768  1.00  0.00     0.254 C 
HETATM   17  O3  UNL     1     111.111  46.094  93.982  1.00  0.00    -0.268 OA
HETATM   18  N1  UNL     1     109.073  45.396  94.679  1.00  0.00    -0.357 N 
ATOM     19  H1  UNL     1     108.261  44.794  94.548  1.00  0.00     0.162 HD
BRANCH  18  20
HETATM   20  C8  UNL     1     109.077  46.320  95.815  1.00  0.00     0.127 C 
BRANCH  20  21
HETATM   21  C9  UNL     1     108.542  45.746  97.084  1.00  0.00     0.074 C 
BRANCH  21  22
HETATM   22  C10 UNL     1     108.909  44.257  97.114  1.00  0.00     0.231 C 
BRANCH  22  23
HETATM   23  O4  UNL     1     110.222  44.075  97.474  1.00  0.00    -0.376 OA
ATOM     24  H4  UNL     1     110.759  43.860  96.720  1.00  0.00     0.212 HD
ENDBRANCH  22  23
BRANCH  22  25
HETATM   25  N2  UNL     1     108.082  43.481  97.954  1.00  0.00    -0.309 N 
ATOM     26  H2  UNL     1     108.113  43.591  98.968  1.00  0.00     0.178 HD
BRANCH  25  27
HETATM   27  N3  UNL     1     107.237  42.575  97.371  1.00  0.00    -0.111 NA
BRANCH  27  28
HETATM   28  C11 UNL     1     107.225  41.321  98.147  1.00  0.00     0.235 C 
BRANCH  28  29
HETATM   29  O5  UNL     1     107.629  40.304  97.322  1.00  0.00    -0.378 OA
ATOM     30  H5  UNL     1     106.972  40.192  96.646  1.00  0.00     0.211 HD
ENDBRANCH  28  29
BRANCH  28  31
HETATM   31  C12 UNL     1     108.092  41.480  99.372  1.00  0.00     0.098 C 
BRANCH  31  32
HETATM   32  C13 UNL     1     109.191  40.452  99.341  1.00  0.00     0.005 A 
HETATM   33  C14 UNL     1     110.502  40.637  98.997  1.00  0.00     0.105 A 
HETATM   34  N4  UNL     1     111.292  39.606  99.024  1.00  0.00    -0.346 N 
HETATM   35  C15 UNL     1     110.787  38.424  99.385  1.00  0.00     0.142 A 
ATOM     36  H4  UNL     1     112.277  39.698  98.776  1.00  0.00     0.167 HD
HETATM   37  S1  UNL     1     109.148  38.783  99.693  1.00  0.00    -0.058 SA
BRANCH  35  38
HETATM   38  N5  UNL     1     111.433  37.281  99.469  1.00  0.00    -0.380 N 
ATOM     39  H52 UNL     1     111.702  36.737 100.290  1.00  0.00     0.158 HD
ATOM     40  H51 UNL     1     111.790  36.720  98.696  1.00  0.00     0.158 HD
ENDBRANCH  35  38
ENDBRANCH  31  32
ENDBRANCH  28  31
ENDBRANCH  27  28
ENDBRANCH  25  27
ENDBRANCH  22  25
ENDBRANCH  21  22
ENDBRANCH  20  21
ENDBRANCH  18  20
ENDBRANCH   4  16
BRANCH   5  41
HETATM   41  O6  UNL     1     107.965  44.811  91.910  1.00  0.00    -0.360 OA
ATOM     42  H6  UNL     1     107.300  44.455  92.487  1.00  0.00     0.217 HD
ENDBRANCH   5  41
BRANCH   1  43
HETATM   43  O2  UNL     1     113.936  42.594  91.959  1.00  0.00    -0.277 OA
BRANCH  43  44
HETATM   44  C2  UNL     1     114.694  43.792  91.858  1.00  0.00     0.260 C 
HETATM   45  C1  UNL     1     115.589  44.131  92.991  1.00  0.00     0.126 C 
HETATM   46  O1  UNL     1     114.564  44.490  90.828  1.00  0.00    -0.265 OA
ENDBRANCH  43  44
ENDBRANCH   1  43
BRANCH  14  47
HETATM   47  N8  UNL     1     115.319  40.915  90.489  1.00  0.00    -0.112 N 
HETATM   48  O10 UNL     1     116.246  41.665  90.135  1.00  0.00    -0.532 OA
HETATM   49  O11 UNL     1     115.476  40.154  91.610  1.00  0.00    -0.532 OA
ENDBRANCH  14  47
BRANCH  13  50
HETATM   50  O9  UNL     1     115.474  39.318  88.374  1.00  0.00    -0.356 OA
ATOM     51  H9  UNL     1     115.943  38.899  89.085  1.00  0.00     0.218 HD
ENDBRANCH  13  50
BRANCH  12  52
HETATM   52  N7  UNL     1     113.228  38.945  86.609  1.00  0.00    -0.113 N 
HETATM   53  O7  UNL     1     112.480  38.015  86.407  1.00  0.00    -0.532 OA
HETATM   54  O8  UNL     1     114.210  39.223  85.664  1.00  0.00    -0.532 OA
ENDBRANCH  12  52
TORSDOF 18
ENDMDL
MODEL 2
REMARK VINA RESULT: -9.712824057      1.730      3.115
REMARK  18 active torsions:
REMARK  status: ('A' for Active; 'I' for Inactive)
REMARK    1  A    between atoms: C2_2  and  O2_4 
REMARK    2  A    between atoms: O2_4  and  C3_5 
REMARK    3  A    between atoms: C6_8  and  C7_9 
REMARK       I    between atoms: C7_9  and  N1_11 
REMARK    4  A    between atoms: N1_11  and  C8_13 
REMARK    5  A    between atoms: C8_13  and  C9_14 
REMARK    6  A    between atoms: C9_14  and  C10_15 
REMARK    7  A    between atoms: C10_15  and  O4_16 
REMARK    8  A    between atoms: C10_15  and  N2_18 
REMARK    9  A    between atoms: N2_18  and  N3_20 
REMARK   10  A    between atoms: N3_20  and  C11_21 
REMARK   11  A    between atoms: C11_21  and  O5_22 
REMARK   12  A    between atoms: C11_21  and  C12_24 
REMARK   13  A    between atoms: C12_24  and  C13_25 
REMARK   14  A    between atoms: C15_29  and  N5_30 
REMARK   15  A    between atoms: C16_34  and  O6_35 
REMARK   16  A    between atoms: C21_43  and  N7_44 
REMARK   17  A    between atoms: C22_47  and  O9_48 
REMARK   18  A    between atoms: C23_50  and  N8_51 
ROOT
HETATM    1  C3  UNL     1     112.373  42.416  90.647  1.00  0.00     0.106 A 
HETATM    2  C4  UNL     1     112.443  43.506  91.509  1.00  0.00     0.027 A 
HETATM    3  C5  UNL     1     111.345  43.973  92.171  1.00  0.00     0.036 A 
HETATM    4  C6  UNL     1     111.361  45.064  93.032  1.00  0.00     0.066 A 
HETATM    5  C16 UNL     1     112.564  45.719  93.236  1.00  0.00     0.083 A 
HETATM    6  C17 UNL     1     113.691  45.262  92.576  1.00  0.00     0.067 A 
HETATM    7  C18 UNL     1     113.639  44.176  91.724  1.00  0.00     0.048 A 
HETATM    8  N6  UNL     1     114.720  43.758  91.086  1.00  0.00    -0.355 N 
ATOM      9  H6  UNL     1     115.597  44.253  91.246  1.00  0.00     0.166 HD
HETATM   10  C19 UNL     1     114.722  42.711  90.234  1.00  0.00     0.050 A 
HETATM   11  C20 UNL     1     115.878  42.350  89.597  1.00  0.00     0.069 A 
HETATM   12  C21 UNL     1     115.926  41.284  88.690  1.00  0.00     0.140 A 
HETATM   13  C22 UNL     1     114.771  40.613  88.459  1.00  0.00     0.133 A 
HETATM   14  C23 UNL     1     113.588  40.996  89.125  1.00  0.00     0.153 A 
HETATM   15  C24 UNL     1     113.516  42.024  90.010  1.00  0.00     0.061 A 
ENDROOT
BRANCH   4  16
HETATM   16  C7  UNL     1     110.153  45.488  93.690  1.00  0.00     0.254 C 
HETATM   17  O3  UNL     1     109.063  45.234  93.053  1.00  0.00    -0.268 OA
HETATM   18  N1  UNL     1     109.990  46.129  94.914  1.00  0.00    -0.357 N 
ATOM     19  H1  UNL     1     110.824  46.344  95.461  1.00  0.00     0.162 HD
BRANCH  18  20
HETATM   20  C8  UNL     1     108.685  46.511  95.457  1.00  0.00     0.127 C 
BRANCH  20  21
HETATM   21  C9  UNL     1     108.415  46.009  96.835  1.00  0.00     0.074 C 
BRANCH  21  22
HETATM   22  C10 UNL     1     109.188  44.697  97.014  1.00  0.00     0.231 C 
BRANCH  22  23
HETATM   23  O4  UNL     1     110.451  44.925  97.502  1.00  0.00    -0.376 OA
ATOM     24  H4  UNL     1     110.420  45.289  98.379  1.00  0.00     0.212 HD
ENDBRANCH  22  23
BRANCH  22  25
HETATM   25  N2  UNL     1     108.532  43.754  97.836  1.00  0.00    -0.309 N 
ATOM     26  H2  UNL     1     108.777  43.659  98.822  1.00  0.00     0.178 HD
BRANCH  25  27
HETATM   27  N3  UNL     1     107.560  42.972  97.274  1.00  0.00    -0.111 NA
BRANCH  27  28
HETATM   28  C11 UNL     1     107.344  41.765  98.095  1.00  0.00     0.235 C 
BRANCH  28  29
HETATM   29  O5  UNL     1     107.584  40.667  97.310  1.00  0.00    -0.378 OA
ATOM     30  H5  UNL     1     108.419  40.791  96.875  1.00  0.00     0.211 HD
ENDBRANCH  28  29
BRANCH  28  31
HETATM   31  C12 UNL     1     108.220  41.829  99.321  1.00  0.00     0.098 C 
BRANCH  31  32
HETATM   32  C13 UNL     1     109.256  40.739  99.251  1.00  0.00     0.005 A 
HETATM   33  C14 UNL     1     110.574  40.857  98.907  1.00  0.00     0.105 A 
HETATM   34  N4  UNL     1     111.302  39.780  98.896  1.00  0.00    -0.346 N 
HETATM   35  C15 UNL     1     110.728  38.619  99.220  1.00  0.00     0.142 A 
ATOM     36  H4  UNL     1     112.290  39.822  98.646  1.00  0.00     0.167 HD
HETATM   37  S1  UNL     1     109.114  39.064  99.547  1.00  0.00    -0.058 SA
BRANCH  35  38
HETATM   38  N5  UNL     1     111.305  37.437  99.263  1.00  0.00    -0.380 N 
ATOM     39  H52 UNL     1     112.189  37.153  99.686  1.00  0.00     0.158 HD
ATOM     40  H51 UNL     1     110.952  36.568  98.864  1.00  0.00     0.158 HD
ENDBRANCH  35  38
ENDBRANCH  31  32
ENDBRANCH  28  31
ENDBRANCH  27  28
ENDBRANCH  25  27
ENDBRANCH  22  25
ENDBRANCH  21  22
ENDBRANCH  20  21
ENDBRANCH  18  20
ENDBRANCH   4  16
BRANCH   5  41
HETATM   41  O6  UNL     1     112.692  46.809  94.072  1.00  0.00    -0.360 OA
ATOM     42  H6  UNL     1     112.818  47.694  93.750  1.00  0.00     0.217 HD
ENDBRANCH   5  41
BRANCH   1  43
HETATM   43  O2  UNL     1     111.174  41.779  90.474  1.00  0.00    -0.277 OA
BRANCH  43  44
HETATM   44  C2  UNL     1     110.094  42.450  89.838  1.00  0.00     0.260 C 
HETATM   45  C1  UNL     1     108.784  42.447  90.535  1.00  0.00     0.126 C 
HETATM   46  O1  UNL     1     110.305  43.001  88.736  1.00  0.00    -0.265 OA
ENDBRANCH  43  44
ENDBRANCH   1  43
BRANCH  14  47
HETATM   47  N8  UNL     1     112.456  40.237  88.779  1.00  0.00    -0.112 N 
HETATM   48  O10 UNL     1     112.093  39.315  89.530  1.00  0.00    -0.532 OA
HETATM   49  O11 UNL     1     111.774  40.451  87.616  1.00  0.00    -0.532 OA
ENDBRANCH  14  47
BRANCH  13  50
HETATM   50  O9  UNL     1     114.720  39.548  87.575  1.00  0.00    -0.356 OA
ATOM     51  H9  UNL     1     114.588  39.684  86.645  1.00  0.00     0.218 HD
ENDBRANCH  13  50
BRANCH  12  52
HETATM   52  N7  UNL     1     117.176  40.970  88.074  1.00  0.00    -0.113 N 
HETATM   53  O7  UNL     1     118.181  40.622  88.651  1.00  0.00    -0.532 OA
HETATM   54  O8  UNL     1     117.219  41.102  86.689  1.00  0.00    -0.532 OA
ENDBRANCH  12  52
TORSDOF 18
ENDMDL
MODEL 3
REMARK VINA RESULT: -9.390852039      1.253      1.679
REMARK  18 active torsions:
REMARK  status: ('A' for Active; 'I' for Inactive)
REMARK    1  A    between atoms: C2_2  and  O2_4 
REMARK    2  A    between atoms: O2_4  and  C3_5 
REMARK    3  A    between atoms: C6_8  and  C7_9 
REMARK       I    between atoms: C7_9  and  N1_11 
REMARK    4  A    between atoms: N1_11  and  C8_13 
REMARK    5  A    between atoms: C8_13  and  C9_14 
REMARK    6  A    between atoms: C9_14  and  C10_15 
REMARK    7  A    between atoms: C10_15  and  O4_16 
REMARK    8  A    between atoms: C10_15  and  N2_18 
REMARK    9  A    between atoms: N2_18  and  N3_20 
REMARK   10  A    between atoms: N3_20  and  C11_21 
REMARK   11  A    between atoms: C11_21  and  O5_22 
REMARK   12  A    between atoms: C11_21  and  C12_24 
REMARK   13  A    between atoms: C12_24  and  C13_25 
REMARK   14  A    between atoms: C15_29  and  N5_30 
REMARK   15  A    between atoms: C16_34  and  O6_35 
REMARK   16  A    between atoms: C21_43  and  N7_44 
REMARK   17  A    between atoms: C22_47  and  O9_48 
REMARK   18  A    between atoms: C23_50  and  N8_51 
ROOT
HETATM    1  C3  UNL     1     112.729  42.344  90.822  1.00  0.00     0.106 A 
HETATM    2  C4  UNL     1     111.456  42.878  90.987  1.00  0.00     0.027 A 
HETATM    3  C5  UNL     1     111.144  43.690  92.040  1.00  0.00     0.036 A 
HETATM    4  C6  UNL     1     109.885  44.238  92.254  1.00  0.00     0.066 A 
HETATM    5  C16 UNL     1     108.882  43.947  91.345  1.00  0.00     0.083 A 
HETATM    6  C17 UNL     1     109.174  43.127  90.270  1.00  0.00     0.067 A 
HETATM    7  C18 UNL     1     110.436  42.597  90.088  1.00  0.00     0.048 A 
HETATM    8  N6  UNL     1     110.700  41.800  89.065  1.00  0.00    -0.355 N 
ATOM      9  H6  UNL     1     109.949  41.595  88.406  1.00  0.00     0.166 HD
HETATM   10  C19 UNL     1     111.911  41.245  88.847  1.00  0.00     0.050 A 
HETATM   11  C20 UNL     1     112.101  40.417  87.775  1.00  0.00     0.069 A 
HETATM   12  C21 UNL     1     113.334  39.802  87.519  1.00  0.00     0.140 A 
HETATM   13  C22 UNL     1     114.347  40.059  88.384  1.00  0.00     0.133 A 
HETATM   14  C23 UNL     1     114.135  40.916  89.483  1.00  0.00     0.153 A 
HETATM   15  C24 UNL     1     112.952  41.526  89.752  1.00  0.00     0.061 A 
ENDROOT
BRANCH   4  16
HETATM   16  C7  UNL     1     109.647  45.086  93.392  1.00  0.00     0.254 C 
HETATM   17  O3  UNL     1     109.830  44.530  94.539  1.00  0.00    -0.268 OA
HETATM   18  N1  UNL     1     109.249  46.419  93.435  1.00  0.00    -0.357 N 
ATOM     19  H1  UNL     1     109.099  46.907  92.552  1.00  0.00     0.162 HD
BRANCH  18  20
HETATM   20  C8  UNL     1     109.036  47.157  94.681  1.00  0.00     0.127 C 
BRANCH  20  21
HETATM   21  C9  UNL     1     107.631  47.137  95.182  1.00  0.00     0.074 C 
BRANCH  21  22
HETATM   22  C10 UNL     1     107.678  46.914  96.698  1.00  0.00     0.231 C 
BRANCH  22  23
HETATM   23  O4  UNL     1     106.417  46.756  97.217  1.00  0.00    -0.376 OA
ATOM     24  H4  UNL     1     105.815  46.418  96.564  1.00  0.00     0.212 HD
ENDBRANCH  22  23
BRANCH  22  25
HETATM   25  N2  UNL     1     108.485  45.825  97.091  1.00  0.00    -0.309 N 
ATOM     26  H2  UNL     1     109.503  45.893  97.071  1.00  0.00     0.178 HD
BRANCH  25  27
HETATM   27  N3  UNL     1     107.866  44.675  97.501  1.00  0.00    -0.111 NA
BRANCH  27  28
HETATM   28  C11 UNL     1     108.860  43.599  97.676  1.00  0.00     0.235 C 
BRANCH  28  29
HETATM   29  O5  UNL     1     110.108  44.137  97.504  1.00  0.00    -0.378 OA
ATOM     30  H5  UNL     1     110.296  44.694  98.250  1.00  0.00     0.211 HD
ENDBRANCH  28  29
BRANCH  28  31
HETATM   31  C12 UNL     1     108.666  42.953  99.026  1.00  0.00     0.098 C 
BRANCH  31  32
HETATM   32  C13 UNL     1     109.118  41.519  98.961  1.00  0.00     0.005 A 
HETATM   33  C14 UNL     1     108.342  40.402  98.815  1.00  0.00     0.105 A 
HETATM   34  N4  UNL     1     108.934  39.245  98.795  1.00  0.00    -0.346 N 
HETATM   35  C15 UNL     1     110.263  39.205  98.918  1.00  0.00     0.142 A 
ATOM     36  H4  UNL     1     108.395  38.386  98.687  1.00  0.00     0.167 HD
HETATM   37  S1  UNL     1     110.686  40.851  99.066  1.00  0.00    -0.058 SA
BRANCH  35  38
HETATM   38  N5  UNL     1     111.025  38.133  98.919  1.00  0.00    -0.380 N 
ATOM     39  H52 UNL     1     111.973  38.000  98.567  1.00  0.00     0.158 HD
ATOM     40  H51 UNL     1     110.787  37.212  99.288  1.00  0.00     0.158 HD
ENDBRANCH  35  38
ENDBRANCH  31  32
ENDBRANCH  28  31
ENDBRANCH  27  28
ENDBRANCH  25  27
ENDBRANCH  22  25
ENDBRANCH  21  22
ENDBRANCH  20  21
ENDBRANCH  18  20
ENDBRANCH   4  16
BRANCH   5  41
HETATM   41  O6  UNL     1     107.599  44.442  91.462  1.00  0.00    -0.360 OA
ATOM     42  H6  UNL     1     106.853  43.895  91.676  1.00  0.00     0.217 HD
ENDBRANCH   5  41
BRANCH   1  43
HETATM   43  O2  UNL     1     113.706  42.658  91.729  1.00  0.00    -0.277 OA
BRANCH  43  44
HETATM   44  C2  UNL     1     114.363  43.917  91.664  1.00  0.00     0.260 C 
HETATM   45  C1  UNL     1     115.206  44.307  92.821  1.00  0.00     0.126 C 
HETATM   46  O1  UNL     1     114.194  44.621  90.645  1.00  0.00    -0.265 OA
ENDBRANCH  43  44
ENDBRANCH   1  43
BRANCH  14  47
HETATM   47  N8  UNL     1     115.257  41.079  90.316  1.00  0.00    -0.112 N 
HETATM   48  O10 UNL     1     116.119  41.921  90.012  1.00  0.00    -0.532 OA
HETATM   49  O11 UNL     1     115.451  40.302  91.421  1.00  0.00    -0.532 OA
ENDBRANCH  14  47
BRANCH  13  50
HETATM   50  O9  UNL     1     115.600  39.493  88.214  1.00  0.00    -0.356 OA
ATOM     51  H9  UNL     1     115.999  38.963  88.894  1.00  0.00     0.218 HD
ENDBRANCH  13  50
BRANCH  12  52
HETATM   52  N7  UNL     1     113.449  38.957  86.374  1.00  0.00    -0.113 N 
HETATM   53  O7  UNL     1     114.275  39.064  85.496  1.00  0.00    -0.532 OA
HETATM   54  O8  UNL     1     112.502  37.943  86.273  1.00  0.00    -0.532 OA
ENDBRANCH  12  52
TORSDOF 18
ENDMDL
MODEL 4
REMARK VINA RESULT: -9.294686086      1.166      1.325
REMARK  18 active torsions:
REMARK  status: ('A' for Active; 'I' for Inactive)
REMARK    1  A    between atoms: C2_2  and  O2_4 
REMARK    2  A    between atoms: O2_4  and  C3_5 
REMARK    3  A    between atoms: C6_8  and  C7_9 
REMARK       I    between atoms: C7_9  and  N1_11 
REMARK    4  A    between atoms: N1_11  and  C8_13 
REMARK    5  A    between atoms: C8_13  and  C9_14 
REMARK    6  A    between atoms: C9_14  and  C10_15 
REMARK    7  A    between atoms: C10_15  and  O4_16 
REMARK    8  A    between atoms: C10_15  and  N2_18 
REMARK    9  A    between atoms: N2_18  and  N3_20 
REMARK   10  A    between atoms: N3_20  and  C11_21 
REMARK   11  A    between atoms: C11_21  and  O5_22 
REMARK   12  A    between atoms: C11_21  and  C12_24 
REMARK   13  A    between atoms: C12_24  and  C13_25 
REMARK   14  A    between atoms: C15_29  and  N5_30 
REMARK   15  A    between atoms: C16_34  and  O6_35 
REMARK   16  A    between atoms: C21_43  and  N7_44 
REMARK   17  A    between atoms: C22_47  and  O9_48 
REMARK   18  A    between atoms: C23_50  and  N8_51 
ROOT
HETATM    1  C3  UNL     1     112.724  42.681  91.320  1.00  0.00     0.106 A 
HETATM    2  C4  UNL     1     111.381  43.039  91.255  1.00  0.00     0.027 A 
HETATM    3  C5  UNL     1     110.848  43.989  92.077  1.00  0.00     0.036 A 
HETATM    4  C6  UNL     1     109.512  44.374  92.058  1.00  0.00     0.066 A 
HETATM    5  C16 UNL     1     108.667  43.758  91.149  1.00  0.00     0.083 A 
HETATM    6  C17 UNL     1     109.186  42.792  90.306  1.00  0.00     0.067 A 
HETATM    7  C18 UNL     1     110.518  42.432  90.353  1.00  0.00     0.048 A 
HETATM    8  N6  UNL     1     111.000  41.495  89.553  1.00  0.00    -0.355 N 
ATOM      9  H6  UNL     1     110.364  41.051  88.892  1.00  0.00     0.166 HD
HETATM   10  C19 UNL     1     112.290  41.097  89.566  1.00  0.00     0.050 A 
HETATM   11  C20 UNL     1     112.709  40.108  88.718  1.00  0.00     0.069 A 
HETATM   12  C21 UNL     1     114.032  39.647  88.709  1.00  0.00     0.140 A 
HETATM   13  C22 UNL     1     114.896  40.222  89.581  1.00  0.00     0.133 A 
HETATM   14  C23 UNL     1     114.449  41.242  90.448  1.00  0.00     0.153 A 
HETATM   15  C24 UNL     1     113.173  41.707  90.475  1.00  0.00     0.061 A 
ENDROOT
BRANCH   4  16
HETATM   16  C7  UNL     1     109.035  45.387  92.961  1.00  0.00     0.254 C 
HETATM   17  O3  UNL     1     108.395  46.359  92.408  1.00  0.00    -0.268 OA
HETATM   18  N1  UNL     1     109.161  45.471  94.344  1.00  0.00    -0.357 N 
ATOM     19  H1  UNL     1     109.652  44.721  94.830  1.00  0.00     0.162 HD
BRANCH  18  20
HETATM   20  C8  UNL     1     108.626  46.579  95.137  1.00  0.00     0.127 C 
BRANCH  20  21
HETATM   21  C9  UNL     1     108.509  46.298  96.597  1.00  0.00     0.074 C 
BRANCH  21  22
HETATM   22  C10 UNL     1     109.289  45.011  96.889  1.00  0.00     0.231 C 
BRANCH  22  23
HETATM   23  O4  UNL     1     110.576  45.287  97.281  1.00  0.00    -0.376 OA
ATOM     24  H4  UNL     1     110.746  44.962  98.158  1.00  0.00     0.212 HD
ENDBRANCH  22  23
BRANCH  22  25
HETATM   25  N2  UNL     1     108.677  44.175  97.847  1.00  0.00    -0.309 N 
ATOM     26  H2  UNL     1     109.015  44.146  98.810  1.00  0.00     0.178 HD
BRANCH  25  27
HETATM   27  N3  UNL     1     107.617  43.404  97.452  1.00  0.00    -0.111 NA
BRANCH  27  28
HETATM   28  C11 UNL     1     107.518  42.203  98.302  1.00  0.00     0.235 C 
BRANCH  28  29
HETATM   29  O5  UNL     1     107.488  41.102  97.486  1.00  0.00    -0.378 OA
ATOM     30  H5  UNL     1     107.455  40.328  98.034  1.00  0.00     0.211 HD
ENDBRANCH  28  29
BRANCH  28  31
HETATM   31  C12 UNL     1     108.663  42.189  99.285  1.00  0.00     0.098 C 
BRANCH  31  32
HETATM   32  C13 UNL     1     109.275  40.814  99.317  1.00  0.00     0.005 A 
HETATM   33  C14 UNL     1     108.786  39.693  99.930  1.00  0.00     0.105 A 
HETATM   34  N4  UNL     1     109.483  38.599  99.847  1.00  0.00    -0.346 N 
HETATM   35  C15 UNL     1     110.634  38.624  99.172  1.00  0.00     0.142 A 
ATOM     36  H4  UNL     1     109.156  37.739 100.289  1.00  0.00     0.167 HD
HETATM   37  S1  UNL     1     110.734  40.241  98.640  1.00  0.00    -0.058 SA
BRANCH  35  38
HETATM   38  N5  UNL     1     111.463  37.619  98.985  1.00  0.00    -0.380 N 
ATOM     39  H52 UNL     1     112.305  37.561  98.413  1.00  0.00     0.158 HD
ATOM     40  H51 UNL     1     111.400  36.689  99.397  1.00  0.00     0.158 HD
ENDBRANCH  35  38
ENDBRANCH  31  32
ENDBRANCH  28  31
ENDBRANCH  27  28
ENDBRANCH  25  27
ENDBRANCH  22  25
ENDBRANCH  21  22
ENDBRANCH  20  21
ENDBRANCH  18  20
ENDBRANCH   4  16
BRANCH   5  41
HETATM   41  O6  UNL     1     107.326  44.067  91.045  1.00  0.00    -0.360 OA
ATOM     42  H6  UNL     1     106.937  44.412  90.250  1.00  0.00     0.217 HD
ENDBRANCH   5  41
BRANCH   1  43
HETATM   43  O2  UNL     1     113.540  43.315  92.219  1.00  0.00    -0.277 OA
BRANCH  43  44
HETATM   44  C2  UNL     1     113.932  44.663  91.999  1.00  0.00     0.260 C 
HETATM   45  C1  UNL     1     113.521  45.666  93.011  1.00  0.00     0.126 C 
HETATM   46  O1  UNL     1     114.597  44.927  90.973  1.00  0.00    -0.265 OA
ENDBRANCH  43  44
ENDBRANCH   1  43
BRANCH  14  47
HETATM   47  N8  UNL     1     115.435  41.736  91.319  1.00  0.00    -0.112 N 
HETATM   48  O10 UNL     1     116.326  42.476  90.868  1.00  0.00    -0.532 OA
HETATM   49  O11 UNL     1     115.471  41.385  92.638  1.00  0.00    -0.532 OA
ENDBRANCH  14  47
BRANCH  13  50
HETATM   50  O9  UNL     1     116.222  39.829  89.647  1.00  0.00    -0.356 OA
ATOM     51  H9  UNL     1     116.722  39.908  90.451  1.00  0.00     0.218 HD
ENDBRANCH  13  50
BRANCH  12  52
HETATM   52  N7  UNL     1     114.387  38.615  87.787  1.00  0.00    -0.113 N 
HETATM   53  O7  UNL     1     115.227  37.763  87.970  1.00  0.00    -0.532 OA
HETATM   54  O8  UNL     1     113.708  38.627  86.573  1.00  0.00    -0.532 OA
ENDBRANCH  12  52
TORSDOF 18
ENDMDL
MODEL 5
REMARK VINA RESULT: -9.276337504      3.540      5.608
REMARK  18 active torsions:
REMARK  status: ('A' for Active; 'I' for Inactive)
REMARK    1  A    between atoms: C2_2  and  O2_4 
REMARK    2  A    between atoms: O2_4  and  C3_5 
REMARK    3  A    between atoms: C6_8  and  C7_9 
REMARK       I    between atoms: C7_9  and  N1_11 
REMARK    4  A    between atoms: N1_11  and  C8_13 
REMARK    5  A    between atoms: C8_13  and  C9_14 
REMARK    6  A    between atoms: C9_14  and  C10_15 
REMARK    7  A    between atoms: C10_15  and  O4_16 
REMARK    8  A    between atoms: C10_15  and  N2_18 
REMARK    9  A    between atoms: N2_18  and  N3_20 
REMARK   10  A    between atoms: N3_20  and  C11_21 
REMARK   11  A    between atoms: C11_21  and  O5_22 
REMARK   12  A    between atoms: C11_21  and  C12_24 
REMARK   13  A    between atoms: C12_24  and  C13_25 
REMARK   14  A    between atoms: C15_29  and  N5_30 
REMARK   15  A    between atoms: C16_34  and  O6_35 
REMARK   16  A    between atoms: C21_43  and  N7_44 
REMARK   17  A    between atoms: C22_47  and  O9_48 
REMARK   18  A    between atoms: C23_50  and  N8_51 
ROOT
HETATM    1  C3  UNL     1     113.042  42.128  90.862  1.00  0.00     0.106 A 
HETATM    2  C4  UNL     1     111.809  42.739  91.068  1.00  0.00     0.027 A 
HETATM    3  C5  UNL     1     111.574  43.545  92.143  1.00  0.00     0.036 A 
HETATM    4  C6  UNL     1     110.358  44.168  92.398  1.00  0.00     0.066 A 
HETATM    5  C16 UNL     1     109.318  43.961  91.507  1.00  0.00     0.083 A 
HETATM    6  C17 UNL     1     109.533  43.148  90.409  1.00  0.00     0.067 A 
HETATM    7  C18 UNL     1     110.754  42.542  90.187  1.00  0.00     0.048 A 
HETATM    8  N6  UNL     1     110.944  41.753  89.142  1.00  0.00    -0.355 N 
ATOM      9  H6  UNL     1     110.167  41.610  88.497  1.00  0.00     0.166 HD
HETATM   10  C19 UNL     1     112.112  41.127  88.885  1.00  0.00     0.050 A 
HETATM   11  C20 UNL     1     112.225  40.312  87.792  1.00  0.00     0.069 A 
HETATM   12  C21 UNL     1     113.410  39.626  87.495  1.00  0.00     0.140 A 
HETATM   13  C22 UNL     1     114.456  39.799  88.340  1.00  0.00     0.133 A 
HETATM   14  C23 UNL     1     114.324  40.644  89.461  1.00  0.00     0.153 A 
HETATM   15  C24 UNL     1     113.188  41.322  89.770  1.00  0.00     0.061 A 
ENDROOT
BRANCH   4  16
HETATM   16  C7  UNL     1     110.199  45.004  93.558  1.00  0.00     0.254 C 
HETATM   17  O3  UNL     1     110.109  46.267  93.318  1.00  0.00    -0.268 OA
HETATM   18  N1  UNL     1     110.125  44.650  94.902  1.00  0.00    -0.357 N 
ATOM     19  H1  UNL     1     110.182  43.660  95.144  1.00  0.00     0.162 HD
BRANCH  18  20
HETATM   20  C8  UNL     1     109.970  45.622  95.985  1.00  0.00     0.127 C 
BRANCH  20  21
HETATM   21  C9  UNL     1     108.859  45.323  96.934  1.00  0.00     0.074 C 
BRANCH  21  22
HETATM   22  C10 UNL     1     107.686  46.248  96.587  1.00  0.00     0.231 C 
BRANCH  22  23
HETATM   23  O4  UNL     1     107.612  47.305  97.460  1.00  0.00    -0.376 OA
ATOM     24  H4  UNL     1     108.286  47.950  97.278  1.00  0.00     0.212 HD
ENDBRANCH  22  23
BRANCH  22  25
HETATM   25  N2  UNL     1     107.715  46.736  95.263  1.00  0.00    -0.309 N 
ATOM     26  H2  UNL     1     107.688  46.097  94.468  1.00  0.00     0.178 HD
BRANCH  25  27
HETATM   27  N3  UNL     1     107.778  48.090  95.073  1.00  0.00    -0.111 NA
BRANCH  27  28
HETATM   28  C11 UNL     1     107.341  48.432  93.706  1.00  0.00     0.235 C 
BRANCH  28  29
HETATM   29  O5  UNL     1     108.459  48.635  92.939  1.00  0.00    -0.378 OA
ATOM     30  H5  UNL     1     108.724  49.542  93.036  1.00  0.00     0.211 HD
ENDBRANCH  28  29
BRANCH  28  31
HETATM   31  C12 UNL     1     106.442  47.340  93.180  1.00  0.00     0.098 C 
BRANCH  31  32
HETATM   32  C13 UNL     1     105.007  47.777  93.299  1.00  0.00     0.005 A 
HETATM   33  C14 UNL     1     104.401  48.383  94.365  1.00  0.00     0.105 A 
HETATM   34  N4  UNL     1     103.137  48.669  94.267  1.00  0.00    -0.346 N 
HETATM   35  C15 UNL     1     102.497  48.358  93.138  1.00  0.00     0.142 A 
ATOM     36  H4  UNL     1     102.645  49.122  95.038  1.00  0.00     0.167 HD
HETATM   37  S1  UNL     1     103.718  47.641  92.188  1.00  0.00    -0.058 SA
BRANCH  35  38
HETATM   38  N5  UNL     1     101.228  48.572  92.864  1.00  0.00    -0.380 N 
ATOM     39  H52 UNL     1     100.790  49.309  92.312  1.00  0.00     0.158 HD
ATOM     40  H51 UNL     1     100.432  48.013  93.171  1.00  0.00     0.158 HD
ENDBRANCH  35  38
ENDBRANCH  31  32
ENDBRANCH  28  31
ENDBRANCH  27  28
ENDBRANCH  25  27
ENDBRANCH  22  25
ENDBRANCH  21  22
ENDBRANCH  20  21
ENDBRANCH  18  20
ENDBRANCH   4  16
BRANCH   5  41
HETATM   41  O6  UNL     1     108.072  44.534  91.664  1.00  0.00    -0.360 OA
ATOM     42  H6  UNL     1     107.461  44.645  90.945  1.00  0.00     0.217 HD
ENDBRANCH   5  41
BRANCH   1  43
HETATM   43  O2  UNL     1     114.057  42.360  91.752  1.00  0.00    -0.277 OA
BRANCH  43  44
HETATM   44  C2  UNL     1     114.740  43.607  91.747  1.00  0.00     0.260 C 
HETATM   45  C1  UNL     1     115.394  44.031  93.008  1.00  0.00     0.126 C 
HETATM   46  O1  UNL     1     114.751  44.272  90.688  1.00  0.00    -0.265 OA
ENDBRANCH  43  44
ENDBRANCH   1  43
BRANCH  14  47
HETATM   47  N8  UNL     1     115.472  40.717  90.270  1.00  0.00    -0.112 N 
HETATM   48  O10 UNL     1     115.536  40.018  91.296  1.00  0.00    -0.532 OA
HETATM   49  O11 UNL     1     116.498  41.572  89.988  1.00  0.00    -0.532 OA
ENDBRANCH  14  47
BRANCH  13  50
HETATM   50  O9  UNL     1     115.666  39.159  88.130  1.00  0.00    -0.356 OA
ATOM     51  H9  UNL     1     116.376  39.226  88.757  1.00  0.00     0.218 HD
ENDBRANCH  13  50
BRANCH  12  52
HETATM   52  N7  UNL     1     113.445  38.800  86.330  1.00  0.00    -0.113 N 
HETATM   53  O7  UNL     1     114.278  38.849  85.454  1.00  0.00    -0.532 OA
HETATM   54  O8  UNL     1     112.407  37.882  86.208  1.00  0.00    -0.532 OA
ENDBRANCH  12  52
TORSDOF 18
ENDMDL
