MODEL 1
REMARK VINA RESULT: -8.721142255      0.000      0.000
REMARK  19 active torsions:
REMARK  status: ('A' for Active; 'I' for Inactive)
REMARK    1  A    between atoms: S1_2  and  C2_3 
REMARK    2  A    between atoms: C2_3  and  C3_8 
REMARK    3  A    between atoms: N1_4  and  O1_6 
REMARK       I    between atoms: C3_8  and  N2_10 
REMARK    4  A    between atoms: N2_10  and  C4_12 
REMARK    5  A    between atoms: C7_15  and  S2_16 
REMARK    6  A    between atoms: S2_16  and  N3_19 
REMARK    7  A    between atoms: N3_19  and  C8_21 
REMARK    8  A    between atoms: C8_21  and  C9_25 
REMARK    9  A    between atoms: C9_25  and  N5_26 
REMARK   10  A    between atoms: C9_25  and  C10_30 
REMARK   11  A    between atoms: C10_30  and  S3_31 
REMARK   12  A    between atoms: S3_31  and  S4_32 
REMARK   13  A    between atoms: S4_32  and  C11_33 
REMARK   14  A    between atoms: C11_33  and  C12_34 
REMARK   15  A    between atoms: C15_42  and  C16_43 
REMARK   16  A    between atoms: C16_43  and  O5_44 
REMARK   17  A    between atoms: C16_43  and  N8_46 
REMARK   18  A    between atoms: N8_46  and  O6_48 
REMARK   19  A    between atoms: C18_53  and  N10_54 
ROOT
HETATM    1  C8  UNL     1     114.286  44.007  92.114  1.00  0.00     0.116 C 
HETATM    2  N4  UNL     1     115.167  44.451  92.933  1.00  0.00    -0.387 N 
ATOM      3  H41 UNL     1     116.097  44.036  92.965  1.00  0.00     0.157 HD
ATOM      4  H42 UNL     1     114.974  45.217  93.577  1.00  0.00     0.157 HD
ENDROOT
BRANCH   1   5
HETATM    5  N3  UNL     1     113.014  44.575  92.069  1.00  0.00    -0.268 N 
ATOM      6  H3  UNL     1     112.241  43.957  91.820  1.00  0.00     0.180 HD
BRANCH   5   7
HETATM    7  S2  UNL     1     112.619  46.218  92.395  1.00  0.00     0.264 S 
HETATM    8  O3  UNL     1     113.256  46.692  93.665  1.00  0.00    -0.200 OA
HETATM    9  O4  UNL     1     113.011  47.062  91.209  1.00  0.00    -0.200 OA
BRANCH   7  10
HETATM   10  C7  UNL     1     110.872  46.339  92.606  1.00  0.00     0.082 A 
HETATM   11  C6  UNL     1     110.143  46.794  91.562  1.00  0.00     0.028 A 
HETATM   12  C5  UNL     1     108.766  46.915  91.641  1.00  0.00     0.034 A 
HETATM   13  C4  UNL     1     108.091  46.572  92.800  1.00  0.00     0.068 A 
HETATM   14  C18 UNL     1     108.874  46.100  93.866  1.00  0.00     0.131 A 
HETATM   15  C17 UNL     1     110.249  45.988  93.764  1.00  0.00     0.063 A 
BRANCH  13  16
HETATM   16  N2  UNL     1     106.689  46.759  92.977  1.00  0.00    -0.319 N 
HETATM   17  C3  UNL     1     106.015  47.912  93.402  1.00  0.00     0.281 C 
HETATM   18  O2  UNL     1     106.693  48.968  93.660  1.00  0.00    -0.265 OA
ATOM     19  H2  UNL     1     106.102  45.952  92.767  1.00  0.00     0.169 HD
BRANCH  17  20
HETATM   20  C2  UNL     1     104.598  48.009  93.575  1.00  0.00     0.158 C 
HETATM   21  N1  UNL     1     104.183  48.419  94.782  1.00  0.00    -0.257 N 
ATOM     22  H1  UNL     1     103.179  48.479  94.955  1.00  0.00     0.195 HD
BRANCH  20  23
HETATM   23  S1  UNL     1     103.274  47.643  92.498  1.00  0.00    -0.109 SA
HETATM   24  C1  UNL     1     101.617  47.818  93.053  1.00  0.00     0.097 C 
ENDBRANCH  20  23
BRANCH  21  25
HETATM   25  O1  UNL     1     105.024  48.757  95.778  1.00  0.00    -0.289 OA
ATOM     26  H1  UNL     1     105.682  48.168  96.126  1.00  0.00     0.244 HD
ENDBRANCH  21  25
ENDBRANCH  17  20
ENDBRANCH  13  16
BRANCH  14  27
HETATM   27  N10 UNL     1     108.315  45.693  95.096  1.00  0.00    -0.113 N 
HETATM   28  O7  UNL     1     108.379  44.538  95.552  1.00  0.00    -0.532 OA
HETATM   29  O8  UNL     1     107.694  46.685  95.873  1.00  0.00    -0.532 OA
ENDBRANCH  14  27
ENDBRANCH   7  10
ENDBRANCH   5   7
ENDBRANCH   1   5
BRANCH   1  30
HETATM   30  C9  UNL     1     114.571  42.878  91.164  1.00  0.00     0.260 C 
BRANCH  30  31
HETATM   31  N5  UNL     1     113.624  41.839  91.477  1.00  0.00    -0.067 N 
ATOM     32  H53 UNL     1     114.032  40.905  91.477  1.00  0.00     0.275 HD
ATOM     33  H52 UNL     1     113.325  41.845  92.453  1.00  0.00     0.275 HD
ATOM     34  H51 UNL     1     112.854  41.945  90.817  1.00  0.00     0.275 HD
ENDBRANCH  30  31
BRANCH  30  35
HETATM   35  C10 UNL     1     115.994  42.409  91.330  1.00  0.00     0.127 C 
BRANCH  35  36
HETATM   36  S3  UNL     1     117.015  42.996  89.991  1.00  0.00    -0.095 SA
BRANCH  36  37
HETATM   37  S4  UNL     1     118.091  41.364  89.160  1.00  0.00    -0.091 SA
BRANCH  37  38
HETATM   38  C11 UNL     1     117.008  39.939  89.105  1.00  0.00     0.143 C 
BRANCH  38  39
HETATM   39  C12 UNL     1     115.991  39.971  88.052  1.00  0.00     0.024 A 
HETATM   40  C13 UNL     1     116.256  39.384  86.855  1.00  0.00     0.073 A 
HETATM   41  C14 UNL     1     115.306  39.405  85.867  1.00  0.00     0.102 A 
HETATM   42  N6  UNL     1     115.527  38.863  84.728  1.00  0.00    -0.385 N 
HETATM   43  N7  UNL     1     114.133  39.997  86.088  1.00  0.00    -0.325 N 
ATOM     44  H62 UNL     1     116.425  38.409  84.559  1.00  0.00     0.157 HD
ATOM     45  H61 UNL     1     114.820  38.878  83.993  1.00  0.00     0.157 HD
HETATM   46  C15 UNL     1     113.855  40.581  87.264  1.00  0.00     0.161 A 
ATOM     47  H7  UNL     1     113.433  40.007  85.347  1.00  0.00     0.169 HD
HETATM   48  N9  UNL     1     114.779  40.569  88.241  1.00  0.00    -0.342 N 
ATOM     49  H9  UNL     1     114.572  41.012  89.137  1.00  0.00     0.167 HD
BRANCH  46  50
HETATM   50  C16 UNL     1     112.580  41.211  87.476  1.00  0.00     0.205 C 
BRANCH  50  51
HETATM   51  O5  UNL     1     112.028  42.015  86.495  1.00  0.00    -0.342 OA
ATOM     52  H5  UNL     1     111.456  41.641  85.835  1.00  0.00     0.219 HD
ENDBRANCH  50  51
BRANCH  50  53
HETATM   53  N8  UNL     1     111.909  41.060  88.555  1.00  0.00    -0.244 N 
ATOM     54  H8  UNL     1     111.151  41.708  88.771  1.00  0.00     0.196 HD
BRANCH  53  55
HETATM   55  O6  UNL     1     112.196  40.040  89.427  1.00  0.00    -0.288 OA
ATOM     56  H6  UNL     1     111.542  39.723  90.039  1.00  0.00     0.244 HD
ENDBRANCH  53  55
ENDBRANCH  50  53
ENDBRANCH  46  50
ENDBRANCH  38  39
ENDBRANCH  37  38
ENDBRANCH  36  37
ENDBRANCH  35  36
ENDBRANCH  30  35
ENDBRANCH   1  30
TORSDOF 19
ENDMDL
MODEL 2
REMARK VINA RESULT: -8.668715230      1.533      2.345
REMARK  19 active torsions:
REMARK  status: ('A' for Active; 'I' for Inactive)
REMARK    1  A    between atoms: S1_2  and  C2_3 
REMARK    2  A    between atoms: C2_3  and  C3_8 
REMARK    3  A    between atoms: N1_4  and  O1_6 
REMARK       I    between atoms: C3_8  and  N2_10 
REMARK    4  A    between atoms: N2_10  and  C4_12 
REMARK    5  A    between atoms: C7_15  and  S2_16 
REMARK    6  A    between atoms: S2_16  and  N3_19 
REMARK    7  A    between atoms: N3_19  and  C8_21 
REMARK    8  A    between atoms: C8_21  and  C9_25 
REMARK    9  A    between atoms: C9_25  and  N5_26 
REMARK   10  A    between atoms: C9_25  and  C10_30 
REMARK   11  A    between atoms: C10_30  and  S3_31 
REMARK   12  A    between atoms: S3_31  and  S4_32 
REMARK   13  A    between atoms: S4_32  and  C11_33 
REMARK   14  A    between atoms: C11_33  and  C12_34 
REMARK   15  A    between atoms: C15_42  and  C16_43 
REMARK   16  A    between atoms: C16_43  and  O5_44 
REMARK   17  A    between atoms: C16_43  and  N8_46 
REMARK   18  A    between atoms: N8_46  and  O6_48 
REMARK   19  A    between atoms: C18_53  and  N10_54 
ROOT
HETATM    1  C8  UNL     1     114.193  43.626  91.815  1.00  0.00     0.116 C 
HETATM    2  N4  UNL     1     114.437  43.472  90.566  1.00  0.00    -0.387 N 
ATOM      3  H41 UNL     1     115.317  43.060  90.259  1.00  0.00     0.157 HD
ATOM      4  H42 UNL     1     113.776  43.755  89.843  1.00  0.00     0.157 HD
ENDROOT
BRANCH   1   5
HETATM    5  N3  UNL     1     112.988  44.190  92.234  1.00  0.00    -0.268 N 
ATOM      6  H3  UNL     1     112.223  43.545  92.435  1.00  0.00     0.180 HD
BRANCH   5   7
HETATM    7  S2  UNL     1     112.667  45.867  92.447  1.00  0.00     0.264 S 
HETATM    8  O3  UNL     1     113.338  46.400  93.675  1.00  0.00    -0.200 OA
HETATM    9  O4  UNL     1     113.080  46.608  91.201  1.00  0.00    -0.200 OA
BRANCH   7  10
HETATM   10  C7  UNL     1     110.929  46.076  92.663  1.00  0.00     0.082 A 
HETATM   11  C6  UNL     1     110.221  46.568  91.621  1.00  0.00     0.028 A 
HETATM   12  C5  UNL     1     108.852  46.759  91.705  1.00  0.00     0.034 A 
HETATM   13  C4  UNL     1     108.164  46.451  92.865  1.00  0.00     0.068 A 
HETATM   14  C18 UNL     1     108.925  45.940  93.929  1.00  0.00     0.131 A 
HETATM   15  C17 UNL     1     110.293  45.758  93.823  1.00  0.00     0.063 A 
BRANCH  13  16
HETATM   16  N2  UNL     1     106.774  46.710  93.047  1.00  0.00    -0.319 N 
HETATM   17  C3  UNL     1     106.160  47.900  93.460  1.00  0.00     0.281 C 
HETATM   18  O2  UNL     1     106.891  48.925  93.701  1.00  0.00    -0.265 OA
ATOM     19  H2  UNL     1     106.146  45.931  92.851  1.00  0.00     0.169 HD
BRANCH  17  20
HETATM   20  C2  UNL     1     104.751  48.069  93.639  1.00  0.00     0.158 C 
HETATM   21  N1  UNL     1     104.356  48.427  94.869  1.00  0.00    -0.257 N 
ATOM     22  H1  UNL     1     103.357  48.535  95.046  1.00  0.00     0.195 HD
BRANCH  20  23
HETATM   23  S1  UNL     1     103.411  47.849  92.541  1.00  0.00    -0.109 SA
HETATM   24  C1  UNL     1     101.804  47.525  93.171  1.00  0.00     0.097 C 
ENDBRANCH  20  23
BRANCH  21  25
HETATM   25  O1  UNL     1     105.212  48.652  95.884  1.00  0.00    -0.289 OA
ATOM     26  H1  UNL     1     104.941  48.706  96.793  1.00  0.00     0.244 HD
ENDBRANCH  21  25
ENDBRANCH  17  20
ENDBRANCH  13  16
BRANCH  14  27
HETATM   27  N10 UNL     1     108.350  45.561  95.161  1.00  0.00    -0.113 N 
HETATM   28  O7  UNL     1     108.346  44.403  95.612  1.00  0.00    -0.532 OA
HETATM   29  O8  UNL     1     107.796  46.586  95.947  1.00  0.00    -0.532 OA
ENDBRANCH  14  27
ENDBRANCH   7  10
ENDBRANCH   5   7
ENDBRANCH   1   5
BRANCH   1  30
HETATM   30  C9  UNL     1     115.167  43.209  92.879  1.00  0.00     0.260 C 
BRANCH  30  31
HETATM   31  N5  UNL     1     115.791  44.417  93.352  1.00  0.00    -0.067 N 
ATOM     32  H53 UNL     1     116.756  44.284  93.655  1.00  0.00     0.275 HD
ATOM     33  H52 UNL     1     115.984  45.090  92.610  1.00  0.00     0.275 HD
ATOM     34  H51 UNL     1     115.184  44.785  94.084  1.00  0.00     0.275 HD
ENDBRANCH  30  31
BRANCH  30  35
HETATM   35  C10 UNL     1     116.174  42.243  92.309  1.00  0.00     0.127 C 
BRANCH  35  36
HETATM   36  S3  UNL     1     116.257  40.758  93.294  1.00  0.00    -0.095 SA
BRANCH  36  37
HETATM   37  S4  UNL     1     116.050  39.064  92.029  1.00  0.00    -0.091 SA
BRANCH  37  38
HETATM   38  C11 UNL     1     116.017  39.625  90.329  1.00  0.00     0.143 C 
BRANCH  38  39
HETATM   39  C12 UNL     1     114.689  39.949  89.805  1.00  0.00     0.024 A 
HETATM   40  C13 UNL     1     113.606  39.818  90.615  1.00  0.00     0.073 A 
HETATM   41  C14 UNL     1     112.360  40.127  90.133  1.00  0.00     0.102 A 
HETATM   42  N6  UNL     1     111.320  40.011  90.871  1.00  0.00    -0.385 N 
HETATM   43  N7  UNL     1     112.222  40.551  88.878  1.00  0.00    -0.325 N 
ATOM     44  H62 UNL     1     111.426  39.687  91.832  1.00  0.00     0.157 HD
ATOM     45  H61 UNL     1     110.393  40.240  90.512  1.00  0.00     0.157 HD
HETATM   46  C15 UNL     1     113.281  40.686  88.064  1.00  0.00     0.161 A 
ATOM     47  H7  UNL     1     111.291  40.778  88.528  1.00  0.00     0.169 HD
HETATM   48  N9  UNL     1     114.509  40.386  88.525  1.00  0.00    -0.342 N 
ATOM     49  H9  UNL     1     115.316  40.486  87.910  1.00  0.00     0.167 HD
BRANCH  46  50
HETATM   50  C16 UNL     1     113.103  41.148  86.715  1.00  0.00     0.205 C 
BRANCH  50  51
HETATM   51  O5  UNL     1     112.060  42.001  86.402  1.00  0.00    -0.342 OA
ATOM     52  H5  UNL     1     112.237  42.879  86.085  1.00  0.00     0.219 HD
ENDBRANCH  50  51
BRANCH  50  53
HETATM   53  N8  UNL     1     113.883  40.803  85.761  1.00  0.00    -0.244 N 
ATOM     54  H8  UNL     1     114.265  41.517  85.140  1.00  0.00     0.196 HD
BRANCH  53  55
HETATM   55  O6  UNL     1     114.214  39.486  85.561  1.00  0.00    -0.288 OA
ATOM     56  H6  UNL     1     115.010  39.122  85.931  1.00  0.00     0.244 HD
ENDBRANCH  53  55
ENDBRANCH  50  53
ENDBRANCH  46  50
ENDBRANCH  38  39
ENDBRANCH  37  38
ENDBRANCH  36  37
ENDBRANCH  35  36
ENDBRANCH  30  35
ENDBRANCH   1  30
TORSDOF 19
ENDMDL
MODEL 3
REMARK VINA RESULT: -8.488188937      2.088      2.565
REMARK  19 active torsions:
REMARK  status: ('A' for Active; 'I' for Inactive)
REMARK    1  A    between atoms: S1_2  and  C2_3 
REMARK    2  A    between atoms: C2_3  and  C3_8 
REMARK    3  A    between atoms: N1_4  and  O1_6 
REMARK       I    between atoms: C3_8  and  N2_10 
REMARK    4  A    between atoms: N2_10  and  C4_12 
REMARK    5  A    between atoms: C7_15  and  S2_16 
REMARK    6  A    between atoms: S2_16  and  N3_19 
REMARK    7  A    between atoms: N3_19  and  C8_21 
REMARK    8  A    between atoms: C8_21  and  C9_25 
REMARK    9  A    between atoms: C9_25  and  N5_26 
REMARK   10  A    between atoms: C9_25  and  C10_30 
REMARK   11  A    between atoms: C10_30  and  S3_31 
REMARK   12  A    between atoms: S3_31  and  S4_32 
REMARK   13  A    between atoms: S4_32  and  C11_33 
REMARK   14  A    between atoms: C11_33  and  C12_34 
REMARK   15  A    between atoms: C15_42  and  C16_43 
REMARK   16  A    between atoms: C16_43  and  O5_44 
REMARK   17  A    between atoms: C16_43  and  N8_46 
REMARK   18  A    between atoms: N8_46  and  O6_48 
REMARK   19  A    between atoms: C18_53  and  N10_54 
ROOT
HETATM    1  C8  UNL     1     113.632  44.126  91.986  1.00  0.00     0.116 C 
HETATM    2  N4  UNL     1     114.686  44.690  91.525  1.00  0.00    -0.387 N 
ATOM      3  H41 UNL     1     115.510  44.136  91.296  1.00  0.00     0.157 HD
ATOM      4  H42 UNL     1     114.743  45.698  91.378  1.00  0.00     0.157 HD
ENDROOT
BRANCH   1   5
HETATM    5  N3  UNL     1     112.504  44.884  92.299  1.00  0.00    -0.268 N 
ATOM      6  H3  UNL     1     111.620  44.381  92.387  1.00  0.00     0.180 HD
BRANCH   5   7
HETATM    7  S2  UNL     1     112.457  46.586  92.551  1.00  0.00     0.264 S 
HETATM    8  O3  UNL     1     113.348  46.994  93.683  1.00  0.00    -0.200 OA
HETATM    9  O4  UNL     1     112.812  47.283  91.262  1.00  0.00    -0.200 OA
BRANCH   7  10
HETATM   10  C7  UNL     1     110.810  47.038  92.988  1.00  0.00     0.082 A 
HETATM   11  C6  UNL     1     110.161  47.906  92.180  1.00  0.00     0.028 A 
HETATM   12  C5  UNL     1     108.864  48.310  92.447  1.00  0.00     0.034 A 
HETATM   13  C4  UNL     1     108.189  47.834  93.557  1.00  0.00     0.068 A 
HETATM   14  C18 UNL     1     108.887  46.932  94.377  1.00  0.00     0.131 A 
HETATM   15  C17 UNL     1     110.183  46.543  94.091  1.00  0.00     0.063 A 
BRANCH  13  16
HETATM   16  N2  UNL     1     106.889  48.280  93.938  1.00  0.00    -0.319 N 
HETATM   17  C3  UNL     1     105.664  48.014  93.313  1.00  0.00     0.281 C 
HETATM   18  O2  UNL     1     105.646  47.263  92.275  1.00  0.00    -0.265 OA
ATOM     19  H2  UNL     1     106.846  48.867  94.770  1.00  0.00     0.169 HD
BRANCH  17  20
HETATM   20  C2  UNL     1     104.400  48.523  93.751  1.00  0.00     0.158 C 
HETATM   21  N1  UNL     1     104.290  48.762  95.066  1.00  0.00    -0.257 N 
ATOM     22  H1  UNL     1     103.398  49.102  95.423  1.00  0.00     0.195 HD
BRANCH  20  23
HETATM   23  S1  UNL     1     102.923  48.856  92.882  1.00  0.00    -0.109 SA
HETATM   24  C1  UNL     1     101.588  47.717  92.950  1.00  0.00     0.097 C 
ENDBRANCH  20  23
BRANCH  21  25
HETATM   25  O1  UNL     1     105.299  48.577  95.938  1.00  0.00    -0.289 OA
ATOM     26  H1  UNL     1     105.500  47.736  96.331  1.00  0.00     0.244 HD
ENDBRANCH  21  25
ENDBRANCH  17  20
ENDBRANCH  13  16
BRANCH  14  27
HETATM   27  N10 UNL     1     108.312  46.350  95.527  1.00  0.00    -0.113 N 
HETATM   28  O7  UNL     1     108.277  45.129  95.758  1.00  0.00    -0.532 OA
HETATM   29  O8  UNL     1     107.798  47.229  96.495  1.00  0.00    -0.532 OA
ENDBRANCH  14  27
ENDBRANCH   7  10
ENDBRANCH   5   7
ENDBRANCH   1   5
BRANCH   1  30
HETATM   30  C9  UNL     1     113.546  42.642  92.203  1.00  0.00     0.260 C 
BRANCH  30  31
HETATM   31  N5  UNL     1     114.761  42.262  92.876  1.00  0.00    -0.067 N 
ATOM     32  H53 UNL     1     115.296  41.551  92.377  1.00  0.00     0.275 HD
ATOM     33  H52 UNL     1     115.476  42.989  92.863  1.00  0.00     0.275 HD
ATOM     34  H51 UNL     1     114.490  41.977  93.817  1.00  0.00     0.275 HD
ENDBRANCH  30  31
BRANCH  30  35
HETATM   35  C10 UNL     1     113.393  41.934  90.880  1.00  0.00     0.127 C 
BRANCH  35  36
HETATM   36  S3  UNL     1     111.670  41.706  90.479  1.00  0.00    -0.095 SA
BRANCH  36  37
HETATM   37  S4  UNL     1     111.460  41.500  88.376  1.00  0.00    -0.091 SA
BRANCH  37  38
HETATM   38  C11 UNL     1     112.192  39.942  87.882  1.00  0.00     0.143 C 
BRANCH  38  39
HETATM   39  C12 UNL     1     113.570  40.029  87.395  1.00  0.00     0.024 A 
HETATM   40  C13 UNL     1     113.918  39.364  86.262  1.00  0.00     0.073 A 
HETATM   41  C14 UNL     1     115.206  39.447  85.798  1.00  0.00     0.102 A 
HETATM   42  N6  UNL     1     115.564  38.830  84.735  1.00  0.00    -0.385 N 
HETATM   43  N7  UNL     1     116.103  40.176  86.459  1.00  0.00    -0.325 N 
ATOM     44  H62 UNL     1     114.877  38.271  84.229  1.00  0.00     0.157 HD
ATOM     45  H61 UNL     1     116.521  38.891  84.390  1.00  0.00     0.157 HD
HETATM   46  C15 UNL     1     115.776  40.840  87.580  1.00  0.00     0.161 A 
ATOM     47  H7  UNL     1     117.058  40.232  86.106  1.00  0.00     0.169 HD
HETATM   48  N9  UNL     1     114.516  40.766  88.046  1.00  0.00    -0.342 N 
ATOM     49  H9  UNL     1     114.265  41.268  88.898  1.00  0.00     0.167 HD
BRANCH  46  50
HETATM   50  C16 UNL     1     116.764  41.622  88.272  1.00  0.00     0.205 C 
BRANCH  50  51
HETATM   51  O5  UNL     1     118.110  41.345  88.112  1.00  0.00    -0.342 OA
ATOM     52  H5  UNL     1     118.691  41.994  87.731  1.00  0.00     0.219 HD
ENDBRANCH  50  51
BRANCH  50  53
HETATM   53  N8  UNL     1     116.454  42.590  89.049  1.00  0.00    -0.244 N 
ATOM     54  H8  UNL     1     116.926  42.684  89.949  1.00  0.00     0.196 HD
BRANCH  53  55
HETATM   55  O6  UNL     1     115.495  43.504  88.690  1.00  0.00    -0.288 OA
ATOM     56  H6  UNL     1     115.518  44.392  89.025  1.00  0.00     0.244 HD
ENDBRANCH  53  55
ENDBRANCH  50  53
ENDBRANCH  46  50
ENDBRANCH  38  39
ENDBRANCH  37  38
ENDBRANCH  36  37
ENDBRANCH  35  36
ENDBRANCH  30  35
ENDBRANCH   1  30
TORSDOF 19
ENDMDL
MODEL 4
REMARK VINA RESULT: -8.462665054      3.030      4.320
REMARK  19 active torsions:
REMARK  status: ('A' for Active; 'I' for Inactive)
REMARK    1  A    between atoms: S1_2  and  C2_3 
REMARK    2  A    between atoms: C2_3  and  C3_8 
REMARK    3  A    between atoms: N1_4  and  O1_6 
REMARK       I    between atoms: C3_8  and  N2_10 
REMARK    4  A    between atoms: N2_10  and  C4_12 
REMARK    5  A    between atoms: C7_15  and  S2_16 
REMARK    6  A    between atoms: S2_16  and  N3_19 
REMARK    7  A    between atoms: N3_19  and  C8_21 
REMARK    8  A    between atoms: C8_21  and  C9_25 
REMARK    9  A    between atoms: C9_25  and  N5_26 
REMARK   10  A    between atoms: C9_25  and  C10_30 
REMARK   11  A    between atoms: C10_30  and  S3_31 
REMARK   12  A    between atoms: S3_31  and  S4_32 
REMARK   13  A    between atoms: S4_32  and  C11_33 
REMARK   14  A    between atoms: C11_33  and  C12_34 
REMARK   15  A    between atoms: C15_42  and  C16_43 
REMARK   16  A    between atoms: C16_43  and  O5_44 
REMARK   17  A    between atoms: C16_43  and  N8_46 
REMARK   18  A    between atoms: N8_46  and  O6_48 
REMARK   19  A    between atoms: C18_53  and  N10_54 
ROOT
HETATM    1  C8  UNL     1     115.947  39.789  92.792  1.00  0.00     0.116 C 
HETATM    2  N4  UNL     1     115.195  38.947  92.186  1.00  0.00    -0.387 N 
ATOM      3  H41 UNL     1     115.489  37.977  92.077  1.00  0.00     0.157 HD
ATOM      4  H42 UNL     1     114.293  39.209  91.791  1.00  0.00     0.157 HD
ENDROOT
BRANCH   1   5
HETATM    5  N3  UNL     1     115.545  41.116  92.941  1.00  0.00    -0.268 N 
ATOM      6  H3  UNL     1     115.196  41.392  93.859  1.00  0.00     0.180 HD
BRANCH   5   7
HETATM    7  S2  UNL     1     115.579  42.334  91.726  1.00  0.00     0.264 S 
HETATM    8  O3  UNL     1     116.787  43.209  91.864  1.00  0.00    -0.200 OA
HETATM    9  O4  UNL     1     115.498  41.679  90.371  1.00  0.00    -0.200 OA
BRANCH   7  10
HETATM   10  C7  UNL     1     114.159  43.361  91.928  1.00  0.00     0.082 A 
HETATM   11  C6  UNL     1     114.353  44.616  92.392  1.00  0.00     0.028 A 
HETATM   12  C5  UNL     1     113.294  45.489  92.576  1.00  0.00     0.034 A 
HETATM   13  C4  UNL     1     111.997  45.100  92.288  1.00  0.00     0.068 A 
HETATM   14  C18 UNL     1     111.828  43.792  91.806  1.00  0.00     0.131 A 
HETATM   15  C17 UNL     1     112.901  42.936  91.631  1.00  0.00     0.063 A 
BRANCH  13  16
HETATM   16  N2  UNL     1     110.857  45.917  92.542  1.00  0.00    -0.319 N 
HETATM   17  C3  UNL     1     110.478  46.528  93.744  1.00  0.00     0.281 C 
HETATM   18  O2  UNL     1     111.224  46.385  94.776  1.00  0.00    -0.265 OA
ATOM     19  H2  UNL     1     110.239  46.077  91.747  1.00  0.00     0.169 HD
BRANCH  17  20
HETATM   20  C2  UNL     1     109.299  47.319  93.919  1.00  0.00     0.158 C 
HETATM   21  N1  UNL     1     109.169  48.366  93.091  1.00  0.00    -0.257 N 
ATOM     22  H1  UNL     1     108.355  48.971  93.198  1.00  0.00     0.195 HD
BRANCH  20  23
HETATM   23  S1  UNL     1     107.986  47.202  95.063  1.00  0.00    -0.109 SA
HETATM   24  C1  UNL     1     108.263  46.496  96.648  1.00  0.00     0.097 C 
ENDBRANCH  20  23
BRANCH  21  25
HETATM   25  O1  UNL     1     110.061  48.659  92.125  1.00  0.00    -0.289 OA
ATOM     26  H1  UNL     1     110.528  49.485  92.081  1.00  0.00     0.244 HD
ENDBRANCH  21  25
ENDBRANCH  17  20
ENDBRANCH  13  16
BRANCH  14  27
HETATM   27  N10 UNL     1     110.565  43.272  91.450  1.00  0.00    -0.113 N 
HETATM   28  O7  UNL     1     109.477  43.798  91.742  1.00  0.00    -0.532 OA
HETATM   29  O8  UNL     1     110.554  42.107  90.664  1.00  0.00    -0.532 OA
ENDBRANCH  14  27
ENDBRANCH   7  10
ENDBRANCH   5   7
ENDBRANCH   1   5
BRANCH   1  30
HETATM   30  C9  UNL     1     117.277  39.403  93.375  1.00  0.00     0.260 C 
BRANCH  30  31
HETATM   31  N5  UNL     1     118.135  40.549  93.216  1.00  0.00    -0.067 N 
ATOM     32  H53 UNL     1     119.115  40.352  93.418  1.00  0.00     0.275 HD
ATOM     33  H52 UNL     1     118.262  40.828  92.243  1.00  0.00     0.275 HD
ATOM     34  H51 UNL     1     117.741  41.285  93.801  1.00  0.00     0.275 HD
ENDBRANCH  30  31
BRANCH  30  35
HETATM   35  C10 UNL     1     117.821  38.190  92.662  1.00  0.00     0.127 C 
BRANCH  35  36
HETATM   36  S3  UNL     1     119.122  38.651  91.532  1.00  0.00    -0.095 SA
BRANCH  36  37
HETATM   37  S4  UNL     1     118.262  39.375  89.729  1.00  0.00    -0.091 SA
BRANCH  37  38
HETATM   38  C11 UNL     1     117.075  38.169  89.143  1.00  0.00     0.143 C 
BRANCH  38  39
HETATM   39  C12 UNL     1     116.019  38.704  88.281  1.00  0.00     0.024 A 
HETATM   40  C13 UNL     1     116.182  38.674  86.932  1.00  0.00     0.073 A 
HETATM   41  C14 UNL     1     115.194  39.167  86.120  1.00  0.00     0.102 A 
HETATM   42  N6  UNL     1     115.321  39.155  84.846  1.00  0.00    -0.385 N 
HETATM   43  N7  UNL     1     114.084  39.669  86.658  1.00  0.00    -0.325 N 
ATOM     44  H62 UNL     1     116.171  38.770  84.434  1.00  0.00     0.157 HD
ATOM     45  H61 UNL     1     114.585  39.521  84.242  1.00  0.00     0.157 HD
HETATM   46  C15 UNL     1     113.905  39.706  87.988  1.00  0.00     0.161 A 
ATOM     47  H7  UNL     1     113.354  40.033  86.045  1.00  0.00     0.169 HD
HETATM   48  N9  UNL     1     114.868  39.226  88.796  1.00  0.00    -0.342 N 
ATOM     49  H9  UNL     1     114.737  39.253  89.808  1.00  0.00     0.167 HD
BRANCH  46  50
HETATM   50  C16 UNL     1     112.696  40.251  88.541  1.00  0.00     0.205 C 
BRANCH  50  51
HETATM   51  O5  UNL     1     112.198  41.456  88.077  1.00  0.00    -0.342 OA
ATOM     52  H5  UNL     1     111.894  42.117  88.689  1.00  0.00     0.219 HD
ENDBRANCH  50  51
BRANCH  50  53
HETATM   53  N8  UNL     1     112.035  39.663  89.466  1.00  0.00    -0.244 N 
ATOM     54  H8  UNL     1     111.173  39.169  89.233  1.00  0.00     0.196 HD
BRANCH  53  55
HETATM   55  O6  UNL     1     112.470  39.686  90.767  1.00  0.00    -0.288 OA
ATOM     56  H6  UNL     1     113.389  39.563  90.977  1.00  0.00     0.244 HD
ENDBRANCH  53  55
ENDBRANCH  50  53
ENDBRANCH  46  50
ENDBRANCH  38  39
ENDBRANCH  37  38
ENDBRANCH  36  37
ENDBRANCH  35  36
ENDBRANCH  30  35
ENDBRANCH   1  30
TORSDOF 19
ENDMDL
MODEL 5
REMARK VINA RESULT: -8.441434460      3.196     11.336
REMARK  19 active torsions:
REMARK  status: ('A' for Active; 'I' for Inactive)
REMARK    1  A    between atoms: S1_2  and  C2_3 
REMARK    2  A    between atoms: C2_3  and  C3_8 
REMARK    3  A    between atoms: N1_4  and  O1_6 
REMARK       I    between atoms: C3_8  and  N2_10 
REMARK    4  A    between atoms: N2_10  and  C4_12 
REMARK    5  A    between atoms: C7_15  and  S2_16 
REMARK    6  A    between atoms: S2_16  and  N3_19 
REMARK    7  A    between atoms: N3_19  and  C8_21 
REMARK    8  A    between atoms: C8_21  and  C9_25 
REMARK    9  A    between atoms: C9_25  and  N5_26 
REMARK   10  A    between atoms: C9_25  and  C10_30 
REMARK   11  A    between atoms: C10_30  and  S3_31 
REMARK   12  A    between atoms: S3_31  and  S4_32 
REMARK   13  A    between atoms: S4_32  and  C11_33 
REMARK   14  A    between atoms: C11_33  and  C12_34 
REMARK   15  A    between atoms: C15_42  and  C16_43 
REMARK   16  A    between atoms: C16_43  and  O5_44 
REMARK   17  A    between atoms: C16_43  and  N8_46 
REMARK   18  A    between atoms: N8_46  and  O6_48 
REMARK   19  A    between atoms: C18_53  and  N10_54 
ROOT
HETATM    1  C8  UNL     1     109.685  45.691  92.494  1.00  0.00     0.116 C 
HETATM    2  N4  UNL     1     110.146  46.409  91.538  1.00  0.00    -0.387 N 
ATOM      3  H41 UNL     1     110.650  47.273  91.737  1.00  0.00     0.157 HD
ATOM      4  H42 UNL     1     110.025  46.154  90.558  1.00  0.00     0.157 HD
ENDROOT
BRANCH   1   5
HETATM    5  N3  UNL     1     108.997  44.510  92.220  1.00  0.00    -0.268 N 
ATOM      6  H3  UNL     1     108.584  44.022  93.016  1.00  0.00     0.180 HD
BRANCH   5   7
HETATM    7  S2  UNL     1     108.776  43.793  90.671  1.00  0.00     0.264 S 
HETATM    8  O3  UNL     1     107.636  42.821  90.677  1.00  0.00    -0.200 OA
HETATM    9  O4  UNL     1     108.591  44.884  89.648  1.00  0.00    -0.200 OA
BRANCH   7  10
HETATM   10  C7  UNL     1     110.235  42.892  90.262  1.00  0.00     0.082 A 
HETATM   11  C6  UNL     1     111.138  42.679  91.245  1.00  0.00     0.028 A 
HETATM   12  C5  UNL     1     112.308  41.977  91.011  1.00  0.00     0.034 A 
HETATM   13  C4  UNL     1     112.590  41.470  89.754  1.00  0.00     0.068 A 
HETATM   14  C18 UNL     1     111.633  41.705  88.754  1.00  0.00     0.131 A 
HETATM   15  C17 UNL     1     110.471  42.411  89.011  1.00  0.00     0.063 A 
BRANCH  13  16
HETATM   16  N2  UNL     1     113.816  40.820  89.426  1.00  0.00    -0.319 N 
HETATM   17  C3  UNL     1     114.929  41.353  88.762  1.00  0.00     0.281 C 
HETATM   18  O2  UNL     1     114.906  42.581  88.398  1.00  0.00    -0.265 OA
ATOM     19  H2  UNL     1     113.893  39.844  89.710  1.00  0.00     0.169 HD
BRANCH  17  20
HETATM   20  C2  UNL     1     116.118  40.621  88.451  1.00  0.00     0.158 C 
HETATM   21  N1  UNL     1     116.929  40.355  89.486  1.00  0.00    -0.257 N 
ATOM     22  H1  UNL     1     117.799  39.856  89.304  1.00  0.00     0.195 HD
BRANCH  20  23
HETATM   23  S1  UNL     1     116.751  40.032  86.935  1.00  0.00    -0.109 SA
HETATM   24  C1  UNL     1     115.663  39.358  85.732  1.00  0.00     0.097 C 
ENDBRANCH  20  23
BRANCH  21  25
HETATM   25  O1  UNL     1     116.650  40.714  90.754  1.00  0.00    -0.289 OA
ATOM     26  H1  UNL     1     116.025  40.253  91.300  1.00  0.00     0.244 HD
ENDBRANCH  21  25
ENDBRANCH  17  20
ENDBRANCH  13  16
BRANCH  14  27
HETATM   27  N10 UNL     1     111.780  41.226  87.435  1.00  0.00    -0.113 N 
HETATM   28  O7  UNL     1     111.970  41.946  86.439  1.00  0.00    -0.532 OA
HETATM   29  O8  UNL     1     111.765  39.832  87.258  1.00  0.00    -0.532 OA
ENDBRANCH  14  27
ENDBRANCH   7  10
ENDBRANCH   5   7
ENDBRANCH   1   5
BRANCH   1  30
HETATM   30  C9  UNL     1     109.864  46.066  93.937  1.00  0.00     0.260 C 
BRANCH  30  31
HETATM   31  N5  UNL     1     111.248  46.433  94.090  1.00  0.00    -0.067 N 
ATOM     32  H53 UNL     1     111.679  46.051  94.932  1.00  0.00     0.275 HD
ATOM     33  H52 UNL     1     111.864  45.979  93.416  1.00  0.00     0.275 HD
ATOM     34  H51 UNL     1     111.281  47.452  94.046  1.00  0.00     0.275 HD
ENDBRANCH  30  31
BRANCH  30  35
HETATM   35  C10 UNL     1     109.490  44.905  94.824  1.00  0.00     0.127 C 
BRANCH  35  36
HETATM   36  S3  UNL     1     108.418  45.437  96.146  1.00  0.00    -0.095 SA
BRANCH  36  37
HETATM   37  S4  UNL     1     108.021  47.513  95.935  1.00  0.00    -0.091 SA
BRANCH  37  38
HETATM   38  C11 UNL     1     106.246  47.749  95.883  1.00  0.00     0.143 C 
BRANCH  38  39
HETATM   39  C12 UNL     1     105.642  47.639  94.555  1.00  0.00     0.024 A 
HETATM   40  C13 UNL     1     106.417  47.270  93.501  1.00  0.00     0.073 A 
HETATM   41  C14 UNL     1     105.856  47.159  92.255  1.00  0.00     0.102 A 
HETATM   42  N6  UNL     1     106.561  46.816  91.243  1.00  0.00    -0.385 N 
HETATM   43  N7  UNL     1     104.559  47.411  92.087  1.00  0.00    -0.325 N 
ATOM     44  H62 UNL     1     107.554  46.623  91.371  1.00  0.00     0.157 HD
ATOM     45  H61 UNL     1     106.144  46.733  90.316  1.00  0.00     0.157 HD
HETATM   46  C15 UNL     1     103.778  47.777  93.117  1.00  0.00     0.161 A 
ATOM     47  H7  UNL     1     104.151  47.326  91.157  1.00  0.00     0.169 HD
HETATM   48  N9  UNL     1     104.317  47.890  94.345  1.00  0.00    -0.342 N 
ATOM     49  H9  UNL     1     103.728  48.168  95.130  1.00  0.00     0.167 HD
BRANCH  46  50
HETATM   50  C16 UNL     1     102.381  48.040  92.909  1.00  0.00     0.205 C 
BRANCH  50  51
HETATM   51  O5  UNL     1     101.948  49.326  92.637  1.00  0.00    -0.342 OA
ATOM     52  H5  UNL     1     102.474  49.905  92.098  1.00  0.00     0.219 HD
ENDBRANCH  50  51
BRANCH  50  53
HETATM   53  N8  UNL     1     101.492  47.122  92.961  1.00  0.00    -0.244 N 
ATOM     54  H8  UNL     1     101.537  46.419  93.699  1.00  0.00     0.196 HD
BRANCH  53  55
HETATM   55  O6  UNL     1     100.479  47.068  92.037  1.00  0.00    -0.288 OA
ATOM     56  H6  UNL     1     100.276  46.258  91.582  1.00  0.00     0.244 HD
ENDBRANCH  53  55
ENDBRANCH  50  53
ENDBRANCH  46  50
ENDBRANCH  38  39
ENDBRANCH  37  38
ENDBRANCH  36  37
ENDBRANCH  35  36
ENDBRANCH  30  35
ENDBRANCH   1  30
TORSDOF 19
ENDMDL
