MODEL 1
REMARK VINA RESULT: -7.170818021      0.000      0.000
REMARK  5 active torsions:
REMARK  status: ('A' for Active; 'I' for Inactive)
REMARK       I    between atoms: C1_2  and  N1_3 
REMARK    1  A    between atoms: C1_2  and  C7_18 
REMARK    2  A    between atoms: N1_3  and  C2_5 
REMARK    3  A    between atoms: C2_5  and  N2_7 
REMARK    4  A    between atoms: N2_7  and  C3_9 
REMARK    5  A    between atoms: C5_15  and  C6_16 
ROOT
HETATM    1  C2  UNL     1      34.853  -1.572 -77.884  1.00  0.00     0.180 C 
HETATM    2  S1  UNL     1      35.476  -1.241 -76.425  1.00  0.00    -0.040 SA
ENDROOT
BRANCH   1   3
HETATM    3  N1  UNL     1      35.293  -2.672 -78.657  1.00  0.00    -0.303 N 
HETATM    4  C1  UNL     1      34.621  -3.919 -78.519  1.00  0.00     0.228 C 
HETATM    5  O1  UNL     1      33.652  -4.072 -77.733  1.00  0.00    -0.273 OA
ATOM      6  H1  UNL     1      36.077  -2.573 -79.301  1.00  0.00     0.171 HD
BRANCH   4   7
HETATM    7  C7  UNL     1      35.096  -5.054 -79.334  1.00  0.00     0.078 C 
HETATM    8  C8  UNL     1      36.443  -5.483 -78.788  1.00  0.00     0.014 C 
HETATM    9  C9  UNL     1      36.914  -6.709 -79.506  1.00  0.00     0.001 C 
HETATM   10  C10 UNL     1      35.987  -7.846 -79.212  1.00  0.00     0.000 C 
HETATM   11  C11 UNL     1      34.674  -7.425 -78.651  1.00  0.00     0.001 C 
HETATM   12  C12 UNL     1      34.126  -6.211 -79.361  1.00  0.00     0.014 C 
ENDBRANCH   4   7
ENDBRANCH   1   3
BRANCH   1  13
HETATM   13  N2  UNL     1      33.833  -0.740 -78.419  1.00  0.00    -0.318 N 
ATOM     14  H2  UNL     1      34.066  -0.106 -79.182  1.00  0.00     0.170 HD
BRANCH  13  15
HETATM   15  C3  UNL     1      32.621  -0.756 -77.975  1.00  0.00     0.131 A 
HETATM   16  N3  UNL     1      31.876  -1.785 -77.597  1.00  0.00    -0.285 N 
HETATM   17  N4  UNL     1      30.699  -1.338 -77.216  1.00  0.00    -0.310 N 
ATOM     18  H3  UNL     1      32.168  -2.763 -77.600  1.00  0.00     0.188 HD
HETATM   19  C4  UNL     1      30.645  -0.001 -77.334  1.00  0.00     0.119 A 
ATOM     20  H4  UNL     1      29.935  -1.924 -76.877  1.00  0.00     0.186 HD
HETATM   21  C5  UNL     1      31.871   0.384 -77.821  1.00  0.00     0.018 A 
BRANCH  21  22
HETATM   22  C6  UNL     1      32.298   1.770 -78.121  1.00  0.00     0.158 C 
HETATM   23 CL1  UNL     1      32.175   2.109 -79.858  1.00  0.00    -0.125 Cl
ENDBRANCH  21  22
ENDBRANCH  13  15
ENDBRANCH   1  13
TORSDOF 5
ENDMDL
MODEL 2
REMARK VINA RESULT: -6.921396262      2.382      3.198
REMARK  5 active torsions:
REMARK  status: ('A' for Active; 'I' for Inactive)
REMARK       I    between atoms: C1_2  and  N1_3 
REMARK    1  A    between atoms: C1_2  and  C7_18 
REMARK    2  A    between atoms: N1_3  and  C2_5 
REMARK    3  A    between atoms: C2_5  and  N2_7 
REMARK    4  A    between atoms: N2_7  and  C3_9 
REMARK    5  A    between atoms: C5_15  and  C6_16 
ROOT
HETATM    1  C2  UNL     1      32.786   0.096 -77.778  1.00  0.00     0.180 C 
HETATM    2  S1  UNL     1      33.178   1.042 -79.035  1.00  0.00    -0.040 SA
ENDROOT
BRANCH   1   3
HETATM    3  N1  UNL     1      33.386  -1.170 -77.575  1.00  0.00    -0.303 N 
HETATM    4  C1  UNL     1      32.619  -2.341 -77.829  1.00  0.00     0.228 C 
HETATM    5  O1  UNL     1      31.427  -2.285 -78.226  1.00  0.00    -0.273 OA
ATOM      6  H1  UNL     1      34.351  -1.241 -77.252  1.00  0.00     0.171 HD
BRANCH   4   7
HETATM    7  C7  UNL     1      33.263  -3.650 -77.610  1.00  0.00     0.078 C 
HETATM    8  C8  UNL     1      32.493  -4.683 -78.409  1.00  0.00     0.014 C 
HETATM    9  C9  UNL     1      33.179  -6.010 -78.316  1.00  0.00     0.001 C 
HETATM   10  C10 UNL     1      34.522  -5.925 -78.970  1.00  0.00     0.000 C 
HETATM   11  C11 UNL     1      35.004  -4.532 -79.178  1.00  0.00     0.001 C 
HETATM   12  C12 UNL     1      34.728  -3.658 -77.979  1.00  0.00     0.014 C 
ENDBRANCH   4   7
ENDBRANCH   1   3
BRANCH   1  13
HETATM   13  N2  UNL     1      31.812   0.536 -76.842  1.00  0.00    -0.318 N 
ATOM     14  H2  UNL     1      32.081   0.634 -75.863  1.00  0.00     0.170 HD
BRANCH  13  15
HETATM   15  C3  UNL     1      30.600   0.817 -77.183  1.00  0.00     0.131 A 
HETATM   16  N3  UNL     1      29.663   0.028 -77.690  1.00  0.00    -0.285 N 
HETATM   17  N4  UNL     1      28.573   0.738 -77.889  1.00  0.00    -0.310 N 
ATOM     18  H3  UNL     1      29.769  -0.966 -77.892  1.00  0.00     0.188 HD
HETATM   19  C4  UNL     1      28.771   2.013 -77.515  1.00  0.00     0.119 A 
ATOM     20  H4  UNL     1      27.702   0.372 -78.272  1.00  0.00     0.186 HD
HETATM   21  C5  UNL     1      30.067   2.077 -77.062  1.00  0.00     0.018 A 
BRANCH  21  22
HETATM   22  C6  UNL     1      30.754   3.280 -76.539  1.00  0.00     0.158 C 
HETATM   23 CL1  UNL     1      30.783   3.272 -74.765  1.00  0.00    -0.125 Cl
ENDBRANCH  21  22
ENDBRANCH  13  15
ENDBRANCH   1  13
TORSDOF 5
ENDMDL
MODEL 3
REMARK VINA RESULT: -6.789825421      1.313      1.313
REMARK  5 active torsions:
REMARK  status: ('A' for Active; 'I' for Inactive)
REMARK       I    between atoms: C1_2  and  N1_3 
REMARK    1  A    between atoms: C1_2  and  C7_18 
REMARK    2  A    between atoms: N1_3  and  C2_5 
REMARK    3  A    between atoms: C2_5  and  N2_7 
REMARK    4  A    between atoms: N2_7  and  C3_9 
REMARK    5  A    between atoms: C5_15  and  C6_16 
ROOT
HETATM    1  C2  UNL     1      34.347  -2.173 -77.753  1.00  0.00     0.180 C 
HETATM    2  S1  UNL     1      35.238  -1.713 -76.480  1.00  0.00    -0.040 SA
ENDROOT
BRANCH   1   3
HETATM    3  N1  UNL     1      34.403  -3.487 -78.275  1.00  0.00    -0.303 N 
HETATM    4  C1  UNL     1      35.446  -3.821 -79.183  1.00  0.00     0.228 C 
HETATM    5  O1  UNL     1      36.316  -2.986 -79.536  1.00  0.00    -0.273 OA
ATOM      6  H1  UNL     1      33.707  -4.183 -78.004  1.00  0.00     0.171 HD
BRANCH   4   7
HETATM    7  C7  UNL     1      35.485  -5.197 -79.714  1.00  0.00     0.078 C 
HETATM    8  C8  UNL     1      36.741  -5.861 -79.184  1.00  0.00     0.014 C 
HETATM    9  C9  UNL     1      36.766  -7.299 -79.598  1.00  0.00     0.001 C 
HETATM   10  C10 UNL     1      35.630  -8.026 -78.951  1.00  0.00     0.000 C 
HETATM   11  C11 UNL     1      34.568  -7.130 -78.415  1.00  0.00     0.001 C 
HETATM   12  C12 UNL     1      34.255  -6.002 -79.367  1.00  0.00     0.014 C 
ENDBRANCH   4   7
ENDBRANCH   1   3
BRANCH   1  13
HETATM   13  N2  UNL     1      33.477  -1.239 -78.378  1.00  0.00    -0.318 N 
ATOM     14  H2  UNL     1      33.791  -0.765 -79.224  1.00  0.00     0.170 HD
BRANCH  13  15
HETATM   15  C3  UNL     1      32.304  -0.966 -77.914  1.00  0.00     0.131 A 
HETATM   16  N3  UNL     1      31.300  -1.784 -77.628  1.00  0.00    -0.285 N 
HETATM   17  N4  UNL     1      30.289  -1.072 -77.180  1.00  0.00    -0.310 N 
ATOM     18  H3  UNL     1      31.310  -2.798 -77.738  1.00  0.00     0.188 HD
HETATM   19  C4  UNL     1      30.607   0.233 -77.160  1.00  0.00     0.119 A 
ATOM     20  H4  UNL     1      29.390  -1.457 -76.889  1.00  0.00     0.186 HD
HETATM   21  C5  UNL     1      31.896   0.313 -77.629  1.00  0.00     0.018 A 
BRANCH  21  22
HETATM   22  C6  UNL     1      32.692   1.551 -77.793  1.00  0.00     0.158 C 
HETATM   23 CL1  UNL     1      33.815   1.766 -76.436  1.00  0.00    -0.125 Cl
ENDBRANCH  21  22
ENDBRANCH  13  15
ENDBRANCH   1  13
TORSDOF 5
ENDMDL
MODEL 4
REMARK VINA RESULT: -6.789480963      1.362      1.936
REMARK  5 active torsions:
REMARK  status: ('A' for Active; 'I' for Inactive)
REMARK       I    between atoms: C1_2  and  N1_3 
REMARK    1  A    between atoms: C1_2  and  C7_18 
REMARK    2  A    between atoms: N1_3  and  C2_5 
REMARK    3  A    between atoms: C2_5  and  N2_7 
REMARK    4  A    between atoms: N2_7  and  C3_9 
REMARK    5  A    between atoms: C5_15  and  C6_16 
ROOT
HETATM    1  C2  UNL     1      34.913  -1.593 -77.358  1.00  0.00     0.180 C 
HETATM    2  S1  UNL     1      35.888  -0.998 -76.208  1.00  0.00    -0.040 SA
ENDROOT
BRANCH   1   3
HETATM    3  N1  UNL     1      35.303  -2.669 -78.191  1.00  0.00    -0.303 N 
HETATM    4  C1  UNL     1      34.470  -3.820 -78.261  1.00  0.00     0.228 C 
HETATM    5  O1  UNL     1      33.401  -3.911 -77.605  1.00  0.00    -0.273 OA
ATOM      6  H1  UNL     1      36.167  -2.619 -78.732  1.00  0.00     0.171 HD
BRANCH   4   7
HETATM    7  C7  UNL     1      34.896  -4.929 -79.135  1.00  0.00     0.078 C 
HETATM    8  C8  UNL     1      36.270  -5.377 -78.677  1.00  0.00     0.014 C 
HETATM    9  C9  UNL     1      36.696  -6.581 -79.457  1.00  0.00     0.001 C 
HETATM   10  C10 UNL     1      35.783  -7.726 -79.149  1.00  0.00     0.000 C 
HETATM   11  C11 UNL     1      34.504  -7.320 -78.504  1.00  0.00     0.001 C 
HETATM   12  C12 UNL     1      33.922  -6.084 -79.145  1.00  0.00     0.014 C 
ENDBRANCH   4   7
ENDBRANCH   1   3
BRANCH   1  13
HETATM   13  N2  UNL     1      33.623  -1.029 -77.549  1.00  0.00    -0.318 N 
ATOM     14  H2  UNL     1      32.822  -1.473 -77.100  1.00  0.00     0.170 HD
BRANCH  13  15
HETATM   15  C3  UNL     1      33.426   0.023 -78.269  1.00  0.00     0.131 A 
HETATM   16  N3  UNL     1      34.203   0.568 -79.194  1.00  0.00    -0.285 N 
HETATM   17  N4  UNL     1      33.605   1.637 -79.673  1.00  0.00    -0.310 N 
ATOM     18  H3  UNL     1      35.115   0.217 -79.487  1.00  0.00     0.188 HD
HETATM   19  C4  UNL     1      32.417   1.818 -79.073  1.00  0.00     0.119 A 
ATOM     20  H4  UNL     1      33.989   2.244 -80.399  1.00  0.00     0.186 HD
HETATM   21  C5  UNL     1      32.291   0.790 -78.170  1.00  0.00     0.018 A 
BRANCH  21  22
HETATM   22  C6  UNL     1      31.144   0.556 -77.263  1.00  0.00     0.158 C 
HETATM   23 CL1  UNL     1      30.251  -0.902 -77.735  1.00  0.00    -0.125 Cl
ENDBRANCH  21  22
ENDBRANCH  13  15
ENDBRANCH   1  13
TORSDOF 5
ENDMDL
MODEL 5
REMARK VINA RESULT: -6.653798400      3.971      5.336
REMARK  5 active torsions:
REMARK  status: ('A' for Active; 'I' for Inactive)
REMARK       I    between atoms: C1_2  and  N1_3 
REMARK    1  A    between atoms: C1_2  and  C7_18 
REMARK    2  A    between atoms: N1_3  and  C2_5 
REMARK    3  A    between atoms: C2_5  and  N2_7 
REMARK    4  A    between atoms: N2_7  and  C3_9 
REMARK    5  A    between atoms: C5_15  and  C6_16 
ROOT
HETATM    1  C2  UNL     1      35.449   0.326 -76.502  1.00  0.00     0.180 C 
HETATM    2  S1  UNL     1      34.407   1.521 -76.837  1.00  0.00    -0.040 SA
ENDROOT
BRANCH   1   3
HETATM    3  N1  UNL     1      35.037  -1.024 -76.399  1.00  0.00    -0.303 N 
HETATM    4  C1  UNL     1      35.145  -1.863 -77.543  1.00  0.00     0.228 C 
HETATM    5  O1  UNL     1      35.594  -1.442 -78.640  1.00  0.00    -0.273 OA
ATOM      6  H1  UNL     1      34.668  -1.388 -75.521  1.00  0.00     0.171 HD
BRANCH   4   7
HETATM    7  C7  UNL     1      34.709  -3.267 -77.414  1.00  0.00     0.078 C 
HETATM    8  C8  UNL     1      33.292  -3.361 -77.943  1.00  0.00     0.014 C 
HETATM    9  C9  UNL     1      32.846  -4.789 -77.945  1.00  0.00     0.001 C 
HETATM   10  C10 UNL     1      33.681  -5.572 -78.909  1.00  0.00     0.000 C 
HETATM   11  C11 UNL     1      34.944  -4.890 -79.305  1.00  0.00     0.001 C 
HETATM   12  C12 UNL     1      35.622  -4.238 -78.126  1.00  0.00     0.014 C 
ENDBRANCH   4   7
ENDBRANCH   1   3
BRANCH   1  13
HETATM   13  N2  UNL     1      36.824   0.626 -76.302  1.00  0.00    -0.318 N 
ATOM     14  H2  UNL     1      37.213   0.541 -75.363  1.00  0.00     0.170 HD
BRANCH  13  15
HETATM   15  C3  UNL     1      37.598   1.002 -77.263  1.00  0.00     0.131 A 
HETATM   16  N3  UNL     1      37.405   0.942 -78.573  1.00  0.00    -0.285 N 
HETATM   17  N4  UNL     1      38.463   1.437 -79.179  1.00  0.00    -0.310 N 
ATOM     18  H3  UNL     1      36.574   0.573 -79.035  1.00  0.00     0.188 HD
HETATM   19  C4  UNL     1      39.376   1.835 -78.278  1.00  0.00     0.119 A 
ATOM     20  H4  UNL     1      38.573   1.509 -80.191  1.00  0.00     0.186 HD
HETATM   21  C5  UNL     1      38.834   1.560 -77.046  1.00  0.00     0.018 A 
BRANCH  21  22
HETATM   22  C6  UNL     1      39.467   1.822 -75.733  1.00  0.00     0.158 C 
HETATM   23 CL1  UNL     1      40.050   0.314 -75.000  1.00  0.00    -0.125 Cl
ENDBRANCH  21  22
ENDBRANCH  13  15
ENDBRANCH   1  13
TORSDOF 5
ENDMDL
