MODEL 1
REMARK VINA RESULT: -7.454856300      0.000      0.000
REMARK  3 active torsions:
REMARK  status: ('A' for Active; 'I' for Inactive)
REMARK    1  A    between atoms: C8_13  and  N3_14 
REMARK    2  A    between atoms: N3_14  and  C9_16 
REMARK    3  A    between atoms: C9_16  and  C10_17 
ROOT
HETATM    1 CL1  UNL     1      29.735   2.286 -77.832  1.00  0.00    -0.124 Cl
HETATM    2  C1  UNL     1      30.972   1.129 -78.439  1.00  0.00     0.092 C 
HETATM    3  C2  UNL     1      31.823   1.784 -79.460  1.00  0.00     0.021 C 
HETATM    4  C3  UNL     1      33.288   1.519 -79.345  1.00  0.00     0.006 C 
HETATM    5  C4  UNL     1      33.826   1.550 -77.952  1.00  0.00    -0.009 C 
HETATM    6  C5  UNL     1      34.625   0.286 -77.704  1.00  0.00     0.049 C 
HETATM    7  C6  UNL     1      33.677  -0.856 -77.832  1.00  0.00     0.012 A 
HETATM    8  C7  UNL     1      32.324  -0.696 -77.617  1.00  0.00     0.041 A 
HETATM    9  N1  UNL     1      31.732  -1.889 -77.805  1.00  0.00    -0.302 N 
ATOM     10  H1  UNL     1      30.734  -2.079 -77.715  1.00  0.00     0.186 HD
HETATM   11  N2  UNL     1      32.662  -2.779 -78.126  1.00  0.00    -0.285 N 
ATOM     12  H2  UNL     1      32.488  -3.764 -78.323  1.00  0.00     0.188 HD
HETATM   13  C8  UNL     1      33.876  -2.185 -78.154  1.00  0.00     0.124 A 
HETATM   14  C15 UNL     1      31.705   0.602 -77.246  1.00  0.00     0.056 C 
HETATM   15  C16 UNL     1      32.764   1.624 -76.890  1.00  0.00     0.017 C 
ENDROOT
BRANCH  13  16
HETATM   16  N3  UNL     1      35.030  -2.701 -78.423  1.00  0.00    -0.374 N 
ATOM     17  H3  UNL     1      35.775  -2.148 -78.846  1.00  0.00     0.161 HD
BRANCH  16  18
HETATM   18  C9  UNL     1      35.219  -4.098 -78.098  1.00  0.00     0.126 C 
BRANCH  18  19
HETATM   19  C10 UNL     1      35.430  -4.950 -79.322  1.00  0.00     0.006 C 
HETATM   20  C11 UNL     1      36.670  -5.783 -79.139  1.00  0.00     0.034 C 
HETATM   21  C12 UNL     1      36.369  -7.219 -79.487  1.00  0.00     0.232 C 
HETATM   22  N4  UNL     1      35.361  -7.790 -78.620  1.00  0.00    -0.075 N 
HETATM   23  C13 UNL     1      34.177  -6.971 -78.526  1.00  0.00     0.232 C 
ATOM     24  H42 UNL     1      35.127  -8.741 -78.908  1.00  0.00     0.277 HD
ATOM     25  H41 UNL     1      35.744  -7.988 -77.695  1.00  0.00     0.277 HD
HETATM   26  C14 UNL     1      34.205  -5.813 -79.497  1.00  0.00     0.034 C 
ENDBRANCH  18  19
ENDBRANCH  16  18
ENDBRANCH  13  16
TORSDOF 3
ENDMDL
MODEL 2
REMARK VINA RESULT: -6.915385483      1.449      2.316
REMARK  3 active torsions:
REMARK  status: ('A' for Active; 'I' for Inactive)
REMARK    1  A    between atoms: C8_13  and  N3_14 
REMARK    2  A    between atoms: N3_14  and  C9_16 
REMARK    3  A    between atoms: C9_16  and  C10_17 
ROOT
HETATM    1 CL1  UNL     1      32.787   4.269 -78.752  1.00  0.00    -0.124 Cl
HETATM    2  C1  UNL     1      33.114   2.668 -77.998  1.00  0.00     0.092 C 
HETATM    3  C2  UNL     1      32.301   2.510 -76.769  1.00  0.00     0.021 C 
HETATM    4  C3  UNL     1      31.649   1.179 -76.595  1.00  0.00     0.006 C 
HETATM    5  C4  UNL     1      31.045   0.606 -77.836  1.00  0.00    -0.009 C 
HETATM    6  C5  UNL     1      31.544  -0.814 -78.016  1.00  0.00     0.049 C 
HETATM    7  C6  UNL     1      33.021  -0.734 -78.188  1.00  0.00     0.012 A 
HETATM    8  C7  UNL     1      33.630   0.407 -78.669  1.00  0.00     0.041 A 
HETATM    9  N1  UNL     1      34.956   0.181 -78.712  1.00  0.00    -0.302 N 
ATOM     10  H1  UNL     1      35.662   0.846 -79.025  1.00  0.00     0.186 HD
HETATM   11  N2  UNL     1      35.190  -1.051 -78.278  1.00  0.00    -0.285 N 
ATOM     12  H2  UNL     1      36.113  -1.481 -78.207  1.00  0.00     0.188 HD
HETATM   13  C8  UNL     1      34.026  -1.651 -77.945  1.00  0.00     0.124 A 
HETATM   14  C15 UNL     1      32.881   1.631 -79.051  1.00  0.00     0.056 C 
HETATM   15  C16 UNL     1      31.391   1.365 -79.087  1.00  0.00     0.017 C 
ENDROOT
BRANCH  13  16
HETATM   16  N3  UNL     1      33.826  -2.842 -77.485  1.00  0.00    -0.374 N 
ATOM     17  H3  UNL     1      32.934  -3.108 -77.067  1.00  0.00     0.161 HD
BRANCH  16  18
HETATM   18  C9  UNL     1      34.921  -3.781 -77.587  1.00  0.00     0.126 C 
BRANCH  18  19
HETATM   19  C10 UNL     1      34.879  -4.577 -78.866  1.00  0.00     0.006 C 
HETATM   20  C11 UNL     1      35.835  -5.735 -78.760  1.00  0.00     0.034 C 
HETATM   21  C12 UNL     1      35.141  -7.003 -79.189  1.00  0.00     0.232 C 
HETATM   22  N4  UNL     1      34.016  -7.323 -78.337  1.00  0.00    -0.075 N 
HETATM   23  C13 UNL     1      33.110  -6.212 -78.168  1.00  0.00     0.232 C 
ATOM     24  H42 UNL     1      33.522  -8.149 -78.678  1.00  0.00     0.277 HD
ATOM     25  H41 UNL     1      34.330  -7.680 -77.435  1.00  0.00     0.277 HD
HETATM   26  C14 UNL     1      33.459  -5.048 -79.066  1.00  0.00     0.034 C 
ENDBRANCH  18  19
ENDBRANCH  16  18
ENDBRANCH  13  16
TORSDOF 3
ENDMDL
MODEL 3
REMARK VINA RESULT: -6.874880779      1.792      2.601
REMARK  3 active torsions:
REMARK  status: ('A' for Active; 'I' for Inactive)
REMARK    1  A    between atoms: C8_13  and  N3_14 
REMARK    2  A    between atoms: N3_14  and  C9_16 
REMARK    3  A    between atoms: C9_16  and  C10_17 
ROOT
HETATM    1 CL1  UNL     1      34.566   4.149 -75.385  1.00  0.00    -0.124 Cl
HETATM    2  C1  UNL     1      34.167   2.436 -75.766  1.00  0.00     0.092 C 
HETATM    3  C2  UNL     1      32.713   2.298 -76.017  1.00  0.00     0.021 C 
HETATM    4  C3  UNL     1      32.339   1.449 -77.187  1.00  0.00     0.006 C 
HETATM    5  C4  UNL     1      33.180   1.650 -78.405  1.00  0.00    -0.009 C 
HETATM    6  C5  UNL     1      33.670   0.301 -78.894  1.00  0.00     0.049 C 
HETATM    7  C6  UNL     1      34.517  -0.270 -77.809  1.00  0.00     0.012 A 
HETATM    8  C7  UNL     1      35.152   0.540 -76.890  1.00  0.00     0.041 A 
HETATM    9  N1  UNL     1      35.834  -0.253 -76.044  1.00  0.00    -0.302 N 
ATOM     10  H1  UNL     1      36.400   0.065 -75.257  1.00  0.00     0.186 HD
HETATM   11  N2  UNL     1      35.647  -1.517 -76.402  1.00  0.00    -0.285 N 
ATOM     12  H2  UNL     1      36.051  -2.325 -75.930  1.00  0.00     0.188 HD
HETATM   13  C8  UNL     1      34.842  -1.573 -77.486  1.00  0.00     0.124 A 
HETATM   14  C15 UNL     1      35.050   2.021 -76.900  1.00  0.00     0.056 C 
HETATM   15  C16 UNL     1      34.392   2.509 -78.174  1.00  0.00     0.017 C 
ENDROOT
BRANCH  13  16
HETATM   16  N3  UNL     1      34.422  -2.608 -78.136  1.00  0.00    -0.374 N 
ATOM     17  H3  UNL     1      33.653  -2.542 -78.804  1.00  0.00     0.161 HD
BRANCH  16  18
HETATM   18  C9  UNL     1      35.089  -3.865 -77.878  1.00  0.00     0.126 C 
BRANCH  18  19
HETATM   19  C10 UNL     1      35.303  -4.672 -79.132  1.00  0.00     0.006 C 
HETATM   20  C11 UNL     1      36.497  -5.570 -78.946  1.00  0.00     0.034 C 
HETATM   21  C12 UNL     1      36.142  -6.973 -79.369  1.00  0.00     0.232 C 
HETATM   22  N4  UNL     1      35.079  -7.534 -78.563  1.00  0.00    -0.075 N 
HETATM   23  C13 UNL     1      33.931  -6.664 -78.471  1.00  0.00     0.232 C 
ATOM     24  H42 UNL     1      34.811  -8.458 -78.902  1.00  0.00     0.277 HD
ATOM     25  H41 UNL     1      35.419  -7.790 -77.636  1.00  0.00     0.277 HD
HETATM   26  C14 UNL     1      34.046  -5.467 -79.387  1.00  0.00     0.034 C 
ENDBRANCH  18  19
ENDBRANCH  16  18
ENDBRANCH  13  16
TORSDOF 3
ENDMDL
MODEL 4
REMARK VINA RESULT: -6.808699976      1.579      2.549
REMARK  3 active torsions:
REMARK  status: ('A' for Active; 'I' for Inactive)
REMARK    1  A    between atoms: C8_13  and  N3_14 
REMARK    2  A    between atoms: N3_14  and  C9_16 
REMARK    3  A    between atoms: C9_16  and  C10_17 
ROOT
HETATM    1 CL1  UNL     1      31.654   4.857 -77.748  1.00  0.00    -0.124 Cl
HETATM    2  C1  UNL     1      31.458   3.146 -78.269  1.00  0.00     0.092 C 
HETATM    3  C2  UNL     1      32.158   2.924 -79.556  1.00  0.00     0.021 C 
HETATM    4  C3  UNL     1      32.952   1.663 -79.648  1.00  0.00     0.006 C 
HETATM    5  C4  UNL     1      33.743   1.326 -78.425  1.00  0.00    -0.009 C 
HETATM    6  C5  UNL     1      33.448  -0.106 -78.026  1.00  0.00     0.049 C 
HETATM    7  C6  UNL     1      31.996  -0.171 -77.697  1.00  0.00     0.012 A 
HETATM    8  C7  UNL     1      31.300   0.946 -77.286  1.00  0.00     0.041 A 
HETATM    9  N1  UNL     1      30.024   0.580 -77.066  1.00  0.00    -0.302 N 
ATOM     10  H1  UNL     1      29.274   1.196 -76.753  1.00  0.00     0.186 HD
HETATM   11  N2  UNL     1      29.904  -0.716 -77.324  1.00  0.00    -0.285 N 
ATOM     12  H2  UNL     1      29.041  -1.253 -77.239  1.00  0.00     0.188 HD
HETATM   13  C8  UNL     1      31.096  -1.219 -77.716  1.00  0.00     0.124 A 
HETATM   14  C15 UNL     1      31.923   2.286 -77.136  1.00  0.00     0.056 C 
HETATM   15  C16 UNL     1      33.431   2.196 -77.240  1.00  0.00     0.017 C 
ENDROOT
BRANCH  13  16
HETATM   16  N3  UNL     1      31.397  -2.429 -78.055  1.00  0.00    -0.374 N 
ATOM     17  H3  UNL     1      30.687  -3.160 -78.105  1.00  0.00     0.161 HD
BRANCH  16  18
HETATM   18  C9  UNL     1      32.784  -2.703 -78.358  1.00  0.00     0.126 C 
BRANCH  18  19
HETATM   19  C10 UNL     1      33.300  -3.924 -77.641  1.00  0.00     0.006 C 
HETATM   20  C11 UNL     1      32.713  -5.156 -78.277  1.00  0.00     0.034 C 
HETATM   21  C12 UNL     1      33.811  -6.154 -78.550  1.00  0.00     0.232 C 
HETATM   22  N4  UNL     1      34.793  -5.642 -79.482  1.00  0.00    -0.075 N 
HETATM   23  C13 UNL     1      35.292  -4.340 -79.107  1.00  0.00     0.232 C 
ATOM     24  H42 UNL     1      35.558  -6.305 -79.608  1.00  0.00     0.277 HD
ATOM     25  H41 UNL     1      34.424  -5.632 -80.433  1.00  0.00     0.277 HD
HETATM   26  C14 UNL     1      34.805  -3.913 -77.741  1.00  0.00     0.034 C 
ENDBRANCH  18  19
ENDBRANCH  16  18
ENDBRANCH  13  16
TORSDOF 3
ENDMDL
MODEL 5
REMARK VINA RESULT: -6.775609192      1.696      2.529
REMARK  3 active torsions:
REMARK  status: ('A' for Active; 'I' for Inactive)
REMARK    1  A    between atoms: C8_13  and  N3_14 
REMARK    2  A    between atoms: N3_14  and  C9_16 
REMARK    3  A    between atoms: C9_16  and  C10_17 
ROOT
HETATM    1 CL1  UNL     1      29.284   4.454 -76.856  1.00  0.00    -0.124 Cl
HETATM    2  C1  UNL     1      30.031   3.005 -77.617  1.00  0.00     0.092 C 
HETATM    3  C2  UNL     1      31.041   3.422 -78.618  1.00  0.00     0.021 C 
HETATM    4  C3  UNL     1      32.323   2.657 -78.597  1.00  0.00     0.006 C 
HETATM    5  C4  UNL     1      32.860   2.366 -77.233  1.00  0.00    -0.009 C 
HETATM    6  C5  UNL     1      33.172   0.886 -77.132  1.00  0.00     0.049 C 
HETATM    7  C6  UNL     1      31.884   0.160 -77.312  1.00  0.00     0.012 A 
HETATM    8  C7  UNL     1      30.675   0.756 -77.019  1.00  0.00     0.041 A 
HETATM    9  N1  UNL     1      29.701  -0.136 -77.279  1.00  0.00    -0.302 N 
ATOM     10  H1  UNL     1      28.701   0.024 -77.158  1.00  0.00     0.186 HD
HETATM   11  N2  UNL     1      30.259  -1.256 -77.719  1.00  0.00    -0.285 N 
ATOM     12  H2  UNL     1      29.749  -2.097 -77.990  1.00  0.00     0.188 HD
HETATM   13  C8  UNL     1      31.603  -1.118 -77.755  1.00  0.00     0.124 A 
HETATM   14  C15 UNL     1      30.553   2.146 -76.509  1.00  0.00     0.056 C 
HETATM   15  C16 UNL     1      31.907   2.700 -76.120  1.00  0.00     0.017 C 
ENDROOT
BRANCH  13  16
HETATM   16  N3  UNL     1      32.500  -1.973 -78.121  1.00  0.00    -0.374 N 
ATOM     17  H3  UNL     1      33.483  -1.711 -78.201  1.00  0.00     0.161 HD
BRANCH  16  18
HETATM   18  C9  UNL     1      32.051  -3.316 -78.412  1.00  0.00     0.126 C 
BRANCH  18  19
HETATM   19  C10 UNL     1      32.863  -4.363 -77.693  1.00  0.00     0.006 C 
HETATM   20  C11 UNL     1      32.738  -5.674 -78.422  1.00  0.00     0.034 C 
HETATM   21  C12 UNL     1      34.108  -6.269 -78.628  1.00  0.00     0.232 C 
HETATM   22  N4  UNL     1      34.952  -5.425 -79.446  1.00  0.00    -0.075 N 
HETATM   23  C13 UNL     1      34.993  -4.059 -78.982  1.00  0.00     0.232 C 
ATOM     24  H42 UNL     1      35.893  -5.813 -79.523  1.00  0.00     0.277 HD
ATOM     25  H41 UNL     1      34.674  -5.470 -80.426  1.00  0.00     0.277 HD
HETATM   26  C14 UNL     1      34.294  -3.886 -77.653  1.00  0.00     0.034 C 
ENDBRANCH  18  19
ENDBRANCH  16  18
ENDBRANCH  13  16
TORSDOF 3
ENDMDL
