MODEL 1
REMARK VINA RESULT: -5.832887813      0.000      0.000
REMARK  4 active torsions:
REMARK  status: ('A' for Active; 'I' for Inactive)
REMARK    1  A    between atoms: C8_9  and  N1_10 
REMARK    2  A    between atoms: N1_10  and  C9_12 
REMARK    3  A    between atoms: C9_12  and  N2_14 
REMARK    4  A    between atoms: N2_14  and  C10_16 
ROOT
HETATM    1  N1  UNL     1      43.528   2.787 -76.410  1.00  0.00    -0.358 N 
ATOM      2  H1  UNL     1      44.301   2.513 -75.805  1.00  0.00     0.162 HD
ENDROOT
BRANCH   1   3
HETATM    3  C8  UNL     1      42.224   2.578 -75.859  1.00  0.00     0.036 C 
HETATM    4  C7  UNL     1      41.301   3.707 -76.161  1.00  0.00     0.035 C 
HETATM    5  C5  UNL     1      39.925   3.442 -75.571  1.00  0.00    -0.009 C 
HETATM    6  C4  UNL     1      39.393   2.181 -76.188  1.00  0.00     0.009 C 
HETATM    7  C6  UNL     1      40.062   3.345 -74.086  1.00  0.00     0.048 C 
HETATM    8  C3  UNL     1      40.267   1.035 -75.769  1.00  0.00    -0.009 C 
HETATM    9  C2  UNL     1      40.398   0.908 -74.269  1.00  0.00     0.048 C 
HETATM   10  C14 UNL     1      41.658   1.273 -76.324  1.00  0.00     0.035 C 
HETATM   11  C1  UNL     1      40.993   2.191 -73.749  1.00  0.00     0.106 C 
HETATM   12  F1  UNL     1      41.067   2.152 -72.357  1.00  0.00    -0.243 F 
HETATM   13  C15 UNL     1      42.339   2.490 -74.320  1.00  0.00     0.074 C 
ENDBRANCH   1   3
BRANCH   1  14
HETATM   14  C9  UNL     1      43.905   3.309 -77.651  1.00  0.00     0.168 C 
HETATM   15  S1  UNL     1      44.484   4.823 -77.784  1.00  0.00    -0.041 SA
BRANCH  14  16
HETATM   16  N2  UNL     1      43.773   2.481 -78.825  1.00  0.00    -0.361 N 
ATOM     17  H2  UNL     1      44.381   1.669 -78.945  1.00  0.00     0.162 HD
BRANCH  16  18
HETATM   18  C10 UNL     1      42.800   2.791 -79.816  1.00  0.00     0.111 C 
HETATM   19  C11 UNL     1      41.561   1.925 -79.707  1.00  0.00     0.054 C 
HETATM   20  C12 UNL     1      40.934   2.209 -81.062  1.00  0.00     0.234 C 
HETATM   21  N3  UNL     1      42.071   1.968 -81.935  1.00  0.00    -0.073 N 
HETATM   22  C13 UNL     1      43.243   2.428 -81.228  1.00  0.00     0.257 C 
ATOM     23  H32 UNL     1      42.143   0.999 -82.244  1.00  0.00     0.277 HD
ATOM     24  H31 UNL     1      41.966   2.390 -82.858  1.00  0.00     0.277 HD
ENDBRANCH  16  18
ENDBRANCH  14  16
ENDBRANCH   1  14
TORSDOF 4
ENDMDL
MODEL 2
REMARK VINA RESULT: -5.788704656      8.321      9.629
REMARK  4 active torsions:
REMARK  status: ('A' for Active; 'I' for Inactive)
REMARK    1  A    between atoms: C8_9  and  N1_10 
REMARK    2  A    between atoms: N1_10  and  C9_12 
REMARK    3  A    between atoms: C9_12  and  N2_14 
REMARK    4  A    between atoms: N2_14  and  C10_16 
ROOT
HETATM    1  N1  UNL     1      34.677  -3.430 -77.256  1.00  0.00    -0.358 N 
ATOM      2  H1  UNL     1      35.075  -3.844 -76.413  1.00  0.00     0.162 HD
ENDROOT
BRANCH   1   3
HETATM    3  C8  UNL     1      34.806  -2.009 -77.351  1.00  0.00     0.036 C 
HETATM    4  C7  UNL     1      35.514  -1.431 -76.175  1.00  0.00     0.035 C 
HETATM    5  C5  UNL     1      35.644   0.077 -76.320  1.00  0.00    -0.009 C 
HETATM    6  C4  UNL     1      36.434   0.355 -77.566  1.00  0.00     0.009 C 
HETATM    7  C6  UNL     1      34.270   0.664 -76.364  1.00  0.00     0.048 C 
HETATM    8  C3  UNL     1      35.646  -0.124 -78.751  1.00  0.00    -0.009 C 
HETATM    9  C2  UNL     1      34.263   0.479 -78.824  1.00  0.00     0.048 C 
HETATM   10  C14 UNL     1      35.479  -1.626 -78.633  1.00  0.00     0.035 C 
HETATM   11  C1  UNL     1      33.528   0.097 -77.564  1.00  0.00     0.106 C 
HETATM   12  F1  UNL     1      32.266   0.691 -77.551  1.00  0.00    -0.243 F 
HETATM   13  C15 UNL     1      33.396  -1.378 -77.383  1.00  0.00     0.074 C 
ENDBRANCH   1   3
BRANCH   1  14
HETATM   14  C9  UNL     1      34.089  -4.340 -78.140  1.00  0.00     0.168 C 
HETATM   15  S1  UNL     1      32.525  -4.762 -77.995  1.00  0.00    -0.041 SA
BRANCH  14  16
HETATM   16  N2  UNL     1      34.895  -4.909 -79.194  1.00  0.00    -0.361 N 
ATOM     17  H2  UNL     1      34.678  -4.699 -80.169  1.00  0.00     0.162 HD
BRANCH  16  18
HETATM   18  C10 UNL     1      35.992  -5.759 -78.878  1.00  0.00     0.111 C 
HETATM   19  C11 UNL     1      37.244  -5.410 -79.657  1.00  0.00     0.054 C 
HETATM   20  C12 UNL     1      38.056  -6.670 -79.409  1.00  0.00     0.234 C 
HETATM   21  N3  UNL     1      37.082  -7.688 -79.767  1.00  0.00    -0.073 N 
HETATM   22  C13 UNL     1      35.792  -7.196 -79.343  1.00  0.00     0.257 C 
ATOM     23  H32 UNL     1      37.110  -7.942 -80.754  1.00  0.00     0.277 HD
ATOM     24  H31 UNL     1      37.305  -8.609 -79.390  1.00  0.00     0.277 HD
ENDBRANCH  16  18
ENDBRANCH  14  16
ENDBRANCH   1  14
TORSDOF 4
ENDMDL
MODEL 3
REMARK VINA RESULT: -5.727568361      1.178      1.891
REMARK  4 active torsions:
REMARK  status: ('A' for Active; 'I' for Inactive)
REMARK    1  A    between atoms: C8_9  and  N1_10 
REMARK    2  A    between atoms: N1_10  and  C9_12 
REMARK    3  A    between atoms: C9_12  and  N2_14 
REMARK    4  A    between atoms: N2_14  and  C10_16 
ROOT
HETATM    1  N1  UNL     1      43.665   2.615 -76.186  1.00  0.00    -0.358 N 
ATOM      2  H1  UNL     1      44.383   2.260 -75.554  1.00  0.00     0.162 HD
ENDROOT
BRANCH   1   3
HETATM    3  C8  UNL     1      42.319   2.406 -75.751  1.00  0.00     0.036 C 
HETATM    4  C7  UNL     1      41.598   1.428 -76.612  1.00  0.00     0.035 C 
HETATM    5  C5  UNL     1      40.177   1.223 -76.110  1.00  0.00    -0.009 C 
HETATM    6  C4  UNL     1      40.254   0.693 -74.708  1.00  0.00     0.009 C 
HETATM    7  C6  UNL     1      39.456   2.530 -76.195  1.00  0.00     0.048 C 
HETATM    8  C3  UNL     1      40.872   1.743 -73.830  1.00  0.00    -0.009 C 
HETATM    9  C2  UNL     1      40.141   3.065 -73.886  1.00  0.00     0.048 C 
HETATM   10  C14 UNL     1      42.288   1.991 -74.313  1.00  0.00     0.035 C 
HETATM   11  C1  UNL     1      40.168   3.545 -75.315  1.00  0.00     0.106 C 
HETATM   12  F1  UNL     1      39.441   4.730 -75.432  1.00  0.00    -0.243 F 
HETATM   13  C15 UNL     1      41.548   3.742 -75.844  1.00  0.00     0.074 C 
ENDBRANCH   1   3
BRANCH   1  14
HETATM   14  C9  UNL     1      44.150   3.230 -77.344  1.00  0.00     0.168 C 
HETATM   15  S1  UNL     1      44.705   4.758 -77.315  1.00  0.00    -0.041 SA
BRANCH  14  16
HETATM   16  N2  UNL     1      44.152   2.485 -78.580  1.00  0.00    -0.361 N 
ATOM     17  H2  UNL     1      44.597   1.567 -78.620  1.00  0.00     0.162 HD
BRANCH  16  18
HETATM   18  C10 UNL     1      43.535   3.024 -79.743  1.00  0.00     0.111 C 
HETATM   19  C11 UNL     1      42.249   2.310 -80.106  1.00  0.00     0.054 C 
HETATM   20  C12 UNL     1      42.064   2.824 -81.524  1.00  0.00     0.234 C 
HETATM   21  N3  UNL     1      43.380   2.550 -82.078  1.00  0.00    -0.073 N 
HETATM   22  C13 UNL     1      44.333   2.778 -81.018  1.00  0.00     0.257 C 
ATOM     23  H32 UNL     1      43.456   1.622 -82.494  1.00  0.00     0.277 HD
ATOM     24  H31 UNL     1      43.581   3.086 -82.922  1.00  0.00     0.277 HD
ENDBRANCH  16  18
ENDBRANCH  14  16
ENDBRANCH   1  14
TORSDOF 4
ENDMDL
MODEL 4
REMARK VINA RESULT: -5.674159590      1.016      1.938
REMARK  4 active torsions:
REMARK  status: ('A' for Active; 'I' for Inactive)
REMARK    1  A    between atoms: C8_9  and  N1_10 
REMARK    2  A    between atoms: N1_10  and  C9_12 
REMARK    3  A    between atoms: C9_12  and  N2_14 
REMARK    4  A    between atoms: N2_14  and  C10_16 
ROOT
HETATM    1  N1  UNL     1      43.756   2.881 -76.268  1.00  0.00    -0.358 N 
ATOM      2  H1  UNL     1      44.591   2.577 -75.768  1.00  0.00     0.162 HD
ENDROOT
BRANCH   1   3
HETATM    3  C8  UNL     1      42.535   2.769 -75.532  1.00  0.00     0.036 C 
HETATM    4  C7  UNL     1      42.773   2.680 -74.064  1.00  0.00     0.035 C 
HETATM    5  C5  UNL     1      41.454   2.577 -73.316  1.00  0.00    -0.009 C 
HETATM    6  C4  UNL     1      40.653   3.810 -73.619  1.00  0.00     0.009 C 
HETATM    7  C6  UNL     1      40.767   1.322 -73.747  1.00  0.00     0.048 C 
HETATM    8  C3  UNL     1      40.317   3.817 -75.083  1.00  0.00    -0.009 C 
HETATM    9  C2  UNL     1      39.600   2.564 -75.531  1.00  0.00     0.048 C 
HETATM   10  C14 UNL     1      41.613   3.900 -75.865  1.00  0.00     0.035 C 
HETATM   11  C1  UNL     1      40.502   1.391 -75.242  1.00  0.00     0.106 C 
HETATM   12  F1  UNL     1      39.855   0.201 -75.573  1.00  0.00    -0.243 F 
HETATM   13  C15 UNL     1      41.813   1.468 -75.950  1.00  0.00     0.074 C 
ENDBRANCH   1   3
BRANCH   1  14
HETATM   14  C9  UNL     1      43.981   3.342 -77.569  1.00  0.00     0.168 C 
HETATM   15  S1  UNL     1      44.513   4.854 -77.844  1.00  0.00    -0.041 SA
BRANCH  14  16
HETATM   16  N2  UNL     1      43.732   2.452 -78.677  1.00  0.00    -0.361 N 
ATOM     17  H2  UNL     1      44.308   1.617 -78.797  1.00  0.00     0.162 HD
BRANCH  16  18
HETATM   18  C10 UNL     1      42.689   2.733 -79.603  1.00  0.00     0.111 C 
HETATM   19  C11 UNL     1      41.513   1.787 -79.461  1.00  0.00     0.054 C 
HETATM   20  C12 UNL     1      40.796   2.076 -80.769  1.00  0.00     0.234 C 
HETATM   21  N3  UNL     1      41.895   1.939 -81.710  1.00  0.00    -0.073 N 
HETATM   22  C13 UNL     1      43.074   2.449 -81.049  1.00  0.00     0.257 C 
ATOM     23  H32 UNL     1      42.010   0.988 -82.059  1.00  0.00     0.277 HD
ATOM     24  H31 UNL     1      41.713   2.385 -82.609  1.00  0.00     0.277 HD
ENDBRANCH  16  18
ENDBRANCH  14  16
ENDBRANCH   1  14
TORSDOF 4
ENDMDL
MODEL 5
REMARK VINA RESULT: -5.599152725      8.304      9.756
REMARK  4 active torsions:
REMARK  status: ('A' for Active; 'I' for Inactive)
REMARK    1  A    between atoms: C8_9  and  N1_10 
REMARK    2  A    between atoms: N1_10  and  C9_12 
REMARK    3  A    between atoms: C9_12  and  N2_14 
REMARK    4  A    between atoms: N2_14  and  C10_16 
ROOT
HETATM    1  N1  UNL     1      34.900   0.389 -78.377  1.00  0.00    -0.358 N 
ATOM      2  H1  UNL     1      35.525   0.917 -78.986  1.00  0.00     0.162 HD
ENDROOT
BRANCH   1   3
HETATM    3  C8  UNL     1      33.622   0.991 -78.152  1.00  0.00     0.036 C 
HETATM    4  C7  UNL     1      33.676   2.038 -77.094  1.00  0.00     0.035 C 
HETATM    5  C5  UNL     1      32.304   2.663 -76.894  1.00  0.00    -0.009 C 
HETATM    6  C4  UNL     1      31.885   3.285 -78.195  1.00  0.00     0.009 C 
HETATM    7  C6  UNL     1      31.364   1.595 -76.436  1.00  0.00     0.048 C 
HETATM    8  C3  UNL     1      31.717   2.197 -79.216  1.00  0.00    -0.009 C 
HETATM    9  C2  UNL     1      30.751   1.120 -78.779  1.00  0.00     0.048 C 
HETATM   10  C14 UNL     1      33.064   1.535 -79.429  1.00  0.00     0.035 C 
HETATM   11  C1  UNL     1      31.284   0.516 -77.505  1.00  0.00     0.106 C 
HETATM   12  F1  UNL     1      30.388  -0.438 -77.020  1.00  0.00    -0.243 F 
HETATM   13  C15 UNL     1      32.636  -0.094 -77.662  1.00  0.00     0.074 C 
ENDBRANCH   1   3
BRANCH   1  14
HETATM   14  C9  UNL     1      35.426  -0.813 -77.891  1.00  0.00     0.168 C 
HETATM   15  S1  UNL     1      35.897  -0.957 -76.341  1.00  0.00    -0.041 SA
BRANCH  14  16
HETATM   16  N2  UNL     1      35.547  -1.935 -78.790  1.00  0.00    -0.361 N 
ATOM     17  H2  UNL     1      35.804  -1.778 -79.766  1.00  0.00     0.162 HD
BRANCH  16  18
HETATM   18  C10 UNL     1      35.311  -3.258 -78.322  1.00  0.00     0.111 C 
HETATM   19  C11 UNL     1      35.628  -4.310 -79.365  1.00  0.00     0.054 C 
HETATM   20  C12 UNL     1      34.932  -5.506 -78.737  1.00  0.00     0.234 C 
HETATM   21  N3  UNL     1      33.622  -4.938 -78.467  1.00  0.00    -0.073 N 
HETATM   22  C13 UNL     1      33.836  -3.560 -78.092  1.00  0.00     0.257 C 
ATOM     23  H32 UNL     1      32.968  -5.047 -79.242  1.00  0.00     0.277 HD
ATOM     24  H31 UNL     1      33.089  -5.465 -77.774  1.00  0.00     0.277 HD
ENDBRANCH  16  18
ENDBRANCH  14  16
ENDBRANCH   1  14
TORSDOF 4
ENDMDL
