MODEL 1
REMARK VINA RESULT: -7.487939652      0.000      0.000
REMARK  4 active torsions:
REMARK  status: ('A' for Active; 'I' for Inactive)
REMARK    1  A    between atoms: C1_2  and  N1_3 
REMARK    2  A    between atoms: C1_2  and  N2_12 
REMARK    3  A    between atoms: N1_3  and  C2_5 
REMARK    4  A    between atoms: N2_12  and  C8_14 
ROOT
HETATM    1  N2  UNL     1      34.808  -2.733 -77.070  1.00  0.00    -0.362 N 
ATOM      2  H2  UNL     1      34.948  -2.981 -76.090  1.00  0.00     0.162 HD
ENDROOT
BRANCH   1   3
HETATM    3  C1  UNL     1      34.247  -3.707 -77.977  1.00  0.00     0.172 C 
HETATM    4  S1  UNL     1      32.691  -4.180 -77.782  1.00  0.00    -0.041 SA
BRANCH   3   5
HETATM    5  N1  UNL     1      34.987  -4.209 -79.051  1.00  0.00    -0.333 N 
ATOM      6  H1  UNL     1      35.188  -3.581 -79.829  1.00  0.00     0.168 HD
BRANCH   5   7
HETATM    7  C2  UNL     1      35.472  -5.530 -79.125  1.00  0.00     0.034 A 
HETATM    8  C3  UNL     1      34.688  -6.631 -78.935  1.00  0.00     0.031 A 
HETATM    9  C4  UNL     1      35.153  -7.942 -79.040  1.00  0.00     0.026 A 
HETATM   10  C5  UNL     1      36.480  -8.106 -79.354  1.00  0.00     0.034 A 
HETATM   11 CL1  UNL     1      37.073  -9.760 -79.488  1.00  0.00    -0.084 Cl
HETATM   12  C6  UNL     1      37.308  -7.028 -79.553  1.00  0.00     0.026 A 
HETATM   13  C7  UNL     1      36.812  -5.765 -79.441  1.00  0.00     0.031 A 
ENDBRANCH   5   7
ENDBRANCH   3   5
ENDBRANCH   1   3
BRANCH   1  14
HETATM   14  C8  UNL     1      35.166  -1.441 -77.522  1.00  0.00     0.087 C 
HETATM   15  C9  UNL     1      35.900  -0.658 -76.411  1.00  0.00     0.058 C 
HETATM   16  C10 UNL     1      35.889   0.813 -76.712  1.00  0.00     0.188 C 
HETATM   17  C11 UNL     1      34.666   1.522 -76.183  1.00  0.00     0.035 C 
HETATM   18  N3  UNL     1      35.828   0.950 -78.174  1.00  0.00    -0.067 N 
HETATM   19  C12 UNL     1      33.863   1.857 -77.446  1.00  0.00     0.035 C 
HETATM   20  C13 UNL     1      34.381   0.751 -78.377  1.00  0.00     0.188 C 
HETATM   21  C14 UNL     1      33.933  -0.564 -77.814  1.00  0.00     0.058 C 
ATOM     22  H32 UNL     1      36.220   1.809 -78.561  1.00  0.00     0.278 HD
ATOM     23  H31 UNL     1      36.444   0.337 -78.708  1.00  0.00     0.278 HD
ENDBRANCH   1  14
TORSDOF 4
ENDMDL
MODEL 2
REMARK VINA RESULT: -7.187593480      2.141      3.187
REMARK  4 active torsions:
REMARK  status: ('A' for Active; 'I' for Inactive)
REMARK    1  A    between atoms: C1_2  and  N1_3 
REMARK    2  A    between atoms: C1_2  and  N2_12 
REMARK    3  A    between atoms: N1_3  and  C2_5 
REMARK    4  A    between atoms: N2_12  and  C8_14 
ROOT
HETATM    1  N2  UNL     1      33.327  -0.487 -78.304  1.00  0.00    -0.362 N 
ATOM      2  H2  UNL     1      33.396  -0.379 -79.316  1.00  0.00     0.162 HD
ENDROOT
BRANCH   1   3
HETATM    3  C1  UNL     1      32.286  -1.318 -77.746  1.00  0.00     0.172 C 
HETATM    4  S1  UNL     1      30.720  -0.884 -77.949  1.00  0.00    -0.041 SA
BRANCH   3   5
HETATM    5  N1  UNL     1      32.587  -2.513 -77.087  1.00  0.00    -0.333 N 
ATOM      6  H1  UNL     1      32.334  -2.593 -76.102  1.00  0.00     0.168 HD
BRANCH   5   7
HETATM    7  C2  UNL     1      33.218  -3.614 -77.698  1.00  0.00     0.034 A 
HETATM    8  C3  UNL     1      34.545  -3.637 -78.018  1.00  0.00     0.031 A 
HETATM    9  C4  UNL     1      35.185  -4.735 -78.593  1.00  0.00     0.026 A 
HETATM   10  C5  UNL     1      34.413  -5.844 -78.841  1.00  0.00     0.034 A 
HETATM   11 CL1  UNL     1      35.216  -7.234 -79.567  1.00  0.00    -0.084 Cl
HETATM   12  C6  UNL     1      33.073  -5.866 -78.537  1.00  0.00     0.026 A 
HETATM   13  C7  UNL     1      32.489  -4.771 -77.977  1.00  0.00     0.031 A 
ENDBRANCH   5   7
ENDBRANCH   3   5
ENDBRANCH   1   3
BRANCH   1  14
HETATM   14  C8  UNL     1      34.253   0.180 -77.467  1.00  0.00     0.087 C 
HETATM   15  C9  UNL     1      34.216   1.703 -77.716  1.00  0.00     0.058 C 
HETATM   16  C10 UNL     1      35.459   2.353 -77.179  1.00  0.00     0.188 C 
HETATM   17  C11 UNL     1      36.596   2.378 -78.171  1.00  0.00     0.035 C 
HETATM   18  N3  UNL     1      35.925   1.522 -76.059  1.00  0.00    -0.067 N 
HETATM   19  C12 UNL     1      37.595   1.359 -77.608  1.00  0.00     0.035 C 
HETATM   20  C13 UNL     1      36.628   0.468 -76.814  1.00  0.00     0.188 C 
HETATM   21  C14 UNL     1      35.711  -0.196 -77.796  1.00  0.00     0.058 C 
ATOM     22  H32 UNL     1      36.472   2.001 -75.344  1.00  0.00     0.278 HD
ATOM     23  H31 UNL     1      35.208   1.204 -75.408  1.00  0.00     0.278 HD
ENDBRANCH   1  14
TORSDOF 4
ENDMDL
MODEL 3
REMARK VINA RESULT: -7.121073050      0.877      1.456
REMARK  4 active torsions:
REMARK  status: ('A' for Active; 'I' for Inactive)
REMARK    1  A    between atoms: C1_2  and  N1_3 
REMARK    2  A    between atoms: C1_2  and  N2_12 
REMARK    3  A    between atoms: N1_3  and  C2_5 
REMARK    4  A    between atoms: N2_12  and  C8_14 
ROOT
HETATM    1  N2  UNL     1      35.166  -2.349 -77.231  1.00  0.00    -0.362 N 
ATOM      2  H2  UNL     1      36.056  -2.579 -76.790  1.00  0.00     0.162 HD
ENDROOT
BRANCH   1   3
HETATM    3  C1  UNL     1      34.480  -3.349 -78.016  1.00  0.00     0.172 C 
HETATM    4  S1  UNL     1      32.954  -3.780 -77.606  1.00  0.00    -0.041 SA
BRANCH   3   5
HETATM    5  N1  UNL     1      35.071  -3.913 -79.150  1.00  0.00    -0.333 N 
ATOM      6  H1  UNL     1      35.170  -3.327 -79.979  1.00  0.00     0.168 HD
BRANCH   5   7
HETATM    7  C2  UNL     1      35.539  -5.240 -79.218  1.00  0.00     0.034 A 
HETATM    8  C3  UNL     1      34.724  -6.331 -79.122  1.00  0.00     0.031 A 
HETATM    9  C4  UNL     1      35.174  -7.647 -79.223  1.00  0.00     0.026 A 
HETATM   10  C5  UNL     1      36.519  -7.828 -79.430  1.00  0.00     0.034 A 
HETATM   11 CL1  UNL     1      37.094  -9.489 -79.558  1.00  0.00    -0.084 Cl
HETATM   12  C6  UNL     1      37.379  -6.761 -79.532  1.00  0.00     0.026 A 
HETATM   13  C7  UNL     1      36.896  -5.492 -79.428  1.00  0.00     0.031 A 
ENDBRANCH   5   7
ENDBRANCH   3   5
ENDBRANCH   1   3
BRANCH   1  14
HETATM   14  C8  UNL     1      34.620  -1.053 -77.068  1.00  0.00     0.087 C 
HETATM   15  C9  UNL     1      34.393  -0.379 -78.438  1.00  0.00     0.058 C 
HETATM   16  C10 UNL     1      34.242   1.106 -78.273  1.00  0.00     0.188 C 
HETATM   17  C11 UNL     1      35.555   1.848 -78.304  1.00  0.00     0.035 C 
HETATM   18  N3  UNL     1      33.687   1.332 -76.931  1.00  0.00    -0.067 N 
HETATM   19  C12 UNL     1      35.754   2.301 -76.852  1.00  0.00     0.035 C 
HETATM   20  C13 UNL     1      34.924   1.225 -76.135  1.00  0.00     0.188 C 
HETATM   21  C14 UNL     1      35.598  -0.095 -76.361  1.00  0.00     0.058 C 
ATOM     22  H32 UNL     1      33.148   2.190 -76.807  1.00  0.00     0.278 HD
ATOM     23  H31 UNL     1      32.921   0.719 -76.653  1.00  0.00     0.278 HD
ENDBRANCH   1  14
TORSDOF 4
ENDMDL
MODEL 4
REMARK VINA RESULT: -7.042919183      2.206      3.006
REMARK  4 active torsions:
REMARK  status: ('A' for Active; 'I' for Inactive)
REMARK    1  A    between atoms: C1_2  and  N1_3 
REMARK    2  A    between atoms: C1_2  and  N2_12 
REMARK    3  A    between atoms: N1_3  and  C2_5 
REMARK    4  A    between atoms: N2_12  and  C8_14 
ROOT
HETATM    1  N2  UNL     1      31.807  -2.617 -78.263  1.00  0.00    -0.362 N 
ATOM      2  H2  UNL     1      31.182  -2.821 -79.044  1.00  0.00     0.162 HD
ENDROOT
BRANCH   1   3
HETATM    3  C1  UNL     1      32.627  -3.673 -77.714  1.00  0.00     0.172 C 
HETATM    4  S1  UNL     1      33.245  -3.503 -76.207  1.00  0.00    -0.041 SA
BRANCH   3   5
HETATM    5  N1  UNL     1      32.853  -4.857 -78.419  1.00  0.00    -0.333 N 
ATOM      6  H1  UNL     1      32.043  -5.401 -78.713  1.00  0.00     0.168 HD
BRANCH   5   7
HETATM    7  C2  UNL     1      34.133  -5.346 -78.750  1.00  0.00     0.034 A 
HETATM    8  C3  UNL     1      35.184  -4.540 -79.079  1.00  0.00     0.031 A 
HETATM    9  C4  UNL     1      36.462  -5.014 -79.374  1.00  0.00     0.026 A 
HETATM   10  C5  UNL     1      36.646  -6.374 -79.324  1.00  0.00     0.034 A 
HETATM   11 CL1  UNL     1      38.259  -6.978 -79.696  1.00  0.00    -0.084 Cl
HETATM   12  C6  UNL     1      35.617  -7.225 -78.998  1.00  0.00     0.026 A 
HETATM   13  C7  UNL     1      34.385  -6.719 -78.717  1.00  0.00     0.031 A 
ENDBRANCH   5   7
ENDBRANCH   3   5
ENDBRANCH   1   3
BRANCH   1  14
HETATM   14  C8  UNL     1      31.858  -1.306 -77.733  1.00  0.00     0.087 C 
HETATM   15  C9  UNL     1      30.641  -0.480 -78.203  1.00  0.00     0.058 C 
HETATM   16  C10 UNL     1      30.904   0.988 -78.024  1.00  0.00     0.188 C 
HETATM   17  C11 UNL     1      31.591   1.622 -79.207  1.00  0.00     0.035 C 
HETATM   18  N3  UNL     1      31.842   1.120 -76.900  1.00  0.00    -0.067 N 
HETATM   19  C12 UNL     1      33.009   1.907 -78.698  1.00  0.00     0.035 C 
HETATM   20  C13 UNL     1      33.106   0.833 -77.604  1.00  0.00     0.188 C 
HETATM   21  C14 UNL     1      33.058  -0.506 -78.276  1.00  0.00     0.058 C 
ATOM     22  H32 UNL     1      31.806   2.000 -76.386  1.00  0.00     0.278 HD
ATOM     23  H31 UNL     1      31.645   0.544 -76.081  1.00  0.00     0.278 HD
ENDBRANCH   1  14
TORSDOF 4
ENDMDL
MODEL 5
REMARK VINA RESULT: -7.036602000      2.320      2.890
REMARK  4 active torsions:
REMARK  status: ('A' for Active; 'I' for Inactive)
REMARK    1  A    between atoms: C1_2  and  N1_3 
REMARK    2  A    between atoms: C1_2  and  N2_12 
REMARK    3  A    between atoms: N1_3  and  C2_5 
REMARK    4  A    between atoms: N2_12  and  C8_14 
ROOT
HETATM    1  N2  UNL     1      33.095  -2.283 -78.316  1.00  0.00    -0.362 N 
ATOM      2  H2  UNL     1      32.554  -2.887 -78.935  1.00  0.00     0.162 HD
ENDROOT
BRANCH   1   3
HETATM    3  C1  UNL     1      34.496  -2.562 -78.096  1.00  0.00     0.172 C 
HETATM    4  S1  UNL     1      35.164  -2.207 -76.644  1.00  0.00    -0.041 SA
BRANCH   3   5
HETATM    5  N1  UNL     1      35.275  -3.180 -79.077  1.00  0.00    -0.333 N 
ATOM      6  H1  UNL     1      35.680  -2.593 -79.807  1.00  0.00     0.168 HD
BRANCH   5   7
HETATM    7  C2  UNL     1      35.536  -4.564 -79.121  1.00  0.00     0.034 A 
HETATM    8  C3  UNL     1      34.587  -5.516 -78.884  1.00  0.00     0.031 A 
HETATM    9  C4  UNL     1      34.830  -6.888 -78.959  1.00  0.00     0.026 A 
HETATM   10  C5  UNL     1      36.104  -7.275 -79.292  1.00  0.00     0.034 A 
HETATM   11 CL1  UNL     1      36.415  -9.007 -79.388  1.00  0.00    -0.084 Cl
HETATM   12  C6  UNL     1      37.092  -6.353 -79.539  1.00  0.00     0.026 A 
HETATM   13  C7  UNL     1      36.812  -5.023 -79.455  1.00  0.00     0.031 A 
ENDBRANCH   5   7
ENDBRANCH   3   5
ENDBRANCH   1   3
BRANCH   1  14
HETATM   14  C8  UNL     1      32.465  -1.185 -77.685  1.00  0.00     0.087 C 
HETATM   15  C9  UNL     1      30.931  -1.274 -77.838  1.00  0.00     0.058 C 
HETATM   16  C10 UNL     1      30.299   0.063 -77.574  1.00  0.00     0.188 C 
HETATM   17  C11 UNL     1      30.212   0.936 -78.801  1.00  0.00     0.035 C 
HETATM   18  N3  UNL     1      31.182   0.775 -76.639  1.00  0.00    -0.067 N 
HETATM   19  C12 UNL     1      31.250   2.035 -78.542  1.00  0.00     0.035 C 
HETATM   20  C13 UNL     1      32.189   1.278 -77.592  1.00  0.00     0.188 C 
HETATM   21  C14 UNL     1      32.809   0.154 -78.365  1.00  0.00     0.058 C 
ATOM     22  H32 UNL     1      30.736   1.476 -76.047  1.00  0.00     0.278 HD
ATOM     23  H31 UNL     1      31.540   0.229 -75.856  1.00  0.00     0.278 HD
ENDBRANCH   1  14
TORSDOF 4
ENDMDL
