MODEL 1
REMARK VINA RESULT: -4.935290688      0.000      0.000
REMARK  4 active torsions:
REMARK  status: ('A' for Active; 'I' for Inactive)
REMARK    1  A    between atoms: C2_2  and  C3_3 
REMARK    2  A    between atoms: C3_3  and  N1_4 
REMARK    3  A    between atoms: N1_4  and  C4_6 
REMARK    4  A    between atoms: C4_6  and  C5_7 
ROOT
HETATM    1  C4  UNL     1      25.373  37.797  62.256  1.00  0.00     0.118 C 
ENDROOT
BRANCH   1   2
HETATM    2  N1  UNL     1      25.491  37.044  61.064  1.00  0.00    -0.418 N 
ATOM      3  H1  UNL     1      24.798  36.347  60.792  1.00  0.00     0.153 HD
BRANCH   2   4
HETATM    4  C3  UNL     1      26.637  37.323  60.271  1.00  0.00     0.140 C 
BRANCH   4   5
HETATM    5  C2  UNL     1      26.309  38.011  58.982  1.00  0.00    -0.018 C 
HETATM    6  C1  UNL     1      25.140  37.911  58.453  1.00  0.00     0.008 C 
ENDBRANCH   4   5
ENDBRANCH   2   4
ENDBRANCH   1   2
BRANCH   1   7
HETATM    7  C5  UNL     1      24.138  38.665  62.360  1.00  0.00     0.003 C 
HETATM    8  C6  UNL     1      23.061  37.890  61.580  1.00  0.00     0.006 C 
HETATM    9  C7  UNL     1      22.200  38.907  60.912  1.00  0.00     0.000 C 
HETATM   10  C8  UNL     1      23.064  40.135  60.722  1.00  0.00     0.000 C 
HETATM   11  C9  UNL     1      24.302  39.911  61.527  1.00  0.00     0.006 C 
ENDBRANCH   1   7
TORSDOF 4
ENDMDL
MODEL 2
REMARK VINA RESULT: -4.934801728      1.039      1.863
REMARK  4 active torsions:
REMARK  status: ('A' for Active; 'I' for Inactive)
REMARK    1  A    between atoms: C2_2  and  C3_3 
REMARK    2  A    between atoms: C3_3  and  N1_4 
REMARK    3  A    between atoms: N1_4  and  C4_6 
REMARK    4  A    between atoms: C4_6  and  C5_7 
ROOT
HETATM    1  C4  UNL     1      23.244  36.530  60.800  1.00  0.00     0.118 C 
ENDROOT
BRANCH   1   2
HETATM    2  N1  UNL     1      24.568  36.039  60.886  1.00  0.00    -0.418 N 
ATOM      3  H1  UNL     1      24.964  35.697  61.761  1.00  0.00     0.153 HD
BRANCH   2   4
HETATM    4  C3  UNL     1      25.310  36.056  59.674  1.00  0.00     0.140 C 
BRANCH   4   5
HETATM    5  C2  UNL     1      26.499  36.965  59.723  1.00  0.00    -0.018 C 
HETATM    6  C1  UNL     1      26.476  38.121  59.155  1.00  0.00     0.008 C 
ENDBRANCH   4   5
ENDBRANCH   2   4
ENDBRANCH   1   2
BRANCH   1   7
HETATM    7  C5  UNL     1      22.979  37.824  61.539  1.00  0.00     0.003 C 
HETATM    8  C6  UNL     1      23.030  38.904  60.444  1.00  0.00     0.006 C 
HETATM    9  C7  UNL     1      23.624  40.120  61.070  1.00  0.00     0.000 C 
HETATM   10  C8  UNL     1      24.489  39.630  62.212  1.00  0.00     0.000 C 
HETATM   11  C9  UNL     1      24.160  38.186  62.403  1.00  0.00     0.006 C 
ENDBRANCH   1   7
TORSDOF 4
ENDMDL
MODEL 3
REMARK VINA RESULT: -4.909019940      1.469      3.840
REMARK  4 active torsions:
REMARK  status: ('A' for Active; 'I' for Inactive)
REMARK    1  A    between atoms: C2_2  and  C3_3 
REMARK    2  A    between atoms: C3_3  and  N1_4 
REMARK    3  A    between atoms: N1_4  and  C4_6 
REMARK    4  A    between atoms: C4_6  and  C5_7 
ROOT
HETATM    1  C4  UNL     1      23.427  36.338  60.541  1.00  0.00     0.118 C 
ENDROOT
BRANCH   1   2
HETATM    2  N1  UNL     1      22.663  37.261  59.790  1.00  0.00    -0.418 N 
ATOM      3  H1  UNL     1      22.742  37.334  58.776  1.00  0.00     0.153 HD
BRANCH   2   4
HETATM    4  C3  UNL     1      21.777  38.081  60.541  1.00  0.00     0.140 C 
BRANCH   4   5
HETATM    5  C2  UNL     1      22.465  39.223  61.223  1.00  0.00    -0.018 C 
HETATM    6  C1  UNL     1      23.221  40.032  60.566  1.00  0.00     0.008 C 
ENDBRANCH   4   5
ENDBRANCH   2   4
ENDBRANCH   1   2
BRANCH   1   7
HETATM    7  C5  UNL     1      24.909  36.316  60.235  1.00  0.00     0.003 C 
HETATM    8  C6  UNL     1      25.545  37.130  61.376  1.00  0.00     0.006 C 
HETATM    9  C7  UNL     1      26.701  37.865  60.786  1.00  0.00     0.000 C 
HETATM   10  C8  UNL     1      26.386  38.040  59.316  1.00  0.00     0.000 C 
HETATM   11  C9  UNL     1      25.208  37.169  59.028  1.00  0.00     0.006 C 
ENDBRANCH   1   7
TORSDOF 4
ENDMDL
MODEL 4
REMARK VINA RESULT: -4.897981521      1.008      2.366
REMARK  4 active torsions:
REMARK  status: ('A' for Active; 'I' for Inactive)
REMARK    1  A    between atoms: C2_2  and  C3_3 
REMARK    2  A    between atoms: C3_3  and  N1_4 
REMARK    3  A    between atoms: N1_4  and  C4_6 
REMARK    4  A    between atoms: C4_6  and  C5_7 
ROOT
HETATM    1  C4  UNL     1      22.800  37.973  59.814  1.00  0.00     0.118 C 
ENDROOT
BRANCH   1   2
HETATM    2  N1  UNL     1      23.972  37.241  59.512  1.00  0.00    -0.418 N 
ATOM      3  H1  UNL     1      24.187  36.351  59.960  1.00  0.00     0.153 HD
BRANCH   2   4
HETATM    4  C3  UNL     1      24.831  37.828  58.544  1.00  0.00     0.140 C 
BRANCH   4   5
HETATM    5  C2  UNL     1      26.224  38.049  59.048  1.00  0.00    -0.018 C 
HETATM    6  C1  UNL     1      26.799  37.188  59.813  1.00  0.00     0.008 C 
ENDBRANCH   4   5
ENDBRANCH   2   4
ENDBRANCH   1   2
BRANCH   1   7
HETATM    7  C5  UNL     1      22.770  38.620  61.182  1.00  0.00     0.003 C 
HETATM    8  C6  UNL     1      23.264  40.057  60.934  1.00  0.00     0.006 C 
HETATM    9  C7  UNL     1      24.051  40.453  62.137  1.00  0.00     0.000 C 
HETATM   10  C8  UNL     1      24.576  39.168  62.742  1.00  0.00     0.000 C 
HETATM   11  C9  UNL     1      23.860  38.053  62.055  1.00  0.00     0.006 C 
ENDBRANCH   1   7
TORSDOF 4
ENDMDL
MODEL 5
REMARK VINA RESULT: -4.808525731      1.378      3.772
REMARK  4 active torsions:
REMARK  status: ('A' for Active; 'I' for Inactive)
REMARK    1  A    between atoms: C2_2  and  C3_3 
REMARK    2  A    between atoms: C3_3  and  N1_4 
REMARK    3  A    between atoms: N1_4  and  C4_6 
REMARK    4  A    between atoms: C4_6  and  C5_7 
ROOT
HETATM    1  C4  UNL     1      25.122  38.259  62.356  1.00  0.00     0.118 C 
ENDROOT
BRANCH   1   2
HETATM    2  N1  UNL     1      23.818  37.714  62.281  1.00  0.00    -0.418 N 
ATOM      3  H1  UNL     1      23.588  36.802  62.674  1.00  0.00     0.153 HD
BRANCH   2   4
HETATM    4  C3  UNL     1      22.851  38.520  61.621  1.00  0.00     0.140 C 
BRANCH   4   5
HETATM    5  C2  UNL     1      21.874  37.725  60.812  1.00  0.00    -0.018 C 
HETATM    6  C1  UNL     1      21.871  36.437  60.849  1.00  0.00     0.008 C 
ENDBRANCH   4   5
ENDBRANCH   2   4
ENDBRANCH   1   2
BRANCH   1   7
HETATM    7  C5  UNL     1      26.134  37.661  61.403  1.00  0.00     0.003 C 
HETATM    8  C6  UNL     1      26.265  38.707  60.282  1.00  0.00     0.006 C 
HETATM    9  C7  UNL     1      26.482  37.952  59.015  1.00  0.00     0.000 C 
HETATM   10  C8  UNL     1      25.851  36.591  59.219  1.00  0.00     0.000 C 
HETATM   11  C9  UNL     1      25.538  36.483  60.675  1.00  0.00     0.006 C 
ENDBRANCH   1   7
TORSDOF 4
ENDMDL
