MODEL 1
REMARK VINA RESULT: -4.949092381      0.000      0.000
REMARK  5 active torsions:
REMARK  status: ('A' for Active; 'I' for Inactive)
REMARK    1  A    between atoms: C2_2  and  C3_3 
REMARK    2  A    between atoms: C3_3  and  O1_4 
REMARK    3  A    between atoms: O1_4  and  C4_5 
REMARK    4  A    between atoms: C4_5  and  C5_6 
REMARK    5  A    between atoms: C5_6  and  C6_7 
ROOT
HETATM    1  C6  UNL     1      24.974  38.647  59.993  1.00  0.00    -0.040 A 
HETATM    2  C7  UNL     1      25.655  37.633  60.625  1.00  0.00     0.025 A 
HETATM    3  C8  UNL     1      25.736  36.578  59.744  1.00  0.00     0.088 A 
HETATM    4  N1  UNL     1      25.133  36.896  58.586  1.00  0.00    -0.375 N 
ATOM      5  H1  UNL     1      25.043  36.305  57.760  1.00  0.00     0.164 HD
HETATM    6  C9  UNL     1      24.669  38.152  58.735  1.00  0.00     0.094 A 
ENDROOT
BRANCH   1   7
HETATM    7  C5  UNL     1      24.601  39.997  60.461  1.00  0.00     0.066 C 
BRANCH   7   8
HETATM    8  C4  UNL     1      23.107  40.147  60.627  1.00  0.00     0.172 C 
BRANCH   8   9
HETATM    9  O1  UNL     1      22.663  39.300  61.645  1.00  0.00    -0.387 OA
BRANCH   9  10
HETATM   10  C3  UNL     1      21.407  38.818  61.231  1.00  0.00     0.194 C 
BRANCH  10  11
HETATM   11  C2  UNL     1      21.530  37.532  60.513  1.00  0.00    -0.011 C 
HETATM   12  C1  UNL     1      22.079  36.500  61.123  1.00  0.00     0.009 C 
ENDBRANCH  10  11
ENDBRANCH   9  10
ENDBRANCH   8   9
ENDBRANCH   7   8
ENDBRANCH   1   7
TORSDOF 5
ENDMDL
MODEL 2
REMARK VINA RESULT: -4.868928394      2.086      4.026
REMARK  5 active torsions:
REMARK  status: ('A' for Active; 'I' for Inactive)
REMARK    1  A    between atoms: C2_2  and  C3_3 
REMARK    2  A    between atoms: C3_3  and  O1_4 
REMARK    3  A    between atoms: O1_4  and  C4_5 
REMARK    4  A    between atoms: C4_5  and  C5_6 
REMARK    5  A    between atoms: C5_6  and  C6_7 
ROOT
HETATM    1  C6  UNL     1      23.266  38.016  61.561  1.00  0.00    -0.040 A 
HETATM    2  C7  UNL     1      22.316  38.851  61.020  1.00  0.00     0.025 A 
HETATM    3  C8  UNL     1      21.478  38.077  60.249  1.00  0.00     0.088 A 
HETATM    4  N1  UNL     1      21.869  36.792  60.288  1.00  0.00    -0.375 N 
ATOM      5  H1  UNL     1      21.432  36.005  59.810  1.00  0.00     0.164 HD
HETATM    6  C9  UNL     1      22.954  36.752  61.084  1.00  0.00     0.094 A 
ENDROOT
BRANCH   1   7
HETATM    7  C5  UNL     1      24.403  38.301  62.459  1.00  0.00     0.066 C 
BRANCH   7   8
HETATM    8  C4  UNL     1      25.607  37.447  62.140  1.00  0.00     0.172 C 
BRANCH   8   9
HETATM    9  O1  UNL     1      26.468  38.151  61.295  1.00  0.00    -0.387 OA
BRANCH   9  10
HETATM   10  C3  UNL     1      26.671  37.327  60.172  1.00  0.00     0.194 C 
BRANCH  10  11
HETATM   11  C2  UNL     1      26.367  38.041  58.914  1.00  0.00    -0.011 C 
HETATM   12  C1  UNL     1      25.172  37.918  58.371  1.00  0.00     0.009 C 
ENDBRANCH  10  11
ENDBRANCH   9  10
ENDBRANCH   8   9
ENDBRANCH   7   8
ENDBRANCH   1   7
TORSDOF 5
ENDMDL
MODEL 3
REMARK VINA RESULT: -4.815091929      2.145      3.968
REMARK  5 active torsions:
REMARK  status: ('A' for Active; 'I' for Inactive)
REMARK    1  A    between atoms: C2_2  and  C3_3 
REMARK    2  A    between atoms: C3_3  and  O1_4 
REMARK    3  A    between atoms: O1_4  and  C4_5 
REMARK    4  A    between atoms: C4_5  and  C5_6 
REMARK    5  A    between atoms: C5_6  and  C6_7 
ROOT
HETATM    1  C6  UNL     1      23.290  38.177  61.746  1.00  0.00    -0.040 A 
HETATM    2  C7  UNL     1      22.520  37.134  61.284  1.00  0.00     0.025 A 
HETATM    3  C8  UNL     1      21.503  37.675  60.530  1.00  0.00     0.088 A 
HETATM    4  N1  UNL     1      21.608  39.014  60.504  1.00  0.00    -0.375 N 
ATOM      5  H1  UNL     1      20.991  39.668  60.022  1.00  0.00     0.164 HD
HETATM    6  C9  UNL     1      22.692  39.322  61.241  1.00  0.00     0.094 A 
ENDROOT
BRANCH   1   7
HETATM    7  C5  UNL     1      24.498  38.183  62.594  1.00  0.00     0.066 C 
BRANCH   7   8
HETATM    8  C4  UNL     1      25.633  37.405  61.971  1.00  0.00     0.172 C 
BRANCH   8   9
HETATM    9  O1  UNL     1      26.214  38.163  60.952  1.00  0.00    -0.387 OA
BRANCH   9  10
HETATM   10  C3  UNL     1      26.589  37.247  59.950  1.00  0.00     0.194 C 
BRANCH  10  11
HETATM   11  C2  UNL     1      25.491  37.017  58.989  1.00  0.00    -0.011 C 
HETATM   12  C1  UNL     1      24.887  38.050  58.435  1.00  0.00     0.009 C 
ENDBRANCH  10  11
ENDBRANCH   9  10
ENDBRANCH   8   9
ENDBRANCH   7   8
ENDBRANCH   1   7
TORSDOF 5
ENDMDL
MODEL 4
REMARK VINA RESULT: -4.796484820      1.563      2.028
REMARK  5 active torsions:
REMARK  status: ('A' for Active; 'I' for Inactive)
REMARK    1  A    between atoms: C2_2  and  C3_3 
REMARK    2  A    between atoms: C3_3  and  O1_4 
REMARK    3  A    between atoms: O1_4  and  C4_5 
REMARK    4  A    between atoms: C4_5  and  C5_6 
REMARK    5  A    between atoms: C5_6  and  C6_7 
ROOT
HETATM    1  C6  UNL     1      25.490  37.063  61.116  1.00  0.00    -0.040 A 
HETATM    2  C7  UNL     1      26.463  37.167  60.149  1.00  0.00     0.025 A 
HETATM    3  C8  UNL     1      26.182  36.231  59.179  1.00  0.00     0.088 A 
HETATM    4  N1  UNL     1      25.073  35.546  59.505  1.00  0.00    -0.375 N 
ATOM      5  H1  UNL     1      24.637  34.796  58.969  1.00  0.00     0.164 HD
HETATM    6  C9  UNL     1      24.650  36.050  60.681  1.00  0.00     0.094 A 
ENDROOT
BRANCH   1   7
HETATM    7  C5  UNL     1      25.295  37.813  62.373  1.00  0.00     0.066 C 
BRANCH   7   8
HETATM    8  C4  UNL     1      24.061  38.683  62.330  1.00  0.00     0.172 C 
BRANCH   8   9
HETATM    9  O1  UNL     1      24.130  39.536  61.226  1.00  0.00    -0.387 OA
BRANCH   9  10
HETATM   10  C3  UNL     1      22.799  39.834  60.880  1.00  0.00     0.194 C 
BRANCH  10  11
HETATM   11  C2  UNL     1      21.919  38.658  61.047  1.00  0.00    -0.011 C 
HETATM   12  C1  UNL     1      20.807  38.576  60.344  1.00  0.00     0.009 C 
ENDBRANCH  10  11
ENDBRANCH   9  10
ENDBRANCH   8   9
ENDBRANCH   7   8
ENDBRANCH   1   7
TORSDOF 5
ENDMDL
MODEL 5
REMARK VINA RESULT: -4.757101138      1.526      2.843
REMARK  5 active torsions:
REMARK  status: ('A' for Active; 'I' for Inactive)
REMARK    1  A    between atoms: C2_2  and  C3_3 
REMARK    2  A    between atoms: C3_3  and  O1_4 
REMARK    3  A    between atoms: O1_4  and  C4_5 
REMARK    4  A    between atoms: C4_5  and  C5_6 
REMARK    5  A    between atoms: C5_6  and  C6_7 
ROOT
HETATM    1  C6  UNL     1      25.175  36.603  60.121  1.00  0.00    -0.040 A 
HETATM    2  C7  UNL     1      25.413  37.157  58.884  1.00  0.00     0.025 A 
HETATM    3  C8  UNL     1      26.453  38.048  59.023  1.00  0.00     0.088 A 
HETATM    4  N1  UNL     1      26.873  38.072  60.299  1.00  0.00    -0.375 N 
ATOM      5  H1  UNL     1      27.628  38.640  60.685  1.00  0.00     0.164 HD
HETATM    6  C9  UNL     1      26.099  37.196  60.968  1.00  0.00     0.094 A 
ENDROOT
BRANCH   1   7
HETATM    7  C5  UNL     1      24.185  35.599  60.555  1.00  0.00     0.066 C 
BRANCH   7   8
HETATM    8  C4  UNL     1      22.791  36.174  60.638  1.00  0.00     0.172 C 
BRANCH   8   9
HETATM    9  O1  UNL     1      22.683  36.972  61.779  1.00  0.00    -0.387 OA
BRANCH   9  10
HETATM   10  C3  UNL     1      22.109  38.185  61.352  1.00  0.00     0.194 C 
BRANCH  10  11
HETATM   11  C2  UNL     1      23.028  39.323  61.562  1.00  0.00    -0.011 C 
HETATM   12  C1  UNL     1      23.470  40.000  60.520  1.00  0.00     0.009 C 
ENDBRANCH  10  11
ENDBRANCH   9  10
ENDBRANCH   8   9
ENDBRANCH   7   8
ENDBRANCH   1   7
TORSDOF 5
ENDMDL
