MODEL 1
REMARK VINA RESULT: -4.252040530      0.000      0.000
REMARK  4 active torsions:
REMARK  status: ('A' for Active; 'I' for Inactive)
REMARK    1  A    between atoms: N1_2  and  C2_4 
REMARK    2  A    between atoms: C2_4  and  O1_5 
REMARK    3  A    between atoms: C2_4  and  N2_7 
REMARK    4  A    between atoms: N5_24  and  C13_25 
ROOT
HETATM    1  N2  UNL     1      53.697   4.197   3.920  1.00  0.00    -0.257 N 
HETATM    2  C3  UNL     1      55.162   4.350   3.702  1.00  0.00     0.358 C 
HETATM    3  F1  UNL     1      55.411   4.391   2.367  1.00  0.00    -0.177 F 
HETATM    4  F2  UNL     1      55.587   5.523   4.336  1.00  0.00    -0.177 F 
HETATM    5  C4  UNL     1      55.766   3.196   4.357  1.00  0.00     0.045 A 
HETATM    6  C5  UNL     1      57.071   2.897   4.692  1.00  0.00     0.016 A 
HETATM    7  C6  UNL     1      57.417   1.721   5.325  1.00  0.00     0.001 A 
HETATM    8  C7  UNL     1      56.421   0.819   5.629  1.00  0.00     0.001 A 
HETATM    9  C8  UNL     1      55.083   1.080   5.308  1.00  0.00     0.011 A 
HETATM   10  C9  UNL     1      54.819   2.267   4.682  1.00  0.00    -0.005 A 
HETATM   11  C10 UNL     1      53.498   2.833   4.211  1.00  0.00     0.135 A 
HETATM   12  C11 UNL     1      52.486   2.474   5.211  1.00  0.00     0.104 A 
HETATM   13  N3  UNL     1      51.630   1.626   4.700  1.00  0.00    -0.351 N 
ATOM     14  H3  UNL     1      50.836   1.221   5.195  1.00  0.00     0.166 HD
HETATM   15  C12 UNL     1      51.978   1.356   3.354  1.00  0.00     0.131 A 
HETATM   16  N4  UNL     1      51.594   0.647   2.278  1.00  0.00    -0.279 N 
ATOM     17  H4  UNL     1      50.786   0.024   2.248  1.00  0.00     0.189 HD
HETATM   18  N5  UNL     1      52.411   0.873   1.265  1.00  0.00    -0.241 N 
HETATM   19  C14 UNL     1      53.349   1.747   1.689  1.00  0.00     0.130 A 
HETATM   20  C15 UNL     1      53.102   2.067   2.990  1.00  0.00     0.043 A 
ENDROOT
BRANCH   1  21
HETATM   21  C2  UNL     1      52.772   5.257   3.833  1.00  0.00     0.221 C 
BRANCH  21  22
HETATM   22  N1  UNL     1      52.997   6.603   3.544  1.00  0.00    -0.361 N 
HETATM   23  C1  UNL     1      52.815   7.616   4.554  1.00  0.00     0.150 C 
ATOM     24  H1  UNL     1      53.293   6.874   2.606  1.00  0.00     0.162 HD
ENDBRANCH  21  22
BRANCH  21  25
HETATM   25  O1  UNL     1      51.518   4.966   4.050  1.00  0.00    -0.333 OA
ATOM     26  H1  UNL     1      51.314   4.044   3.943  1.00  0.00     0.220 HD
ENDBRANCH  21  25
ENDBRANCH   1  21
BRANCH  18  27
HETATM   27  C13 UNL     1      52.315   0.285  -0.061  1.00  0.00     0.479 C 
HETATM   28  F3  UNL     1      50.980  -0.071  -0.299  1.00  0.00    -0.189 F 
HETATM   29  F4  UNL     1      52.725   1.248  -0.963  1.00  0.00    -0.189 F 
ENDBRANCH  18  27
TORSDOF 4
ENDMDL
MODEL 2
REMARK VINA RESULT: -3.868526839      2.724      5.110
REMARK  4 active torsions:
REMARK  status: ('A' for Active; 'I' for Inactive)
REMARK    1  A    between atoms: N1_2  and  C2_4 
REMARK    2  A    between atoms: C2_4  and  O1_5 
REMARK    3  A    between atoms: C2_4  and  N2_7 
REMARK    4  A    between atoms: N5_24  and  C13_25 
ROOT
HETATM    1  N2  UNL     1      52.545   4.077   4.155  1.00  0.00    -0.257 N 
HETATM    2  C3  UNL     1      51.529   2.993   4.266  1.00  0.00     0.358 C 
HETATM    3  F1  UNL     1      51.602   2.442   5.507  1.00  0.00    -0.177 F 
HETATM    4  F2  UNL     1      50.264   3.540   4.025  1.00  0.00    -0.177 F 
HETATM    5  C4  UNL     1      51.863   2.050   3.206  1.00  0.00     0.045 A 
HETATM    6  C5  UNL     1      51.176   0.982   2.664  1.00  0.00     0.016 A 
HETATM    7  C6  UNL     1      51.696   0.215   1.643  1.00  0.00     0.001 A 
HETATM    8  C7  UNL     1      52.945   0.530   1.152  1.00  0.00     0.001 A 
HETATM    9  C8  UNL     1      53.678   1.604   1.672  1.00  0.00     0.011 A 
HETATM   10  C9  UNL     1      53.095   2.318   2.683  1.00  0.00    -0.005 A 
HETATM   11  C10 UNL     1      53.622   3.513   3.444  1.00  0.00     0.135 A 
HETATM   12  C11 UNL     1      54.344   4.359   2.486  1.00  0.00     0.104 A 
HETATM   13  N3  UNL     1      55.622   4.364   2.764  1.00  0.00    -0.351 N 
ATOM     14  H3  UNL     1      56.336   4.873   2.242  1.00  0.00     0.166 HD
HETATM   15  C12 UNL     1      55.862   3.554   3.901  1.00  0.00     0.131 A 
HETATM   16  N4  UNL     1      56.845   3.120   4.708  1.00  0.00    -0.279 N 
ATOM     17  H4  UNL     1      57.832   3.358   4.606  1.00  0.00     0.189 HD
HETATM   18  N5  UNL     1      56.351   2.339   5.652  1.00  0.00    -0.241 N 
HETATM   19  C14 UNL     1      55.017   2.263   5.457  1.00  0.00     0.130 A 
HETATM   20  C15 UNL     1      54.684   3.013   4.370  1.00  0.00     0.043 A 
ENDROOT
BRANCH   1  21
HETATM   21  C2  UNL     1      52.375   5.372   4.683  1.00  0.00     0.221 C 
BRANCH  21  22
HETATM   22  N1  UNL     1      53.293   6.420   4.765  1.00  0.00    -0.361 N 
HETATM   23  C1  UNL     1      53.108   7.625   3.994  1.00  0.00     0.150 C 
ATOM     24  H1  UNL     1      54.104   6.333   5.378  1.00  0.00     0.162 HD
ENDBRANCH  21  22
BRANCH  21  25
HETATM   25  O1  UNL     1      51.200   5.661   5.173  1.00  0.00    -0.333 OA
ATOM     26  H1  UNL     1      50.565   5.924   4.517  1.00  0.00     0.220 HD
ENDBRANCH  21  25
ENDBRANCH   1  21
BRANCH  18  27
HETATM   27  C13 UNL     1      57.109   1.685   6.707  1.00  0.00     0.479 C 
HETATM   28  F3  UNL     1      57.098   0.302   6.475  1.00  0.00    -0.189 F 
HETATM   29  F4  UNL     1      58.399   2.174   6.643  1.00  0.00    -0.189 F 
ENDBRANCH  18  27
TORSDOF 4
ENDMDL
MODEL 3
REMARK VINA RESULT: -3.379436895      2.632      5.201
REMARK  4 active torsions:
REMARK  status: ('A' for Active; 'I' for Inactive)
REMARK    1  A    between atoms: N1_2  and  C2_4 
REMARK    2  A    between atoms: C2_4  and  O1_5 
REMARK    3  A    between atoms: C2_4  and  N2_7 
REMARK    4  A    between atoms: N5_24  and  C13_25 
ROOT
HETATM    1  N2  UNL     1      54.855   2.032   4.474  1.00  0.00    -0.257 N 
HETATM    2  C3  UNL     1      55.250   1.513   3.135  1.00  0.00     0.358 C 
HETATM    3  F1  UNL     1      55.935   2.480   2.468  1.00  0.00    -0.177 F 
HETATM    4  F2  UNL     1      56.029   0.365   3.313  1.00  0.00    -0.177 F 
HETATM    5  C4  UNL     1      53.996   1.154   2.483  1.00  0.00     0.045 A 
HETATM    6  C5  UNL     1      53.717   0.427   1.344  1.00  0.00     0.016 A 
HETATM    7  C6  UNL     1      52.427   0.207   0.908  1.00  0.00     0.001 A 
HETATM    8  C7  UNL     1      51.386   0.735   1.640  1.00  0.00     0.001 A 
HETATM    9  C8  UNL     1      51.621   1.480   2.802  1.00  0.00     0.011 A 
HETATM   10  C9  UNL     1      52.927   1.654   3.170  1.00  0.00    -0.005 A 
HETATM   11  C10 UNL     1      53.501   2.399   4.354  1.00  0.00     0.135 A 
HETATM   12  C11 UNL     1      52.610   2.160   5.495  1.00  0.00     0.104 A 
HETATM   13  N3  UNL     1      52.012   3.272   5.839  1.00  0.00    -0.351 N 
ATOM     14  H3  UNL     1      51.340   3.367   6.601  1.00  0.00     0.166 HD
HETATM   15  C12 UNL     1      52.441   4.322   4.990  1.00  0.00     0.131 A 
HETATM   16  N4  UNL     1      52.278   5.636   4.761  1.00  0.00    -0.279 N 
ATOM     17  H4  UNL     1      51.658   6.249   5.291  1.00  0.00     0.189 HD
HETATM   18  N5  UNL     1      53.036   6.021   3.750  1.00  0.00    -0.241 N 
HETATM   19  C14 UNL     1      53.708   4.935   3.311  1.00  0.00     0.130 A 
HETATM   20  C15 UNL     1      53.355   3.859   4.069  1.00  0.00     0.043 A 
ENDROOT
BRANCH   1  21
HETATM   21  C2  UNL     1      55.727   2.102   5.579  1.00  0.00     0.221 C 
BRANCH  21  22
HETATM   22  N1  UNL     1      56.163   1.084   6.428  1.00  0.00    -0.361 N 
HETATM   23  C1  UNL     1      57.539   0.653   6.419  1.00  0.00     0.150 C 
ATOM     24  H1  UNL     1      55.499   0.639   7.062  1.00  0.00     0.162 HD
ENDBRANCH  21  22
BRANCH  21  25
HETATM   25  O1  UNL     1      56.214   3.278   5.873  1.00  0.00    -0.333 OA
ATOM     26  H1  UNL     1      55.764   3.997   5.445  1.00  0.00     0.220 HD
ENDBRANCH  21  25
ENDBRANCH   1  21
BRANCH  18  27
HETATM   27  C13 UNL     1      53.128   7.369   3.212  1.00  0.00     0.479 C 
HETATM   28  F3  UNL     1      51.957   7.646   2.493  1.00  0.00    -0.189 F 
HETATM   29  F4  UNL     1      53.247   8.228   4.288  1.00  0.00    -0.189 F 
ENDBRANCH  18  27
TORSDOF 4
ENDMDL
MODEL 4
REMARK VINA RESULT: -3.134893552      4.545      6.616
REMARK  4 active torsions:
REMARK  status: ('A' for Active; 'I' for Inactive)
REMARK    1  A    between atoms: N1_2  and  C2_4 
REMARK    2  A    between atoms: C2_4  and  O1_5 
REMARK    3  A    between atoms: C2_4  and  N2_7 
REMARK    4  A    between atoms: N5_24  and  C13_25 
ROOT
HETATM    1  N2  UNL     1      56.343   1.697   4.605  1.00  0.00    -0.257 N 
HETATM    2  C3  UNL     1      55.350   0.797   3.955  1.00  0.00     0.358 C 
HETATM    3  F1  UNL     1      54.385   0.476   4.857  1.00  0.00    -0.177 F 
HETATM    4  F2  UNL     1      54.812   1.454   2.844  1.00  0.00    -0.177 F 
HETATM    5  C4  UNL     1      56.120  -0.360   3.512  1.00  0.00     0.045 A 
HETATM    6  C5  UNL     1      55.817  -1.407   2.666  1.00  0.00     0.016 A 
HETATM    7  C6  UNL     1      56.721  -2.409   2.382  1.00  0.00     0.001 A 
HETATM    8  C7  UNL     1      57.966  -2.357   2.968  1.00  0.00     0.001 A 
HETATM    9  C8  UNL     1      58.318  -1.314   3.834  1.00  0.00     0.011 A 
HETATM   10  C9  UNL     1      57.368  -0.358   4.065  1.00  0.00    -0.005 A 
HETATM   11  C10 UNL     1      57.438   0.875   4.938  1.00  0.00     0.135 A 
HETATM   12  C11 UNL     1      58.790   1.430   4.806  1.00  0.00     0.104 A 
HETATM   13  N3  UNL     1      59.436   1.315   5.938  1.00  0.00    -0.351 N 
ATOM     14  H3  UNL     1      60.394   1.621   6.103  1.00  0.00     0.166 HD
HETATM   15  C12 UNL     1      58.597   0.700   6.900  1.00  0.00     0.131 A 
HETATM   16  N4  UNL     1      58.569   0.293   8.181  1.00  0.00    -0.279 N 
ATOM     17  H4  UNL     1      59.347   0.375   8.837  1.00  0.00     0.189 HD
HETATM   18  N5  UNL     1      57.391  -0.230   8.470  1.00  0.00    -0.241 N 
HETATM   19  C14 UNL     1      56.634  -0.162   7.354  1.00  0.00     0.130 A 
HETATM   20  C15 UNL     1      57.362   0.415   6.357  1.00  0.00     0.043 A 
ENDROOT
BRANCH   1  21
HETATM   21  C2  UNL     1      56.143   3.078   4.803  1.00  0.00     0.221 C 
BRANCH  21  22
HETATM   22  N1  UNL     1      55.691   4.043   3.903  1.00  0.00    -0.361 N 
HETATM   23  C1  UNL     1      54.310   4.458   3.897  1.00  0.00     0.150 C 
ATOM     24  H1  UNL     1      56.346   4.461   3.241  1.00  0.00     0.162 HD
ENDBRANCH  21  22
BRANCH  21  25
HETATM   25  O1  UNL     1      56.410   3.549   5.991  1.00  0.00    -0.333 OA
ATOM     26  H1  UNL     1      55.804   3.261   6.663  1.00  0.00     0.220 HD
ENDBRANCH  21  25
ENDBRANCH   1  21
BRANCH  18  27
HETATM   27  C13 UNL     1      56.987  -0.777   9.755  1.00  0.00     0.479 C 
HETATM   28  F3  UNL     1      56.471  -2.064   9.554  1.00  0.00    -0.189 F 
HETATM   29  F4  UNL     1      58.119  -0.830  10.547  1.00  0.00    -0.189 F 
ENDBRANCH  18  27
TORSDOF 4
ENDMDL
MODEL 5
REMARK VINA RESULT: -2.483082160      3.142      4.906
REMARK  4 active torsions:
REMARK  status: ('A' for Active; 'I' for Inactive)
REMARK    1  A    between atoms: N1_2  and  C2_4 
REMARK    2  A    between atoms: C2_4  and  O1_5 
REMARK    3  A    between atoms: C2_4  and  N2_7 
REMARK    4  A    between atoms: N5_24  and  C13_25 
ROOT
HETATM    1  N2  UNL     1      55.036   0.774   3.245  1.00  0.00    -0.257 N 
HETATM    2  C3  UNL     1      55.318  -0.153   4.376  1.00  0.00     0.358 C 
HETATM    3  F1  UNL     1      54.149  -0.464   4.997  1.00  0.00    -0.177 F 
HETATM    4  F2  UNL     1      55.947  -1.296   3.870  1.00  0.00    -0.177 F 
HETATM    5  C4  UNL     1      56.244   0.570   5.239  1.00  0.00     0.045 A 
HETATM    6  C5  UNL     1      57.030   0.170   6.300  1.00  0.00     0.016 A 
HETATM    7  C6  UNL     1      57.849   1.045   6.981  1.00  0.00     0.001 A 
HETATM    8  C7  UNL     1      57.878   2.364   6.584  1.00  0.00     0.001 A 
HETATM    9  C8  UNL     1      57.098   2.816   5.513  1.00  0.00     0.011 A 
HETATM   10  C9  UNL     1      56.311   1.888   4.887  1.00  0.00    -0.005 A 
HETATM   11  C10 UNL     1      55.368   2.059   3.718  1.00  0.00     0.135 A 
HETATM   12  C11 UNL     1      55.992   3.005   2.785  1.00  0.00     0.104 A 
HETATM   13  N3  UNL     1      55.301   4.115   2.742  1.00  0.00    -0.351 N 
ATOM     14  H3  UNL     1      55.531   4.929   2.173  1.00  0.00     0.166 HD
HETATM   15  C12 UNL     1      54.185   4.012   3.609  1.00  0.00     0.131 A 
HETATM   16  N4  UNL     1      53.114   4.695   4.048  1.00  0.00    -0.279 N 
ATOM     17  H4  UNL     1      52.869   5.643   3.761  1.00  0.00     0.189 HD
HETATM   18  N5  UNL     1      52.424   3.963   4.904  1.00  0.00    -0.241 N 
HETATM   19  C14 UNL     1      53.058   2.777   5.026  1.00  0.00     0.130 A 
HETATM   20  C15 UNL     1      54.162   2.780   4.227  1.00  0.00     0.043 A 
ENDROOT
BRANCH   1  21
HETATM   21  C2  UNL     1      54.541   0.360   1.992  1.00  0.00     0.221 C 
BRANCH  21  22
HETATM   22  N1  UNL     1      53.333   0.678   1.370  1.00  0.00    -0.361 N 
HETATM   23  C1  UNL     1      52.120   0.812   2.138  1.00  0.00     0.150 C 
ATOM     24  H1  UNL     1      53.309   0.818   0.360  1.00  0.00     0.162 HD
ENDBRANCH  21  22
BRANCH  21  25
HETATM   25  O1  UNL     1      55.302  -0.436   1.290  1.00  0.00    -0.333 OA
ATOM     26  H1  UNL     1      55.061  -0.486   0.373  1.00  0.00     0.220 HD
ENDBRANCH  21  25
ENDBRANCH   1  21
BRANCH  18  27
HETATM   27  C13 UNL     1      51.205   4.365   5.587  1.00  0.00     0.479 C 
HETATM   28  F3  UNL     1      50.169   4.449   4.647  1.00  0.00    -0.189 F 
HETATM   29  F4  UNL     1      50.926   3.390   6.526  1.00  0.00    -0.189 F 
ENDBRANCH  18  27
TORSDOF 4
ENDMDL
