MODEL 1
REMARK VINA RESULT: -8.808295855      0.000      0.000
REMARK  8 active torsions:
REMARK  status: ('A' for Active; 'I' for Inactive)
REMARK    1  A    between atoms: N1_1  and  C1_4 
REMARK    2  A    between atoms: N4_12  and  C5_13 
REMARK    3  A    between atoms: C5_13  and  C6_14 
REMARK    4  A    between atoms: C6_14  and  N6_16 
REMARK    5  A    between atoms: N6_16  and  O1_18 
REMARK    6  A    between atoms: C7_20  and  N7_21 
REMARK    7  A    between atoms: N8_24  and  C10_25 
REMARK    8  A    between atoms: C10_25  and  O2_26 
ROOT
HETATM    1  C1  UNL     1      20.276  -0.779  12.306  1.00  0.00     0.679 A 
HETATM    2  N2  UNL     1      21.500  -0.900  11.765  1.00  0.00    -0.174 N 
ATOM      3  H2  UNL     1      22.281  -1.209  12.344  1.00  0.00     0.186 HD
HETATM    4  C2  UNL     1      21.707  -0.614  10.460  1.00  0.00     0.155 A 
HETATM    5  C3  UNL     1      20.663  -0.191   9.648  1.00  0.00     0.125 A 
HETATM    6  N3  UNL     1      21.188   0.001   8.448  1.00  0.00    -0.346 N 
ATOM      7  H3  UNL     1      20.682   0.315   7.619  1.00  0.00     0.167 HD
HETATM    8  C4  UNL     1      22.502  -0.288   8.506  1.00  0.00     0.185 A 
HETATM    9  N4  UNL     1      22.843  -0.671   9.743  1.00  0.00    -0.320 N 
HETATM   10  C7  UNL     1      19.419  -0.072  10.206  1.00  0.00     0.168 A 
HETATM   11  N11 UNL     1      19.283  -0.371  11.510  1.00  0.00    -0.173 N 
ATOM     12  H11 UNL     1      18.354  -0.280  11.922  1.00  0.00     0.186 HD
ENDROOT
BRANCH  10  13
HETATM   13  N7  UNL     1      18.281   0.359   9.438  1.00  0.00    -0.270 N 
HETATM   14  C8  UNL     1      17.606  -0.572   8.564  1.00  0.00     0.171 C 
HETATM   15  C9  UNL     1      16.422   0.056   7.845  1.00  0.00     0.149 C 
HETATM   16  N8  UNL     1      16.588   1.472   7.611  1.00  0.00    -0.332 N 
HETATM   17  C11 UNL     1      17.040   2.261   8.714  1.00  0.00     0.207 C 
HETATM   18  N9  UNL     1      16.602   3.601   8.827  1.00  0.00    -0.062 NA
HETATM   19  N10 UNL     1      17.836   1.698   9.551  1.00  0.00    -0.270 N 
ATOM     20  H10 UNL     1      18.167   2.248  10.344  1.00  0.00     0.190 HD
BRANCH  16  21
HETATM   21  C10 UNL     1      16.308   2.087   6.313  1.00  0.00     0.292 C 
BRANCH  21  22
HETATM   22  O2  UNL     1      16.772   1.152   5.360  1.00  0.00    -0.382 OA
ATOM     23  H2  UNL     1      17.590   1.515   5.039  1.00  0.00     0.211 HD
ENDBRANCH  21  22
ENDBRANCH  16  21
ENDBRANCH  10  13
BRANCH   1  24
HETATM   24  N1  UNL     1      20.089  -1.056  13.562  1.00  0.00    -0.234 N 
ATOM     25  H12 UNL     1      20.760  -0.793  14.284  1.00  0.00     0.174 HD
ATOM     26  H11 UNL     1      19.248  -1.553  13.856  1.00  0.00     0.174 HD
ENDBRANCH   1  24
BRANCH   9  27
HETATM   27  C5  UNL     1      24.152  -1.074  10.259  1.00  0.00     0.206 C 
BRANCH  27  28
HETATM   28  C6  UNL     1      24.275  -2.545  10.349  1.00  0.00     0.131 C 
HETATM   29  N5  UNL     1      23.934  -3.337   9.225  1.00  0.00    -0.084 NA
BRANCH  28  30
HETATM   30  N6  UNL     1      24.678  -3.103  11.411  1.00  0.00    -0.258 N 
ATOM     31  H6  UNL     1      25.657  -2.970  11.667  1.00  0.00     0.195 HD
BRANCH  30  32
HETATM   32  O1  UNL     1      23.912  -3.867  12.241  1.00  0.00    -0.289 OA
ATOM     33  H1  UNL     1      23.841  -3.755  13.182  1.00  0.00     0.244 HD
ENDBRANCH  30  32
ENDBRANCH  28  30
ENDBRANCH  27  28
ENDBRANCH   9  27
TORSDOF 8
ENDMDL
MODEL 2
REMARK VINA RESULT: -8.570739950      1.675      7.143
REMARK  8 active torsions:
REMARK  status: ('A' for Active; 'I' for Inactive)
REMARK    1  A    between atoms: N1_1  and  C1_4 
REMARK    2  A    between atoms: N4_12  and  C5_13 
REMARK    3  A    between atoms: C5_13  and  C6_14 
REMARK    4  A    between atoms: C6_14  and  N6_16 
REMARK    5  A    between atoms: N6_16  and  O1_18 
REMARK    6  A    between atoms: C7_20  and  N7_21 
REMARK    7  A    between atoms: N8_24  and  C10_25 
REMARK    8  A    between atoms: C10_25  and  O2_26 
ROOT
HETATM    1  C1  UNL     1      19.650  -0.599  11.925  1.00  0.00     0.679 A 
HETATM    2  N2  UNL     1      18.690  -0.422  11.001  1.00  0.00    -0.174 N 
ATOM      3  H2  UNL     1      17.723  -0.287  11.296  1.00  0.00     0.186 HD
HETATM    4  C2  UNL     1      18.994  -0.422   9.684  1.00  0.00     0.155 A 
HETATM    5  C3  UNL     1      20.302  -0.603   9.254  1.00  0.00     0.125 A 
HETATM    6  N3  UNL     1      20.263  -0.551   7.932  1.00  0.00    -0.346 N 
ATOM      7  H3  UNL     1      21.064  -0.649   7.307  1.00  0.00     0.167 HD
HETATM    8  C4  UNL     1      18.987  -0.346   7.550  1.00  0.00     0.185 A 
HETATM    9  N4  UNL     1      18.186  -0.264   8.621  1.00  0.00    -0.320 N 
HETATM   10  C7  UNL     1      21.274  -0.781  10.201  1.00  0.00     0.168 A 
HETATM   11  N11 UNL     1      20.903  -0.771  11.493  1.00  0.00    -0.173 N 
ATOM     12  H11 UNL     1      21.631  -0.905  12.195  1.00  0.00     0.186 HD
ENDROOT
BRANCH  10  13
HETATM   13  N7  UNL     1      22.655  -0.976   9.844  1.00  0.00    -0.270 N 
HETATM   14  C8  UNL     1      23.230  -0.227   8.751  1.00  0.00     0.171 C 
HETATM   15  C9  UNL     1      24.699  -0.554   8.528  1.00  0.00     0.149 C 
HETATM   16  N8  UNL     1      25.040  -1.907   8.903  1.00  0.00    -0.332 N 
HETATM   17  C11 UNL     1      24.563  -2.368  10.168  1.00  0.00     0.207 C 
HETATM   18  N9  UNL     1      25.336  -3.300  10.897  1.00  0.00    -0.062 NA
HETATM   19  N10 UNL     1      23.434  -1.904  10.574  1.00  0.00    -0.270 N 
ATOM     20  H10 UNL     1      23.080  -2.223  11.476  1.00  0.00     0.190 HD
BRANCH  16  21
HETATM   21  C10 UNL     1      25.839  -2.778   8.039  1.00  0.00     0.292 C 
BRANCH  21  22
HETATM   22  O2  UNL     1      26.927  -1.976   7.621  1.00  0.00    -0.382 OA
ATOM     23  H2  UNL     1      27.646  -2.585   7.499  1.00  0.00     0.211 HD
ENDBRANCH  21  22
ENDBRANCH  16  21
ENDBRANCH  10  13
BRANCH   1  24
HETATM   24  N1  UNL     1      19.346  -0.597  13.189  1.00  0.00    -0.234 N 
ATOM     25  H12 UNL     1      18.534  -0.098  13.553  1.00  0.00     0.174 HD
ATOM     26  H11 UNL     1      19.926  -1.108  13.855  1.00  0.00     0.174 HD
ENDBRANCH   1  24
BRANCH   9  27
HETATM   27  C5  UNL     1      16.740  -0.050   8.680  1.00  0.00     0.206 C 
BRANCH  27  28
HETATM   28  C6  UNL     1      16.340   1.180   7.962  1.00  0.00     0.131 C 
HETATM   29  N5  UNL     1      16.474   2.432   8.610  1.00  0.00    -0.084 NA
BRANCH  28  30
HETATM   30  N6  UNL     1      15.883   1.129   6.782  1.00  0.00    -0.258 N 
ATOM     31  H6  UNL     1      14.891   1.329   6.655  1.00  0.00     0.195 HD
BRANCH  30  32
HETATM   32  O1  UNL     1      16.609   0.828   5.668  1.00  0.00    -0.289 OA
ATOM     33  H1  UNL     1      17.500   1.112   5.499  1.00  0.00     0.244 HD
ENDBRANCH  30  32
ENDBRANCH  28  30
ENDBRANCH  27  28
ENDBRANCH   9  27
TORSDOF 8
ENDMDL
MODEL 3
REMARK VINA RESULT: -8.552550852      1.137      1.248
REMARK  8 active torsions:
REMARK  status: ('A' for Active; 'I' for Inactive)
REMARK    1  A    between atoms: N1_1  and  C1_4 
REMARK    2  A    between atoms: N4_12  and  C5_13 
REMARK    3  A    between atoms: C5_13  and  C6_14 
REMARK    4  A    between atoms: C6_14  and  N6_16 
REMARK    5  A    between atoms: N6_16  and  O1_18 
REMARK    6  A    between atoms: C7_20  and  N7_21 
REMARK    7  A    between atoms: N8_24  and  C10_25 
REMARK    8  A    between atoms: C10_25  and  O2_26 
ROOT
HETATM    1  C1  UNL     1      20.351  -0.900  12.192  1.00  0.00     0.679 A 
HETATM    2  N2  UNL     1      21.566  -0.995  11.626  1.00  0.00    -0.174 N 
ATOM      3  H2  UNL     1      22.358  -1.324  12.178  1.00  0.00     0.186 HD
HETATM    4  C2  UNL     1      21.749  -0.657  10.329  1.00  0.00     0.155 A 
HETATM    5  C3  UNL     1      20.689  -0.206   9.554  1.00  0.00     0.125 A 
HETATM    6  N3  UNL     1      21.192   0.036   8.353  1.00  0.00    -0.346 N 
ATOM      7  H3  UNL     1      20.671   0.381   7.546  1.00  0.00     0.167 HD
HETATM    8  C4  UNL     1      22.508  -0.250   8.376  1.00  0.00     0.185 A 
HETATM    9  N4  UNL     1      22.872  -0.681   9.591  1.00  0.00    -0.320 N 
HETATM   10  C7  UNL     1      19.455  -0.114  10.137  1.00  0.00     0.168 A 
HETATM   11  N11 UNL     1      19.343  -0.465  11.431  1.00  0.00    -0.173 N 
ATOM     12  H11 UNL     1      18.421  -0.394  11.862  1.00  0.00     0.186 HD
ENDROOT
BRANCH  10  13
HETATM   13  N7  UNL     1      18.302   0.343   9.408  1.00  0.00    -0.270 N 
HETATM   14  C8  UNL     1      17.578  -0.572   8.555  1.00  0.00     0.171 C 
HETATM   15  C9  UNL     1      16.385   0.083   7.876  1.00  0.00     0.149 C 
HETATM   16  N8  UNL     1      16.575   1.496   7.638  1.00  0.00    -0.332 N 
HETATM   17  C11 UNL     1      17.080   2.273   8.725  1.00  0.00     0.207 C 
HETATM   18  N9  UNL     1      16.676   3.622   8.853  1.00  0.00    -0.062 NA
HETATM   19  N10 UNL     1      17.891   1.691   9.536  1.00  0.00    -0.270 N 
ATOM     20  H10 UNL     1      18.259   2.233  10.318  1.00  0.00     0.190 HD
BRANCH  16  21
HETATM   21  C10 UNL     1      16.266   2.119   6.349  1.00  0.00     0.292 C 
BRANCH  21  22
HETATM   22  O2  UNL     1      16.704   1.187   5.381  1.00  0.00    -0.382 OA
ATOM     23  H2  UNL     1      16.220   1.407   4.593  1.00  0.00     0.211 HD
ENDBRANCH  21  22
ENDBRANCH  16  21
ENDBRANCH  10  13
BRANCH   1  24
HETATM   24  N1  UNL     1      20.187  -1.228  13.439  1.00  0.00    -0.234 N 
ATOM     25  H12 UNL     1      19.511  -0.759  14.042  1.00  0.00     0.174 HD
ATOM     26  H11 UNL     1      20.744  -1.980  13.847  1.00  0.00     0.174 HD
ENDBRANCH   1  24
BRANCH   9  27
HETATM   27  C5  UNL     1      24.191  -1.099  10.067  1.00  0.00     0.206 C 
BRANCH  27  28
HETATM   28  C6  UNL     1      24.547  -2.448   9.576  1.00  0.00     0.131 C 
HETATM   29  N5  UNL     1      24.165  -3.581  10.336  1.00  0.00    -0.084 NA
BRANCH  28  30
HETATM   30  N6  UNL     1      25.183  -2.603   8.493  1.00  0.00    -0.258 N 
ATOM     31  H6  UNL     1      26.198  -2.508   8.529  1.00  0.00     0.195 HD
BRANCH  30  32
HETATM   32  O1  UNL     1      24.623  -2.886   7.283  1.00  0.00    -0.289 OA
ATOM     33  H1  UNL     1      24.640  -3.734   6.854  1.00  0.00     0.244 HD
ENDBRANCH  30  32
ENDBRANCH  28  30
ENDBRANCH  27  28
ENDBRANCH   9  27
TORSDOF 8
ENDMDL
MODEL 4
REMARK VINA RESULT: -8.425977988      1.905      7.051
REMARK  8 active torsions:
REMARK  status: ('A' for Active; 'I' for Inactive)
REMARK    1  A    between atoms: N1_1  and  C1_4 
REMARK    2  A    between atoms: N4_12  and  C5_13 
REMARK    3  A    between atoms: C5_13  and  C6_14 
REMARK    4  A    between atoms: C6_14  and  N6_16 
REMARK    5  A    between atoms: N6_16  and  O1_18 
REMARK    6  A    between atoms: C7_20  and  N7_21 
REMARK    7  A    between atoms: N8_24  and  C10_25 
REMARK    8  A    between atoms: C10_25  and  O2_26 
ROOT
HETATM    1  C1  UNL     1      19.639  -0.589  11.913  1.00  0.00     0.679 A 
HETATM    2  N2  UNL     1      18.680  -0.393  10.991  1.00  0.00    -0.174 N 
ATOM      3  H2  UNL     1      17.714  -0.252  11.287  1.00  0.00     0.186 HD
HETATM    4  C2  UNL     1      18.985  -0.382   9.674  1.00  0.00     0.155 A 
HETATM    5  C3  UNL     1      20.291  -0.571   9.242  1.00  0.00     0.125 A 
HETATM    6  N3  UNL     1      20.253  -0.505   7.920  1.00  0.00    -0.346 N 
ATOM      7  H3  UNL     1      21.053  -0.604   7.295  1.00  0.00     0.167 HD
HETATM    8  C4  UNL     1      18.979  -0.284   7.541  1.00  0.00     0.185 A 
HETATM    9  N4  UNL     1      18.179  -0.205   8.612  1.00  0.00    -0.320 N 
HETATM   10  C7  UNL     1      21.261  -0.768  10.187  1.00  0.00     0.168 A 
HETATM   11  N11 UNL     1      20.890  -0.768  11.480  1.00  0.00    -0.173 N 
ATOM     12  H11 UNL     1      21.616  -0.916  12.180  1.00  0.00     0.186 HD
ENDROOT
BRANCH  10  13
HETATM   13  N7  UNL     1      22.640  -0.972   9.829  1.00  0.00    -0.270 N 
HETATM   14  C8  UNL     1      23.215  -0.237   8.726  1.00  0.00     0.171 C 
HETATM   15  C9  UNL     1      24.682  -0.572   8.502  1.00  0.00     0.149 C 
HETATM   16  N8  UNL     1      25.019  -1.922   8.891  1.00  0.00    -0.332 N 
HETATM   17  C11 UNL     1      24.544  -2.368  10.162  1.00  0.00     0.207 C 
HETATM   18  N9  UNL     1      25.315  -3.295  10.900  1.00  0.00    -0.062 NA
HETATM   19  N10 UNL     1      23.418  -1.895  10.567  1.00  0.00    -0.270 N 
ATOM     20  H10 UNL     1      23.065  -2.203  11.473  1.00  0.00     0.190 HD
BRANCH  16  21
HETATM   21  C10 UNL     1      25.813  -2.806   8.034  1.00  0.00     0.292 C 
BRANCH  21  22
HETATM   22  O2  UNL     1      26.913  -2.020   7.623  1.00  0.00    -0.382 OA
ATOM     23  H2  UNL     1      27.368  -2.554   6.981  1.00  0.00     0.211 HD
ENDBRANCH  21  22
ENDBRANCH  16  21
ENDBRANCH  10  13
BRANCH   1  24
HETATM   24  N1  UNL     1      19.334  -0.597  13.176  1.00  0.00    -0.234 N 
ATOM     25  H12 UNL     1      19.209  -1.463  13.701  1.00  0.00     0.174 HD
ATOM     26  H11 UNL     1      19.213   0.282  13.679  1.00  0.00     0.174 HD
ENDBRANCH   1  24
BRANCH   9  27
HETATM   27  C5  UNL     1      16.734   0.022   8.673  1.00  0.00     0.206 C 
BRANCH  27  28
HETATM   28  C6  UNL     1      16.342   1.240   7.931  1.00  0.00     0.131 C 
HETATM   29  N5  UNL     1      15.884   1.118   6.596  1.00  0.00    -0.084 NA
BRANCH  28  30
HETATM   30  N6  UNL     1      16.408   2.383   8.471  1.00  0.00    -0.258 N 
ATOM     31  H6  UNL     1      15.783   3.106   8.116  1.00  0.00     0.195 HD
BRANCH  30  32
HETATM   32  O1  UNL     1      17.249   2.727   9.489  1.00  0.00    -0.289 OA
ATOM     33  H1  UNL     1      16.978   2.967  10.367  1.00  0.00     0.244 HD
ENDBRANCH  30  32
ENDBRANCH  28  30
ENDBRANCH  27  28
ENDBRANCH   9  27
TORSDOF 8
ENDMDL
MODEL 5
REMARK VINA RESULT: -7.457351412      1.678      2.128
REMARK  8 active torsions:
REMARK  status: ('A' for Active; 'I' for Inactive)
REMARK    1  A    between atoms: N1_1  and  C1_4 
REMARK    2  A    between atoms: N4_12  and  C5_13 
REMARK    3  A    between atoms: C5_13  and  C6_14 
REMARK    4  A    between atoms: C6_14  and  N6_16 
REMARK    5  A    between atoms: N6_16  and  O1_18 
REMARK    6  A    between atoms: C7_20  and  N7_21 
REMARK    7  A    between atoms: N8_24  and  C10_25 
REMARK    8  A    between atoms: C10_25  and  O2_26 
ROOT
HETATM    1  C1  UNL     1      20.381  -1.104  12.353  1.00  0.00     0.679 A 
HETATM    2  N2  UNL     1      21.502  -1.626  11.825  1.00  0.00    -0.174 N 
ATOM      3  H2  UNL     1      22.057  -2.287  12.370  1.00  0.00     0.186 HD
HETATM    4  C2  UNL     1      21.901  -1.284  10.580  1.00  0.00     0.155 A 
HETATM    5  C3  UNL     1      21.165  -0.387   9.817  1.00  0.00     0.125 A 
HETATM    6  N3  UNL     1      21.812  -0.267   8.668  1.00  0.00    -0.346 N 
ATOM      7  H3  UNL     1      21.531   0.321   7.883  1.00  0.00     0.167 HD
HETATM    8  C4  UNL     1      22.905  -1.054   8.710  1.00  0.00     0.185 A 
HETATM    9  N4  UNL     1      22.978  -1.691   9.886  1.00  0.00    -0.320 N 
HETATM   10  C7  UNL     1      20.025   0.140  10.360  1.00  0.00     0.168 A 
HETATM   11  N11 UNL     1      19.686  -0.243  11.604  1.00  0.00    -0.173 N 
ATOM     12  H11 UNL     1      18.835   0.152  12.005  1.00  0.00     0.186 HD
ENDROOT
BRANCH  10  13
HETATM   13  N7  UNL     1      19.202   1.075   9.639  1.00  0.00    -0.270 N 
HETATM   14  C8  UNL     1      19.474   2.491   9.726  1.00  0.00     0.171 C 
HETATM   15  C9  UNL     1      18.512   3.323   8.891  1.00  0.00     0.149 C 
HETATM   16  N8  UNL     1      17.208   2.715   8.759  1.00  0.00    -0.332 N 
HETATM   17  C11 UNL     1      17.171   1.328   8.416  1.00  0.00     0.207 C 
HETATM   18  N9  UNL     1      16.100   0.840   7.634  1.00  0.00    -0.062 NA
HETATM   19  N10 UNL     1      18.131   0.591   8.852  1.00  0.00    -0.270 N 
ATOM     20  H10 UNL     1      18.120  -0.401   8.615  1.00  0.00     0.190 HD
BRANCH  16  21
HETATM   21  C10 UNL     1      15.970   3.471   8.959  1.00  0.00     0.292 C 
BRANCH  21  22
HETATM   22  O2  UNL     1      15.963   3.797  10.335  1.00  0.00    -0.382 OA
ATOM     23  H2  UNL     1      16.369   4.655  10.385  1.00  0.00     0.211 HD
ENDBRANCH  21  22
ENDBRANCH  16  21
ENDBRANCH  10  13
BRANCH   1  24
HETATM   24  N1  UNL     1      20.008  -1.441  13.551  1.00  0.00    -0.234 N 
ATOM     25  H12 UNL     1      19.427  -2.259  13.731  1.00  0.00     0.174 HD
ATOM     26  H11 UNL     1      20.297  -0.880  14.353  1.00  0.00     0.174 HD
ENDBRANCH   1  24
BRANCH   9  27
HETATM   27  C5  UNL     1      23.988  -2.637  10.365  1.00  0.00     0.206 C 
BRANCH  27  28
HETATM   28  C6  UNL     1      23.370  -3.814  11.011  1.00  0.00     0.131 C 
HETATM   29  N5  UNL     1      22.462  -4.612  10.272  1.00  0.00    -0.084 NA
BRANCH  28  30
HETATM   30  N6  UNL     1      23.641  -4.118  12.210  1.00  0.00    -0.258 N 
ATOM     31  H6  UNL     1      24.625  -4.135  12.478  1.00  0.00     0.195 HD
BRANCH  30  32
HETATM   32  O1  UNL     1      22.724  -4.425  13.172  1.00  0.00    -0.289 OA
ATOM     33  H1  UNL     1      22.334  -3.804  13.777  1.00  0.00     0.244 HD
ENDBRANCH  30  32
ENDBRANCH  28  30
ENDBRANCH  27  28
ENDBRANCH   9  27
TORSDOF 8
ENDMDL
