MODEL 1
REMARK VINA RESULT: -7.366389962      0.000      0.000
REMARK  7 active torsions:
REMARK  status: ('A' for Active; 'I' for Inactive)
REMARK    1  A    between atoms: C2_2  and  N1_3 
REMARK       I    between atoms: N1_3  and  C3_4 
REMARK    2  A    between atoms: N3_6  and  O1_8 
REMARK    3  A    between atoms: C4_10  and  C5_11 
REMARK    4  A    between atoms: C5_11  and  O2_12 
REMARK    5  A    between atoms: C5_11  and  C6_14 
REMARK    6  A    between atoms: C6_14  and  N4_15 
REMARK    7  A    between atoms: C8_20  and  N6_21 
ROOT
HETATM    1  C1  UNL     1      25.124  -1.260  10.534  1.00  0.00     0.063 C 
HETATM    2  C2  UNL     1      23.826  -1.692   9.779  1.00  0.00     0.179 C 
HETATM    3  C4  UNL     1      22.943  -0.477   9.866  1.00  0.00     0.201 C 
HETATM    4  O3  UNL     1      23.414   0.621   9.162  1.00  0.00    -0.355 OA
HETATM    5  C9  UNL     1      24.102   0.313   8.019  1.00  0.00     0.342 C 
HETATM    6  O4  UNL     1      23.840  -0.932   7.510  1.00  0.00    -0.325 OA
HETATM    7  C10 UNL     1      24.326  -1.916   8.355  1.00  0.00     0.229 A 
HETATM    8  C11 UNL     1      25.560  -2.547   8.034  1.00  0.00     0.244 A 
HETATM    9  O5  UNL     1      24.235  -3.229   7.858  1.00  0.00    -0.345 OA
ENDROOT
BRANCH   3  10
HETATM   10  C5  UNL     1      21.494  -0.675   9.628  1.00  0.00     0.179 C 
BRANCH  10  11
HETATM   11  O2  UNL     1      21.143  -1.371   8.494  1.00  0.00    -0.391 OA
ATOM     12  H2  UNL     1      20.953  -0.856   7.719  1.00  0.00     0.210 HD
ENDBRANCH  10  11
BRANCH  10  13
HETATM   13  C6  UNL     1      20.894   0.732   9.471  1.00  0.00     0.314 C 
BRANCH  13  14
HETATM   14  N4  UNL     1      19.611   0.854  10.120  1.00  0.00     0.175 N 
HETATM   15  C7  UNL     1      18.487   0.826   9.238  1.00  0.00     0.512 A 
HETATM   16  N5  UNL     1      18.109  -0.450   9.754  1.00  0.00     0.007 N 
HETATM   17  C8  UNL     1      19.204  -0.403  10.681  1.00  0.00     0.618 A 
ATOM     18  H52 UNL     1      17.160  -0.602  10.094  1.00  0.00     0.283 HD
ATOM     19  H51 UNL     1      18.010  -1.245   9.122  1.00  0.00     0.283 HD
BRANCH  17  20
HETATM   20  N6  UNL     1      18.798  -0.316  12.078  1.00  0.00    -0.023 N 
ATOM     21  H63 UNL     1      18.327   0.570  12.262  1.00  0.00     0.279 HD
ATOM     22  H62 UNL     1      18.032  -0.960  12.271  1.00  0.00     0.279 HD
ATOM     23  H61 UNL     1      19.564  -0.461  12.736  1.00  0.00     0.279 HD
ENDBRANCH  17  20
ENDBRANCH  13  14
ENDBRANCH  10  13
ENDBRANCH   3  10
BRANCH   2  24
HETATM   24  N1  UNL     1      23.352  -2.792  10.415  1.00  0.00    -0.397 NA
HETATM   25  C3  UNL     1      22.872  -3.910  11.061  1.00  0.00     0.282 C 
HETATM   26  N2  UNL     1      22.297  -4.995  10.328  1.00  0.00    -0.048 NA
HETATM   27  N3  UNL     1      22.922  -4.034  12.334  1.00  0.00    -0.230 N 
ATOM     28  H3  UNL     1      23.330  -3.291  12.900  1.00  0.00     0.198 HD
BRANCH  27  29
HETATM   29  O1  UNL     1      22.434  -5.157  12.936  1.00  0.00    -0.287 OA
ATOM     30  H1  UNL     1      22.231  -5.153  13.864  1.00  0.00     0.244 HD
ENDBRANCH  27  29
ENDBRANCH   2  24
TORSDOF 7
ENDMDL
MODEL 2
REMARK VINA RESULT: -7.170335203      0.905      1.177
REMARK  7 active torsions:
REMARK  status: ('A' for Active; 'I' for Inactive)
REMARK    1  A    between atoms: C2_2  and  N1_3 
REMARK       I    between atoms: N1_3  and  C3_4 
REMARK    2  A    between atoms: N3_6  and  O1_8 
REMARK    3  A    between atoms: C4_10  and  C5_11 
REMARK    4  A    between atoms: C5_11  and  O2_12 
REMARK    5  A    between atoms: C5_11  and  C6_14 
REMARK    6  A    between atoms: C6_14  and  N4_15 
REMARK    7  A    between atoms: C8_20  and  N6_21 
ROOT
HETATM    1  C1  UNL     1      24.709  -0.988  10.653  1.00  0.00     0.063 C 
HETATM    2  C2  UNL     1      23.486  -1.582   9.883  1.00  0.00     0.179 C 
HETATM    3  C4  UNL     1      22.463  -0.480   9.937  1.00  0.00     0.201 C 
HETATM    4  O3  UNL     1      22.813   0.657   9.224  1.00  0.00    -0.355 OA
HETATM    5  C9  UNL     1      23.554   0.418   8.098  1.00  0.00     0.342 C 
HETATM    6  O4  UNL     1      23.451  -0.856   7.604  1.00  0.00    -0.325 OA
HETATM    7  C10 UNL     1      24.035  -1.764   8.472  1.00  0.00     0.229 A 
HETATM    8  C11 UNL     1      25.341  -2.247   8.181  1.00  0.00     0.244 A 
HETATM    9  O5  UNL     1      24.110  -3.084   7.993  1.00  0.00    -0.345 OA
ENDROOT
BRANCH   3  10
HETATM   10  C5  UNL     1      21.052  -0.852   9.677  1.00  0.00     0.179 C 
BRANCH  10  11
HETATM   11  O2  UNL     1      20.834  -1.819   8.724  1.00  0.00    -0.391 OA
ATOM     12  H2  UNL     1      19.937  -1.940   8.435  1.00  0.00     0.210 HD
ENDBRANCH  10  11
BRANCH  10  13
HETATM   13  C6  UNL     1      20.365   0.423   9.161  1.00  0.00     0.314 C 
BRANCH  13  14
HETATM   14  N4  UNL     1      18.980   0.495   9.558  1.00  0.00     0.175 N 
HETATM   15  C7  UNL     1      18.418   1.809   9.538  1.00  0.00     0.512 A 
HETATM   16  N5  UNL     1      17.600   1.446   8.425  1.00  0.00     0.007 N 
HETATM   17  C8  UNL     1      18.121   0.109   8.475  1.00  0.00     0.618 A 
ATOM     18  H52 UNL     1      16.593   1.602   8.460  1.00  0.00     0.283 HD
ATOM     19  H51 UNL     1      17.654   1.981   7.558  1.00  0.00     0.283 HD
BRANCH  17  20
HETATM   20  N6  UNL     1      17.135  -0.900   8.842  1.00  0.00    -0.023 N 
ATOM     21  H63 UNL     1      17.589  -1.791   9.047  1.00  0.00     0.279 HD
ATOM     22  H62 UNL     1      16.737  -0.698   9.759  1.00  0.00     0.279 HD
ATOM     23  H61 UNL     1      16.398  -1.023   8.149  1.00  0.00     0.279 HD
ENDBRANCH  17  20
ENDBRANCH  13  14
ENDBRANCH  10  13
ENDBRANCH   3  10
BRANCH   2  24
HETATM   24  N1  UNL     1      23.134  -2.722  10.528  1.00  0.00    -0.397 NA
HETATM   25  C3  UNL     1      22.778  -3.880  11.184  1.00  0.00     0.282 C 
HETATM   26  N2  UNL     1      22.398  -5.052  10.456  1.00  0.00    -0.048 NA
HETATM   27  N3  UNL     1      22.777  -3.967  12.460  1.00  0.00    -0.230 N 
ATOM     28  H3  UNL     1      23.047  -3.161  13.023  1.00  0.00     0.198 HD
BRANCH  27  29
HETATM   29  O1  UNL     1      22.416  -5.132  13.071  1.00  0.00    -0.287 OA
ATOM     30  H1  UNL     1      22.681  -5.305  13.967  1.00  0.00     0.244 HD
ENDBRANCH  27  29
ENDBRANCH   2  24
TORSDOF 7
ENDMDL
MODEL 3
REMARK VINA RESULT: -6.870426096      1.053      1.517
REMARK  7 active torsions:
REMARK  status: ('A' for Active; 'I' for Inactive)
REMARK    1  A    between atoms: C2_2  and  N1_3 
REMARK       I    between atoms: N1_3  and  C3_4 
REMARK    2  A    between atoms: N3_6  and  O1_8 
REMARK    3  A    between atoms: C4_10  and  C5_11 
REMARK    4  A    between atoms: C5_11  and  O2_12 
REMARK    5  A    between atoms: C5_11  and  C6_14 
REMARK    6  A    between atoms: C6_14  and  N4_15 
REMARK    7  A    between atoms: C8_20  and  N6_21 
ROOT
HETATM    1  C1  UNL     1      24.927  -0.829  10.296  1.00  0.00     0.063 C 
HETATM    2  C2  UNL     1      23.720  -1.513   9.577  1.00  0.00     0.179 C 
HETATM    3  C4  UNL     1      22.644  -0.462   9.611  1.00  0.00     0.201 C 
HETATM    4  O3  UNL     1      22.921   0.662   8.848  1.00  0.00    -0.355 OA
HETATM    5  C9  UNL     1      23.650   0.416   7.715  1.00  0.00     0.342 C 
HETATM    6  O4  UNL     1      23.602  -0.880   7.273  1.00  0.00    -0.325 OA
HETATM    7  C10 UNL     1      24.249  -1.722   8.161  1.00  0.00     0.229 A 
HETATM    8  C11 UNL     1      25.571  -2.151   7.861  1.00  0.00     0.244 A 
HETATM    9  O5  UNL     1      24.381  -3.055   7.733  1.00  0.00    -0.345 OA
ENDROOT
BRANCH   3  10
HETATM   10  C5  UNL     1      21.249  -0.914   9.398  1.00  0.00     0.179 C 
BRANCH  10  11
HETATM   11  O2  UNL     1      20.743  -0.778   8.126  1.00  0.00    -0.391 OA
ATOM     12  H2  UNL     1      21.363  -0.848   7.410  1.00  0.00     0.210 HD
ENDBRANCH  10  11
BRANCH  10  13
HETATM   13  C6  UNL     1      20.374  -0.033  10.305  1.00  0.00     0.314 C 
BRANCH  13  14
HETATM   14  N4  UNL     1      19.681  -0.803  11.309  1.00  0.00     0.175 N 
HETATM   15  C7  UNL     1      20.202  -2.117  11.523  1.00  0.00     0.512 A 
HETATM   16  N5  UNL     1      20.674  -1.724  12.811  1.00  0.00     0.007 N 
HETATM   17  C8  UNL     1      20.104  -0.420  12.625  1.00  0.00     0.618 A 
ATOM     18  H52 UNL     1      20.428  -2.275  13.634  1.00  0.00     0.283 HD
ATOM     19  H51 UNL     1      21.663  -1.820  13.042  1.00  0.00     0.283 HD
BRANCH  17  20
HETATM   20  N6  UNL     1      19.001  -0.117  13.529  1.00  0.00    -0.023 N 
ATOM     21  H63 UNL     1      19.324  -0.095  14.497  1.00  0.00     0.279 HD
ATOM     22  H62 UNL     1      18.707   0.854  13.426  1.00  0.00     0.279 HD
ATOM     23  H61 UNL     1      18.206  -0.747  13.429  1.00  0.00     0.279 HD
ENDBRANCH  17  20
ENDBRANCH  13  14
ENDBRANCH  10  13
ENDBRANCH   3  10
BRANCH   2  24
HETATM   24  N1  UNL     1      23.441  -2.642  10.273  1.00  0.00    -0.397 NA
HETATM   25  C3  UNL     1      23.157  -3.791  10.980  1.00  0.00     0.282 C 
HETATM   26  N2  UNL     1      22.388  -4.845  10.395  1.00  0.00    -0.048 NA
HETATM   27  N3  UNL     1      23.569  -3.971  12.177  1.00  0.00    -0.230 N 
ATOM     28  H3  UNL     1      24.128  -3.251  12.636  1.00  0.00     0.198 HD
BRANCH  27  29
HETATM   29  O1  UNL     1      23.266  -5.123  12.844  1.00  0.00    -0.287 OA
ATOM     30  H1  UNL     1      23.695  -5.327  13.667  1.00  0.00     0.244 HD
ENDBRANCH  27  29
ENDBRANCH   2  24
TORSDOF 7
ENDMDL
MODEL 4
REMARK VINA RESULT: -6.790569236      2.253      4.937
REMARK  7 active torsions:
REMARK  status: ('A' for Active; 'I' for Inactive)
REMARK    1  A    between atoms: C2_2  and  N1_3 
REMARK       I    between atoms: N1_3  and  C3_4 
REMARK    2  A    between atoms: N3_6  and  O1_8 
REMARK    3  A    between atoms: C4_10  and  C5_11 
REMARK    4  A    between atoms: C5_11  and  O2_12 
REMARK    5  A    between atoms: C5_11  and  C6_14 
REMARK    6  A    between atoms: C6_14  and  N4_15 
REMARK    7  A    between atoms: C8_20  and  N6_21 
ROOT
HETATM    1  C1  UNL     1      20.239  -1.970   9.305  1.00  0.00     0.063 C 
HETATM    2  C2  UNL     1      21.466  -1.541  10.173  1.00  0.00     0.179 C 
HETATM    3  C4  UNL     1      22.412  -0.931   9.175  1.00  0.00     0.201 C 
HETATM    4  O3  UNL     1      21.955   0.245   8.601  1.00  0.00    -0.355 OA
HETATM    5  C9  UNL     1      21.184   1.019   9.427  1.00  0.00     0.342 C 
HETATM    6  O4  UNL     1      21.351   0.775  10.764  1.00  0.00    -0.325 OA
HETATM    7  C10 UNL     1      20.869  -0.481  11.094  1.00  0.00     0.229 A 
HETATM    8  C11 UNL     1      19.589  -0.585  11.704  1.00  0.00     0.244 A 
HETATM    9  O5  UNL     1      20.864  -0.776  12.469  1.00  0.00    -0.345 OA
ENDROOT
BRANCH   3  10
HETATM   10  C5  UNL     1      23.833  -0.804   9.578  1.00  0.00     0.179 C 
BRANCH  10  11
HETATM   11  O2  UNL     1      24.496   0.325   9.157  1.00  0.00    -0.391 OA
ATOM     12  H2  UNL     1      25.316   0.526   9.592  1.00  0.00     0.210 HD
ENDBRANCH  10  11
BRANCH  10  13
HETATM   13  C6  UNL     1      24.564  -1.995   8.937  1.00  0.00     0.314 C 
BRANCH  13  14
HETATM   14  N4  UNL     1      25.516  -1.577   7.938  1.00  0.00     0.175 N 
HETATM   15  C7  UNL     1      26.065  -2.636   7.151  1.00  0.00     0.512 A 
HETATM   16  N5  UNL     1      25.355  -2.160   6.008  1.00  0.00     0.007 N 
HETATM   17  C8  UNL     1      24.845  -1.062   6.779  1.00  0.00     0.618 A 
ATOM     18  H52 UNL     1      25.853  -1.982   5.136  1.00  0.00     0.283 HD
ATOM     19  H51 UNL     1      24.711  -2.779   5.514  1.00  0.00     0.283 HD
BRANCH  17  20
HETATM   20  N6  UNL     1      25.333   0.243   6.352  1.00  0.00    -0.023 N 
ATOM     21  H63 UNL     1      24.616   0.957   6.484  1.00  0.00     0.279 HD
ATOM     22  H62 UNL     1      26.041   0.592   6.997  1.00  0.00     0.279 HD
ATOM     23  H61 UNL     1      25.681   0.256   5.394  1.00  0.00     0.279 HD
ENDBRANCH  17  20
ENDBRANCH  13  14
ENDBRANCH  10  13
ENDBRANCH   3  10
BRANCH   2  24
HETATM   24  N1  UNL     1      21.922  -2.662  10.785  1.00  0.00    -0.397 NA
HETATM   25  C3  UNL     1      22.386  -3.800  11.408  1.00  0.00     0.282 C 
HETATM   26  N2  UNL     1      22.985  -4.859  10.656  1.00  0.00    -0.048 NA
HETATM   27  N3  UNL     1      22.312  -3.960  12.675  1.00  0.00    -0.230 N 
ATOM     28  H3  UNL     1      21.900  -3.230  13.255  1.00  0.00     0.198 HD
BRANCH  27  29
HETATM   29  O1  UNL     1      22.783  -5.104  13.253  1.00  0.00    -0.287 OA
ATOM     30  H1  UNL     1      23.648  -5.430  13.033  1.00  0.00     0.244 HD
ENDBRANCH  27  29
ENDBRANCH   2  24
TORSDOF 7
ENDMDL
MODEL 5
REMARK VINA RESULT: -6.136648282      2.181      3.370
REMARK  7 active torsions:
REMARK  status: ('A' for Active; 'I' for Inactive)
REMARK    1  A    between atoms: C2_2  and  N1_3 
REMARK       I    between atoms: N1_3  and  C3_4 
REMARK    2  A    between atoms: N3_6  and  O1_8 
REMARK    3  A    between atoms: C4_10  and  C5_11 
REMARK    4  A    between atoms: C5_11  and  O2_12 
REMARK    5  A    between atoms: C5_11  and  C6_14 
REMARK    6  A    between atoms: C6_14  and  N4_15 
REMARK    7  A    between atoms: C8_20  and  N6_21 
ROOT
HETATM    1  C1  UNL     1      23.130  -0.037  10.644  1.00  0.00     0.063 C 
HETATM    2  C2  UNL     1      21.896  -0.936  10.307  1.00  0.00     0.179 C 
HETATM    3  C4  UNL     1      21.357  -0.338   9.035  1.00  0.00     0.201 C 
HETATM    4  O3  UNL     1      22.200  -0.469   7.943  1.00  0.00    -0.355 OA
HETATM    5  C9  UNL     1      22.952  -1.614   7.937  1.00  0.00     0.342 C 
HETATM    6  O4  UNL     1      22.457  -2.629   8.712  1.00  0.00    -0.325 OA
HETATM    7  C10 UNL     1      22.534  -2.299  10.055  1.00  0.00     0.229 A 
HETATM    8  C11 UNL     1      23.595  -2.838  10.833  1.00  0.00     0.244 A 
HETATM    9  O5  UNL     1      22.182  -3.329  10.945  1.00  0.00    -0.345 OA
ENDROOT
BRANCH   3  10
HETATM   10  C5  UNL     1      19.961  -0.673   8.669  1.00  0.00     0.179 C 
BRANCH  10  11
HETATM   11  O2  UNL     1      19.741  -1.067   7.369  1.00  0.00    -0.391 OA
ATOM     12  H2  UNL     1      19.401  -0.409   6.774  1.00  0.00     0.210 HD
ENDBRANCH  10  11
BRANCH  10  13
HETATM   13  C6  UNL     1      19.149   0.617   8.869  1.00  0.00     0.314 C 
BRANCH  13  14
HETATM   14  N4  UNL     1      17.739   0.415   8.640  1.00  0.00     0.175 N 
HETATM   15  C7  UNL     1      16.900   1.484   9.083  1.00  0.00     0.512 A 
HETATM   16  N5  UNL     1      16.601   1.816   7.727  1.00  0.00     0.007 N 
HETATM   17  C8  UNL     1      17.398   0.709   7.278  1.00  0.00     0.618 A 
ATOM     18  H52 UNL     1      15.630   1.901   7.425  1.00  0.00     0.283 HD
ATOM     19  H51 UNL     1      16.792   2.756   7.379  1.00  0.00     0.283 HD
BRANCH  17  20
HETATM   20  N6  UNL     1      16.635  -0.348   6.625  1.00  0.00    -0.023 N 
ATOM     21  H63 UNL     1      16.824  -0.363   5.623  1.00  0.00     0.279 HD
ATOM     22  H62 UNL     1      16.999  -1.265   6.881  1.00  0.00     0.279 HD
ATOM     23  H61 UNL     1      15.632  -0.296   6.801  1.00  0.00     0.279 HD
ENDBRANCH  17  20
ENDBRANCH  13  14
ENDBRANCH  10  13
ENDBRANCH   3  10
BRANCH   2  24
HETATM   24  N1  UNL     1      21.061  -0.866  11.372  1.00  0.00    -0.397 NA
HETATM   25  C3  UNL     1      20.211  -0.796  12.455  1.00  0.00     0.282 C 
HETATM   26  N2  UNL     1      18.931  -0.167  12.348  1.00  0.00    -0.048 NA
HETATM   27  N3  UNL     1      20.518  -1.292  13.594  1.00  0.00    -0.230 N 
ATOM     28  H3  UNL     1      21.416  -1.758  13.718  1.00  0.00     0.198 HD
BRANCH  27  29
HETATM   29  O1  UNL     1      19.649  -1.201  14.642  1.00  0.00    -0.287 OA
ATOM     30  H1  UNL     1      19.337  -1.987  15.075  1.00  0.00     0.244 HD
ENDBRANCH  27  29
ENDBRANCH   2  24
TORSDOF 7
ENDMDL
