MODEL 1
REMARK VINA RESULT: -8.634952899      0.000      0.000
REMARK  7 active torsions:
REMARK  status: ('A' for Active; 'I' for Inactive)
REMARK    1  A    between atoms: C2_2  and  C3_3 
REMARK    2  A    between atoms: C3_3  and  N1_4 
REMARK    3  A    between atoms: N5_10  and  N6_12 
REMARK    4  A    between atoms: N6_12  and  C4_14 
REMARK    5  A    between atoms: C4_14  and  C5_18 
REMARK       I    between atoms: C5_18  and  N8_20 
REMARK    6  A    between atoms: N8_20  and  C6_22 
REMARK    7  A    between atoms: C9_31  and  N12_32 
ROOT
HETATM    1  C4  UNL     1      19.842   0.030  10.444  1.00  0.00     0.183 C 
HETATM    2  N7  UNL     1      20.028  -0.374  11.648  1.00  0.00    -0.380 N 
ATOM      3  H71 UNL     1      20.437  -1.298  11.794  1.00  0.00     0.158 HD
ATOM      4  H72 UNL     1      19.776   0.210  12.445  1.00  0.00     0.158 HD
ENDROOT
BRANCH   1   5
HETATM    5  N6  UNL     1      19.273   1.312  10.240  1.00  0.00    -0.281 N 
ATOM      6  H6  UNL     1      19.726   2.135  10.638  1.00  0.00     0.188 HD
BRANCH   5   7
HETATM    7  N5  UNL     1      18.102   1.458   9.502  1.00  0.00    -0.306 N 
HETATM    8  C2  UNL     1      17.668   2.572   9.064  1.00  0.00     0.021 C 
HETATM    9  C1  UNL     1      18.409   3.821   9.324  1.00  0.00     0.066 C 
ATOM     10  H5  UNL     1      17.557   0.620   9.298  1.00  0.00     0.186 HD
BRANCH   8  11
HETATM   11  C3  UNL     1      16.414   2.621   8.289  1.00  0.00     0.225 C 
BRANCH  11  12
HETATM   12  N1  UNL     1      16.409   1.474   7.398  1.00  0.00    -0.203 N 
HETATM   13  N2  UNL     1      16.493   1.295   6.098  1.00  0.00    -0.207 N 
HETATM   14  N3  UNL     1      16.401  -0.036   6.233  1.00  0.00     0.012 NA
ATOM     15  H2  UNL     1      16.591   1.921   5.300  1.00  0.00     0.207 HD
HETATM   16  N4  UNL     1      16.317   0.165   7.538  1.00  0.00    -0.207 N 
ATOM     17  H4  UNL     1      16.219  -0.453   8.344  1.00  0.00     0.207 HD
ENDBRANCH  11  12
ENDBRANCH   8  11
ENDBRANCH   5   7
ENDBRANCH   1   5
BRANCH   1  18
HETATM   18  C5  UNL     1      20.204  -0.811   9.297  1.00  0.00     0.292 C 
HETATM   19  O1  UNL     1      19.313  -1.463   8.719  1.00  0.00    -0.264 OA
HETATM   20  N8  UNL     1      21.531  -0.908   8.821  1.00  0.00    -0.304 N 
ATOM     21  H8  UNL     1      21.848  -0.329   8.044  1.00  0.00     0.171 HD
BRANCH  20  22
HETATM   22  C6  UNL     1      22.331  -1.737   9.385  1.00  0.00     0.142 A 
HETATM   23  N9  UNL     1      21.897  -2.529  10.381  1.00  0.00    -0.292 N 
HETATM   24  C7  UNL     1      22.779  -3.378  10.933  1.00  0.00     0.327 A 
ATOM     25  H9  UNL     1      20.931  -2.485  10.706  1.00  0.00     0.172 HD
HETATM   26  O2  UNL     1      22.390  -4.129  11.869  1.00  0.00    -0.247 OA
HETATM   27  N10 UNL     1      24.062  -3.471  10.540  1.00  0.00    -0.295 N 
HETATM   28  C8  UNL     1      24.534  -2.692   9.543  1.00  0.00     0.150 A 
ATOM     29  H10 UNL     1      24.683  -4.136  10.999  1.00  0.00     0.172 HD
HETATM   30  N11 UNL     1      25.880  -2.749   9.087  1.00  0.00    -0.080 NA
HETATM   31  C9  UNL     1      23.661  -1.806   8.948  1.00  0.00     0.116 A 
BRANCH  31  32
HETATM   32  N12 UNL     1      24.130  -0.988   7.912  1.00  0.00    -0.384 N 
HETATM   33  C10 UNL     1      24.258   0.456   8.141  1.00  0.00     0.149 C 
HETATM   34  C11 UNL     1      24.512  -1.460   6.596  1.00  0.00     0.149 C 
ENDBRANCH  31  32
ENDBRANCH  20  22
ENDBRANCH   1  18
TORSDOF 7
ENDMDL
MODEL 2
REMARK VINA RESULT: -8.410010379      2.224      3.503
REMARK  7 active torsions:
REMARK  status: ('A' for Active; 'I' for Inactive)
REMARK    1  A    between atoms: C2_2  and  C3_3 
REMARK    2  A    between atoms: C3_3  and  N1_4 
REMARK    3  A    between atoms: N5_10  and  N6_12 
REMARK    4  A    between atoms: N6_12  and  C4_14 
REMARK    5  A    between atoms: C4_14  and  C5_18 
REMARK       I    between atoms: C5_18  and  N8_20 
REMARK    6  A    between atoms: N8_20  and  C6_22 
REMARK    7  A    between atoms: C9_31  and  N12_32 
ROOT
HETATM    1  C4  UNL     1      20.220  -1.080   9.890  1.00  0.00     0.183 C 
HETATM    2  N7  UNL     1      20.327  -2.169  10.563  1.00  0.00    -0.380 N 
ATOM      3  H71 UNL     1      21.109  -2.266  11.211  1.00  0.00     0.158 HD
ATOM      4  H72 UNL     1      19.649  -2.922  10.457  1.00  0.00     0.158 HD
ENDROOT
BRANCH   1   5
HETATM    5  N6  UNL     1      19.134  -0.945   8.990  1.00  0.00    -0.281 N 
ATOM      6  H6  UNL     1      19.078  -1.549   8.170  1.00  0.00     0.188 HD
BRANCH   5   7
HETATM    7  N5  UNL     1      18.142   0.006   9.216  1.00  0.00    -0.306 N 
HETATM    8  C2  UNL     1      17.422   0.517   8.298  1.00  0.00     0.021 C 
HETATM    9  C1  UNL     1      17.602   0.116   6.891  1.00  0.00     0.066 C 
ATOM     10  H5  UNL     1      17.983   0.313  10.176  1.00  0.00     0.186 HD
BRANCH   8  11
HETATM   11  C3  UNL     1      16.395   1.519   8.641  1.00  0.00     0.225 C 
BRANCH  11  12
HETATM   12  N1  UNL     1      17.087   2.711   9.101  1.00  0.00    -0.203 N 
HETATM   13  N2  UNL     1      16.734   3.840   9.675  1.00  0.00    -0.207 N 
HETATM   14  N3  UNL     1      18.003   4.272   9.702  1.00  0.00     0.012 NA
ATOM     15  H2  UNL     1      15.844   4.232   9.980  1.00  0.00     0.207 HD
HETATM   16  N4  UNL     1      18.338   3.130   9.124  1.00  0.00    -0.207 N 
ATOM     17  H4  UNL     1      19.224   2.728   8.814  1.00  0.00     0.207 HD
ENDBRANCH  11  12
ENDBRANCH   8  11
ENDBRANCH   5   7
ENDBRANCH   1   5
BRANCH   1  18
HETATM   18  C5  UNL     1      21.197   0.004  10.042  1.00  0.00     0.292 C 
HETATM   19  O1  UNL     1      20.816   1.184   9.915  1.00  0.00    -0.264 OA
HETATM   20  N8  UNL     1      22.558  -0.241  10.330  1.00  0.00    -0.304 N 
ATOM     21  H8  UNL     1      22.901  -0.205  11.290  1.00  0.00     0.171 HD
BRANCH  20  22
HETATM   22  C6  UNL     1      23.356  -0.509   9.362  1.00  0.00     0.142 A 
HETATM   23  N9  UNL     1      23.489   0.346   8.335  1.00  0.00    -0.292 N 
HETATM   24  C7  UNL     1      24.339   0.013   7.350  1.00  0.00     0.327 A 
ATOM     25  H9  UNL     1      22.961   1.219   8.303  1.00  0.00     0.172 HD
HETATM   26  O2  UNL     1      24.478   0.804   6.377  1.00  0.00    -0.247 OA
HETATM   27  N10 UNL     1      25.056  -1.126   7.346  1.00  0.00    -0.295 N 
HETATM   28  C8  UNL     1      24.949  -2.010   8.361  1.00  0.00     0.150 A 
ATOM     29  H10 UNL     1      25.685  -1.323   6.568  1.00  0.00     0.172 HD
HETATM   30  N11 UNL     1      25.682  -3.227   8.408  1.00  0.00    -0.080 NA
HETATM   31  C9  UNL     1      24.087  -1.706   9.393  1.00  0.00     0.116 A 
BRANCH  31  32
HETATM   32  N12 UNL     1      23.960  -2.609  10.456  1.00  0.00    -0.384 N 
HETATM   33  C10 UNL     1      24.840  -2.471  11.622  1.00  0.00     0.149 C 
HETATM   34  C11 UNL     1      23.005  -3.699  10.503  1.00  0.00     0.149 C 
ENDBRANCH  31  32
ENDBRANCH  20  22
ENDBRANCH   1  18
TORSDOF 7
ENDMDL
MODEL 3
REMARK VINA RESULT: -8.261393528      1.570      2.737
REMARK  7 active torsions:
REMARK  status: ('A' for Active; 'I' for Inactive)
REMARK    1  A    between atoms: C2_2  and  C3_3 
REMARK    2  A    between atoms: C3_3  and  N1_4 
REMARK    3  A    between atoms: N5_10  and  N6_12 
REMARK    4  A    between atoms: N6_12  and  C4_14 
REMARK    5  A    between atoms: C4_14  and  C5_18 
REMARK       I    between atoms: C5_18  and  N8_20 
REMARK    6  A    between atoms: N8_20  and  C6_22 
REMARK    7  A    between atoms: C9_31  and  N12_32 
ROOT
HETATM    1  C4  UNL     1      19.564  -0.289  10.398  1.00  0.00     0.183 C 
HETATM    2  N7  UNL     1      18.882  -1.240   9.870  1.00  0.00    -0.380 N 
ATOM      3  H71 UNL     1      19.195  -2.200  10.009  1.00  0.00     0.158 HD
ATOM      4  H72 UNL     1      18.043  -1.045   9.323  1.00  0.00     0.158 HD
ENDROOT
BRANCH   1   5
HETATM    5  N6  UNL     1      19.129   1.046  10.204  1.00  0.00    -0.281 N 
ATOM      6  H6  UNL     1      19.633   1.813  10.649  1.00  0.00     0.188 HD
BRANCH   5   7
HETATM    7  N5  UNL     1      18.017   1.319   9.410  1.00  0.00    -0.306 N 
HETATM    8  C2  UNL     1      17.691   2.485   9.016  1.00  0.00     0.021 C 
HETATM    9  C1  UNL     1      18.502   3.659   9.391  1.00  0.00     0.066 C 
ATOM     10  H5  UNL     1      17.427   0.536   9.128  1.00  0.00     0.186 HD
BRANCH   8  11
HETATM   11  C3  UNL     1      16.493   2.670   8.176  1.00  0.00     0.225 C 
BRANCH  11  12
HETATM   12  N1  UNL     1      16.398   1.519   7.295  1.00  0.00    -0.203 N 
HETATM   13  N2  UNL     1      16.655   1.284   6.027  1.00  0.00    -0.207 N 
HETATM   14  N3  UNL     1      16.270   0.004   6.143  1.00  0.00     0.012 NA
ATOM     15  H2  UNL     1      17.009   1.851   5.258  1.00  0.00     0.207 HD
HETATM   16  N4  UNL     1      16.017   0.261   7.416  1.00  0.00    -0.207 N 
ATOM     17  H4  UNL     1      15.663  -0.297   8.193  1.00  0.00     0.207 HD
ENDBRANCH  11  12
ENDBRANCH   8  11
ENDBRANCH   5   7
ENDBRANCH   1   5
BRANCH   1  18
HETATM   18  C5  UNL     1      20.771  -0.568  11.184  1.00  0.00     0.292 C 
HETATM   19  O1  UNL     1      21.027   0.145  12.174  1.00  0.00    -0.264 OA
HETATM   20  N8  UNL     1      21.656  -1.621  10.861  1.00  0.00    -0.304 N 
ATOM     21  H8  UNL     1      21.576  -2.527  11.322  1.00  0.00     0.171 HD
BRANCH  20  22
HETATM   22  C6  UNL     1      22.563  -1.417   9.976  1.00  0.00     0.142 A 
HETATM   23  N9  UNL     1      22.518  -0.321   9.199  1.00  0.00    -0.292 N 
HETATM   24  C7  UNL     1      23.494  -0.160   8.291  1.00  0.00     0.327 A 
ATOM     25  H9  UNL     1      21.769   0.364   9.296  1.00  0.00     0.172 HD
HETATM   26  O2  UNL     1      23.470   0.863   7.552  1.00  0.00    -0.247 OA
HETATM   27  N10 UNL     1      24.502  -1.035   8.125  1.00  0.00    -0.295 N 
HETATM   28  C8  UNL     1      24.581  -2.147   8.887  1.00  0.00     0.150 A 
ATOM     29  H10 UNL     1      25.214  -0.857   7.417  1.00  0.00     0.172 HD
HETATM   30  N11 UNL     1      25.623  -3.105   8.755  1.00  0.00    -0.080 NA
HETATM   31  C9  UNL     1      23.598  -2.351   9.833  1.00  0.00     0.116 A 
BRANCH  31  32
HETATM   32  N12 UNL     1      23.659  -3.499  10.634  1.00  0.00    -0.384 N 
HETATM   33  C10 UNL     1      24.692  -3.594  11.673  1.00  0.00     0.149 C 
HETATM   34  C11 UNL     1      22.762  -4.632  10.521  1.00  0.00     0.149 C 
ENDBRANCH  31  32
ENDBRANCH  20  22
ENDBRANCH   1  18
TORSDOF 7
ENDMDL
MODEL 4
REMARK VINA RESULT: -8.195587196      1.920      3.106
REMARK  7 active torsions:
REMARK  status: ('A' for Active; 'I' for Inactive)
REMARK    1  A    between atoms: C2_2  and  C3_3 
REMARK    2  A    between atoms: C3_3  and  N1_4 
REMARK    3  A    between atoms: N5_10  and  N6_12 
REMARK    4  A    between atoms: N6_12  and  C4_14 
REMARK    5  A    between atoms: C4_14  and  C5_18 
REMARK       I    between atoms: C5_18  and  N8_20 
REMARK    6  A    between atoms: N8_20  and  C6_22 
REMARK    7  A    between atoms: C9_31  and  N12_32 
ROOT
HETATM    1  C4  UNL     1      19.926  -0.490   9.092  1.00  0.00     0.183 C 
HETATM    2  N7  UNL     1      20.090  -1.156   8.006  1.00  0.00    -0.380 N 
ATOM      3  H71 UNL     1      21.027  -1.218   7.609  1.00  0.00     0.158 HD
ATOM      4  H72 UNL     1      19.304  -1.616   7.548  1.00  0.00     0.158 HD
ENDROOT
BRANCH   1   5
HETATM    5  N6  UNL     1      18.624  -0.403   9.644  1.00  0.00    -0.281 N 
ATOM      6  H6  UNL     1      18.499  -0.452  10.655  1.00  0.00     0.188 HD
BRANCH   5   7
HETATM    7  N5  UNL     1      17.514  -0.253   8.817  1.00  0.00    -0.306 N 
HETATM    8  C2  UNL     1      17.022   0.873   8.482  1.00  0.00     0.021 C 
HETATM    9  C1  UNL     1      17.621   2.130   8.969  1.00  0.00     0.066 C 
ATOM     10  H5  UNL     1      17.068  -1.096   8.457  1.00  0.00     0.186 HD
BRANCH   8  11
HETATM   11  C3  UNL     1      15.842   0.927   7.599  1.00  0.00     0.225 C 
BRANCH  11  12
HETATM   12  N1  UNL     1      16.293   1.390   6.298  1.00  0.00    -0.203 N 
HETATM   13  N2  UNL     1      15.924   2.330   5.456  1.00  0.00    -0.207 N 
HETATM   14  N3  UNL     1      16.891   1.993   4.589  1.00  0.00     0.012 NA
ATOM     15  H2  UNL     1      15.191   3.038   5.459  1.00  0.00     0.207 HD
HETATM   16  N4  UNL     1      17.246   1.052   5.450  1.00  0.00    -0.207 N 
ATOM     17  H4  UNL     1      17.977   0.340   5.456  1.00  0.00     0.207 HD
ENDBRANCH  11  12
ENDBRANCH   8  11
ENDBRANCH   5   7
ENDBRANCH   1   5
BRANCH   1  18
HETATM   18  C5  UNL     1      21.057   0.173   9.752  1.00  0.00     0.292 C 
HETATM   19  O1  UNL     1      20.981   1.390  10.007  1.00  0.00    -0.264 OA
HETATM   20  N8  UNL     1      22.234  -0.522  10.112  1.00  0.00    -0.304 N 
ATOM     21  H8  UNL     1      22.354  -0.885  11.057  1.00  0.00     0.171 HD
BRANCH  20  22
HETATM   22  C6  UNL     1      23.149  -0.688   9.228  1.00  0.00     0.142 A 
HETATM   23  N9  UNL     1      23.330   0.226   8.260  1.00  0.00    -0.292 N 
HETATM   24  C7  UNL     1      24.304  -0.000   7.362  1.00  0.00     0.327 A 
ATOM     25  H9  UNL     1      22.749   1.062   8.208  1.00  0.00     0.172 HD
HETATM   26  O2  UNL     1      24.490   0.847   6.445  1.00  0.00    -0.247 OA
HETATM   27  N10 UNL     1      25.095  -1.088   7.388  1.00  0.00    -0.295 N 
HETATM   28  C8  UNL     1      24.942  -2.028   8.345  1.00  0.00     0.150 A 
ATOM     29  H10 UNL     1      25.817  -1.203   6.677  1.00  0.00     0.172 HD
HETATM   30  N11 UNL     1      25.750  -3.195   8.420  1.00  0.00    -0.080 NA
HETATM   31  C9  UNL     1      23.954  -1.834   9.287  1.00  0.00     0.116 A 
BRANCH  31  32
HETATM   32  N12 UNL     1      23.778  -2.797  10.290  1.00  0.00    -0.384 N 
HETATM   33  C10 UNL     1      24.733  -2.858  11.402  1.00  0.00     0.149 C 
HETATM   34  C11 UNL     1      22.699  -3.766  10.322  1.00  0.00     0.149 C 
ENDBRANCH  31  32
ENDBRANCH  20  22
ENDBRANCH   1  18
TORSDOF 7
ENDMDL
MODEL 5
REMARK VINA RESULT: -8.171642779      1.618      2.186
REMARK  7 active torsions:
REMARK  status: ('A' for Active; 'I' for Inactive)
REMARK    1  A    between atoms: C2_2  and  C3_3 
REMARK    2  A    between atoms: C3_3  and  N1_4 
REMARK    3  A    between atoms: N5_10  and  N6_12 
REMARK    4  A    between atoms: N6_12  and  C4_14 
REMARK    5  A    between atoms: C4_14  and  C5_18 
REMARK       I    between atoms: C5_18  and  N8_20 
REMARK    6  A    between atoms: N8_20  and  C6_22 
REMARK    7  A    between atoms: C9_31  and  N12_32 
ROOT
HETATM    1  C4  UNL     1      19.407  -1.126   9.834  1.00  0.00     0.183 C 
HETATM    2  N7  UNL     1      19.399  -1.437  11.080  1.00  0.00    -0.380 N 
ATOM      3  H71 UNL     1      20.278  -1.401  11.596  1.00  0.00     0.158 HD
ATOM      4  H72 UNL     1      18.536  -1.712  11.548  1.00  0.00     0.158 HD
ENDROOT
BRANCH   1   5
HETATM    5  N6  UNL     1      18.186  -1.175   9.116  1.00  0.00    -0.281 N 
ATOM      6  H6  UNL     1      17.945  -2.010   8.583  1.00  0.00     0.188 HD
BRANCH   5   7
HETATM    7  N5  UNL     1      17.312  -0.090   9.133  1.00  0.00    -0.306 N 
HETATM    8  C2  UNL     1      16.920   0.525   8.089  1.00  0.00     0.021 C 
HETATM    9  C1  UNL     1      17.386   0.111   6.753  1.00  0.00     0.066 C 
ATOM     10  H5  UNL     1      16.964   0.230  10.037  1.00  0.00     0.186 HD
BRANCH   8  11
HETATM   11  C3  UNL     1      15.991   1.664   8.213  1.00  0.00     0.225 C 
BRANCH  11  12
HETATM   12  N1  UNL     1      16.704   2.737   8.885  1.00  0.00    -0.203 N 
HETATM   13  N2  UNL     1      16.383   3.698   9.722  1.00  0.00    -0.207 N 
HETATM   14  N3  UNL     1      17.647   4.142   9.764  1.00  0.00     0.012 NA
ATOM     15  H2  UNL     1      15.513   3.991  10.166  1.00  0.00     0.207 HD
HETATM   16  N4  UNL     1      17.951   3.168   8.921  1.00  0.00    -0.207 N 
ATOM     17  H4  UNL     1      18.815   2.867   8.472  1.00  0.00     0.207 HD
ENDBRANCH  11  12
ENDBRANCH   8  11
ENDBRANCH   5   7
ENDBRANCH   1   5
BRANCH   1  18
HETATM   18  C5  UNL     1      20.648  -0.729   9.159  1.00  0.00     0.292 C 
HETATM   19  O1  UNL     1      20.640  -0.565   7.924  1.00  0.00    -0.264 OA
HETATM   20  N8  UNL     1      21.857  -0.525   9.862  1.00  0.00    -0.304 N 
ATOM     21  H8  UNL     1      22.135   0.412  10.155  1.00  0.00     0.171 HD
BRANCH  20  22
HETATM   22  C6  UNL     1      22.598  -1.538  10.125  1.00  0.00     0.142 A 
HETATM   23  N9  UNL     1      22.260  -2.389  11.108  1.00  0.00    -0.292 N 
HETATM   24  C7  UNL     1      23.074  -3.433  11.338  1.00  0.00     0.327 A 
ATOM     25  H9  UNL     1      21.415  -2.248  11.660  1.00  0.00     0.172 HD
HETATM   26  O2  UNL     1      22.773  -4.244  12.257  1.00  0.00    -0.247 OA
HETATM   27  N10 UNL     1      24.200  -3.661  10.637  1.00  0.00    -0.295 N 
HETATM   28  C8  UNL     1      24.572  -2.827   9.642  1.00  0.00     0.150 A 
ATOM     29  H10 UNL     1      24.777  -4.471  10.860  1.00  0.00     0.172 HD
HETATM   30  N11 UNL     1      25.751  -3.021   8.870  1.00  0.00    -0.080 NA
HETATM   31  C9  UNL     1      23.764  -1.744   9.373  1.00  0.00     0.116 A 
BRANCH  31  32
HETATM   32  N12 UNL     1      24.132  -0.865   8.345  1.00  0.00    -0.384 N 
HETATM   33  C10 UNL     1      24.363   0.550   8.661  1.00  0.00     0.149 C 
HETATM   34  C11 UNL     1      24.309  -1.246   6.958  1.00  0.00     0.149 C 
ENDBRANCH  31  32
ENDBRANCH  20  22
ENDBRANCH   1  18
TORSDOF 7
ENDMDL
