MODEL 1
REMARK VINA RESULT: -9.617854619      0.000      0.000
REMARK  6 active torsions:
REMARK  status: ('A' for Active; 'I' for Inactive)
REMARK       I    between atoms: C1_2  and  N2_4 
REMARK    1  A    between atoms: N2_4  and  N3_6 
REMARK    2  A    between atoms: N3_6  and  C2_8 
REMARK    3  A    between atoms: C3_15  and  N7_16 
REMARK    4  A    between atoms: N7_16  and  N8_18 
REMARK    5  A    between atoms: N8_18  and  S1_20 
REMARK    6  A    between atoms: S1_20  and  C4_23 
ROOT
HETATM    1  C2  UNL     1       9.171  -1.497   5.410  1.00  0.00     0.262 A 
HETATM    2  N4  UNL     1       9.946  -2.056   6.307  1.00  0.00    -0.249 N 
ATOM      3  H4  UNL     1       9.670  -2.910   6.792  1.00  0.00     0.192 HD
HETATM    4  N5  UNL     1      11.164  -1.432   6.569  1.00  0.00    -0.236 N 
ATOM      5  H5  UNL     1      11.797  -1.834   7.260  1.00  0.00     0.208 HD
HETATM    6  N6  UNL     1      11.523  -0.275   5.904  1.00  0.00    -0.249 N 
ATOM      7  H6  UNL     1      12.424   0.150   6.125  1.00  0.00     0.192 HD
HETATM    8  C3  UNL     1      10.771   0.304   5.008  1.00  0.00     0.263 A 
HETATM    9  O4  UNL     1       9.565  -0.340   4.767  1.00  0.00    -0.242 OA
ENDROOT
BRANCH   8  10
HETATM   10  N7  UNL     1      11.163   1.485   4.344  1.00  0.00    -0.254 N 
ATOM     11  H7  UNL     1      12.166   1.635   4.238  1.00  0.00     0.191 HD
BRANCH  10  12
HETATM   12  N8  UNL     1      10.345   2.454   3.826  1.00  0.00    -0.219 N 
ATOM     13  H8  UNL     1       9.859   3.117   4.429  1.00  0.00     0.200 HD
BRANCH  12  14
HETATM   14  S1  UNL     1      10.176   2.503   2.138  1.00  0.00     0.291 S 
HETATM   15  O2  UNL     1       9.710   1.189   1.643  1.00  0.00    -0.197 OA
HETATM   16  O3  UNL     1      11.566   2.711   1.561  1.00  0.00    -0.197 OA
BRANCH  14  17
HETATM   17  C4  UNL     1       9.201   3.819   1.580  1.00  0.00     0.150 A 
HETATM   18  C5  UNL     1       9.328   4.267   0.282  1.00  0.00     0.047 A 
HETATM   19  C6  UNL     1       8.532   5.340  -0.107  1.00  0.00     0.046 A 
HETATM   20  C7  UNL     1       7.648   5.933   0.772  1.00  0.00     0.131 A 
HETATM   21  F1  UNL     1       6.883   6.984   0.353  1.00  0.00    -0.205 F 
HETATM   22  C8  UNL     1       7.566   5.441   2.053  1.00  0.00     0.131 A 
HETATM   23  N9  UNL     1       8.340   4.403   2.423  1.00  0.00    -0.352 N 
ATOM     24  H9  UNL     1       8.267   4.050   3.378  1.00  0.00     0.166 HD
ENDBRANCH  14  17
ENDBRANCH  12  14
ENDBRANCH  10  12
ENDBRANCH   8  10
BRANCH   1  25
HETATM   25  N3  UNL     1       7.924  -2.121   5.130  1.00  0.00    -0.260 N 
ATOM     26  H3  UNL     1       7.835  -2.675   4.278  1.00  0.00     0.190 HD
BRANCH  25  27
HETATM   27  N2  UNL     1       6.818  -2.008   5.971  1.00  0.00    -0.251 N 
HETATM   28  C1  UNL     1       5.624  -1.385   5.553  1.00  0.00     0.347 C 
HETATM   29  N1  UNL     1       4.535  -1.295   6.443  1.00  0.00    -0.038 NA
HETATM   30  O1  UNL     1       5.559  -0.922   4.389  1.00  0.00    -0.249 OA
ATOM     31  H2  UNL     1       6.875  -2.388   6.916  1.00  0.00     0.191 HD
ENDBRANCH  25  27
ENDBRANCH   1  25
TORSDOF 6
ENDMDL
MODEL 2
REMARK VINA RESULT: -9.525284786      1.439      1.711
REMARK  6 active torsions:
REMARK  status: ('A' for Active; 'I' for Inactive)
REMARK       I    between atoms: C1_2  and  N2_4 
REMARK    1  A    between atoms: N2_4  and  N3_6 
REMARK    2  A    between atoms: N3_6  and  C2_8 
REMARK    3  A    between atoms: C3_15  and  N7_16 
REMARK    4  A    between atoms: N7_16  and  N8_18 
REMARK    5  A    between atoms: N8_18  and  S1_20 
REMARK    6  A    between atoms: S1_20  and  C4_23 
ROOT
HETATM    1  C2  UNL     1       9.220  -1.680   5.613  1.00  0.00     0.262 A 
HETATM    2  N4  UNL     1      10.168  -2.223   6.338  1.00  0.00    -0.249 N 
ATOM      3  H4  UNL     1      10.049  -3.140   6.769  1.00  0.00     0.192 HD
HETATM    4  N5  UNL     1      11.343  -1.492   6.494  1.00  0.00    -0.236 N 
ATOM      5  H5  UNL     1      12.106  -1.878   7.051  1.00  0.00     0.208 HD
HETATM    6  N6  UNL     1      11.488  -0.251   5.904  1.00  0.00    -0.249 N 
ATOM      7  H6  UNL     1      12.365   0.251   6.043  1.00  0.00     0.192 HD
HETATM    8  C3  UNL     1      10.562   0.314   5.179  1.00  0.00     0.263 A 
HETATM    9  O4  UNL     1       9.403  -0.436   5.040  1.00  0.00    -0.242 OA
ENDROOT
BRANCH   8  10
HETATM   10  N7  UNL     1      10.737   1.583   4.588  1.00  0.00    -0.254 N 
ATOM     11  H7  UNL     1      10.861   2.368   5.227  1.00  0.00     0.191 HD
BRANCH  10  12
HETATM   12  N8  UNL     1      10.758   1.878   3.251  1.00  0.00    -0.219 N 
ATOM     13  H8  UNL     1      11.635   2.041   2.756  1.00  0.00     0.200 HD
BRANCH  12  14
HETATM   14  S1  UNL     1       9.264   1.958   2.451  1.00  0.00     0.291 S 
HETATM   15  O2  UNL     1       8.205   2.352   3.408  1.00  0.00    -0.197 OA
HETATM   16  O3  UNL     1       8.929   0.548   1.997  1.00  0.00    -0.197 OA
BRANCH  14  17
HETATM   17  C4  UNL     1       9.293   2.947   1.032  1.00  0.00     0.150 A 
HETATM   18  C5  UNL     1       9.385   2.360  -0.214  1.00  0.00     0.047 A 
HETATM   19  C6  UNL     1       9.423   3.204  -1.319  1.00  0.00     0.046 A 
HETATM   20  C7  UNL     1       9.368   4.575  -1.176  1.00  0.00     0.131 A 
HETATM   21  F1  UNL     1       9.408   5.372  -2.286  1.00  0.00    -0.205 F 
HETATM   22  C8  UNL     1       9.275   5.102   0.091  1.00  0.00     0.131 A 
HETATM   23  N9  UNL     1       9.240   4.279   1.156  1.00  0.00    -0.352 N 
ATOM     24  H9  UNL     1       9.171   4.685   2.090  1.00  0.00     0.166 HD
ENDBRANCH  14  17
ENDBRANCH  12  14
ENDBRANCH  10  12
ENDBRANCH   8  10
BRANCH   1  25
HETATM   25  N3  UNL     1       8.013  -2.413   5.442  1.00  0.00    -0.260 N 
ATOM     26  H3  UNL     1       7.983  -3.147   4.735  1.00  0.00     0.190 HD
BRANCH  25  27
HETATM   27  N2  UNL     1       6.870  -2.169   6.200  1.00  0.00    -0.251 N 
HETATM   28  C1  UNL     1       5.766  -1.460   5.681  1.00  0.00     0.347 C 
HETATM   29  N1  UNL     1       4.634  -1.239   6.490  1.00  0.00    -0.038 NA
HETATM   30  O1  UNL     1       5.821  -1.041   4.500  1.00  0.00    -0.249 OA
ATOM     31  H2  UNL     1       6.830  -2.514   7.160  1.00  0.00     0.191 HD
ENDBRANCH  25  27
ENDBRANCH   1  25
TORSDOF 6
ENDMDL
MODEL 3
REMARK VINA RESULT: -9.376565183      1.758      2.054
REMARK  6 active torsions:
REMARK  status: ('A' for Active; 'I' for Inactive)
REMARK       I    between atoms: C1_2  and  N2_4 
REMARK    1  A    between atoms: N2_4  and  N3_6 
REMARK    2  A    between atoms: N3_6  and  C2_8 
REMARK    3  A    between atoms: C3_15  and  N7_16 
REMARK    4  A    between atoms: N7_16  and  N8_18 
REMARK    5  A    between atoms: N8_18  and  S1_20 
REMARK    6  A    between atoms: S1_20  and  C4_23 
ROOT
HETATM    1  C2  UNL     1       9.463  -1.776   5.927  1.00  0.00     0.262 A 
HETATM    2  N4  UNL     1      10.483  -2.233   6.613  1.00  0.00    -0.249 N 
ATOM      3  H4  UNL     1      10.441  -3.130   7.097  1.00  0.00     0.192 HD
HETATM    4  N5  UNL     1      11.627  -1.439   6.651  1.00  0.00    -0.236 N 
ATOM      5  H5  UNL     1      12.443  -1.756   7.173  1.00  0.00     0.208 HD
HETATM    6  N6  UNL     1      11.668  -0.225   5.990  1.00  0.00    -0.249 N 
ATOM      7  H6  UNL     1      12.525   0.325   6.043  1.00  0.00     0.192 HD
HETATM    8  C3  UNL     1      10.668   0.254   5.302  1.00  0.00     0.263 A 
HETATM    9  O4  UNL     1       9.543  -0.558   5.281  1.00  0.00    -0.242 OA
ENDROOT
BRANCH   8  10
HETATM   10  N7  UNL     1      10.738   1.496   4.637  1.00  0.00    -0.254 N 
ATOM     11  H7  UNL     1      10.768   2.327   5.228  1.00  0.00     0.191 HD
BRANCH  10  12
HETATM   12  N8  UNL     1      10.768   1.710   3.285  1.00  0.00    -0.219 N 
ATOM     13  H8  UNL     1      11.650   1.796   2.780  1.00  0.00     0.200 HD
BRANCH  12  14
HETATM   14  S1  UNL     1       9.276   1.827   2.485  1.00  0.00     0.291 S 
HETATM   15  O2  UNL     1       8.216   2.185   3.453  1.00  0.00    -0.197 OA
HETATM   16  O3  UNL     1       8.939   0.437   1.974  1.00  0.00    -0.197 OA
BRANCH  14  17
HETATM   17  C4  UNL     1       9.312   2.871   1.106  1.00  0.00     0.150 A 
HETATM   18  C5  UNL     1       9.254   4.239   1.277  1.00  0.00     0.047 A 
HETATM   19  C6  UNL     1       9.268   5.029   0.133  1.00  0.00     0.046 A 
HETATM   20  C7  UNL     1       9.338   4.468  -1.126  1.00  0.00     0.131 A 
HETATM   21  F1  UNL     1       9.350   5.277  -2.227  1.00  0.00    -0.205 F 
HETATM   22  C8  UNL     1       9.395   3.098  -1.233  1.00  0.00     0.131 A 
HETATM   23  N9  UNL     1       9.380   2.339  -0.122  1.00  0.00    -0.352 N 
ATOM     24  H9  UNL     1       9.422   1.324  -0.217  1.00  0.00     0.166 HD
ENDBRANCH  14  17
ENDBRANCH  12  14
ENDBRANCH  10  12
ENDBRANCH   8  10
BRANCH   1  25
HETATM   25  N3  UNL     1       8.287  -2.574   5.877  1.00  0.00    -0.260 N 
ATOM     26  H3  UNL     1       8.370  -3.578   6.040  1.00  0.00     0.190 HD
BRANCH  25  27
HETATM   27  N2  UNL     1       7.026  -2.043   5.614  1.00  0.00    -0.251 N 
HETATM   28  C1  UNL     1       6.536  -1.898   4.300  1.00  0.00     0.347 C 
HETATM   29  N1  UNL     1       5.254  -1.353   4.088  1.00  0.00    -0.038 NA
HETATM   30  O1  UNL     1       7.261  -2.261   3.342  1.00  0.00    -0.249 OA
ATOM     31  H2  UNL     1       6.439  -1.751   6.397  1.00  0.00     0.191 HD
ENDBRANCH  25  27
ENDBRANCH   1  25
TORSDOF 6
ENDMDL
MODEL 4
REMARK VINA RESULT: -9.275663645      1.669      2.033
REMARK  6 active torsions:
REMARK  status: ('A' for Active; 'I' for Inactive)
REMARK       I    between atoms: C1_2  and  N2_4 
REMARK    1  A    between atoms: N2_4  and  N3_6 
REMARK    2  A    between atoms: N3_6  and  C2_8 
REMARK    3  A    between atoms: C3_15  and  N7_16 
REMARK    4  A    between atoms: N7_16  and  N8_18 
REMARK    5  A    between atoms: N8_18  and  S1_20 
REMARK    6  A    between atoms: S1_20  and  C4_23 
ROOT
HETATM    1  C2  UNL     1       9.573  -1.333   5.842  1.00  0.00     0.262 A 
HETATM    2  N4  UNL     1      10.577  -1.674   6.613  1.00  0.00    -0.249 N 
ATOM      3  H4  UNL     1      10.509  -2.461   7.259  1.00  0.00     0.192 HD
HETATM    4  N5  UNL     1      11.740  -0.915   6.511  1.00  0.00    -0.236 N 
ATOM      5  H5  UNL     1      12.545  -1.146   7.093  1.00  0.00     0.208 HD
HETATM    6  N6  UNL     1      11.815   0.148   5.631  1.00  0.00    -0.249 N 
ATOM      7  H6  UNL     1      12.686   0.678   5.587  1.00  0.00     0.192 HD
HETATM    8  C3  UNL     1      10.833   0.510   4.853  1.00  0.00     0.263 A 
HETATM    9  O4  UNL     1       9.687  -0.264   4.975  1.00  0.00    -0.242 OA
ENDROOT
BRANCH   8  10
HETATM   10  N7  UNL     1      10.937   1.600   3.963  1.00  0.00    -0.254 N 
ATOM     11  H7  UNL     1      11.688   1.552   3.273  1.00  0.00     0.191 HD
BRANCH  10  12
HETATM   12  N8  UNL     1      10.143   2.714   3.921  1.00  0.00    -0.219 N 
ATOM     13  H8  UNL     1      10.362   3.543   4.473  1.00  0.00     0.200 HD
BRANCH  12  14
HETATM   14  S1  UNL     1       8.780   2.657   2.912  1.00  0.00     0.291 S 
HETATM   15  O2  UNL     1       7.590   3.134   3.651  1.00  0.00    -0.197 OA
HETATM   16  O3  UNL     1       8.529   1.194   2.592  1.00  0.00    -0.197 OA
BRANCH  14  17
HETATM   17  C4  UNL     1       9.006   3.468   1.401  1.00  0.00     0.150 A 
HETATM   18  C5  UNL     1       8.627   4.788   1.264  1.00  0.00     0.047 A 
HETATM   19  C6  UNL     1       8.815   5.383   0.022  1.00  0.00     0.046 A 
HETATM   20  C7  UNL     1       9.361   4.683  -1.035  1.00  0.00     0.131 A 
HETATM   21  F1  UNL     1       9.531   5.303  -2.240  1.00  0.00    -0.205 F 
HETATM   22  C8  UNL     1       9.721   3.371  -0.837  1.00  0.00     0.131 A 
HETATM   23  N9  UNL     1       9.536   2.800   0.368  1.00  0.00    -0.352 N 
ATOM     24  H9  UNL     1       9.807   1.825   0.499  1.00  0.00     0.166 HD
ENDBRANCH  14  17
ENDBRANCH  12  14
ENDBRANCH  10  12
ENDBRANCH   8  10
BRANCH   1  25
HETATM   25  N3  UNL     1       8.377  -2.099   5.932  1.00  0.00    -0.260 N 
ATOM     26  H3  UNL     1       8.447  -3.116   5.931  1.00  0.00     0.190 HD
BRANCH  25  27
HETATM   27  N2  UNL     1       7.114  -1.517   6.022  1.00  0.00    -0.251 N 
HETATM   28  C1  UNL     1       5.947  -2.289   6.198  1.00  0.00     0.347 C 
HETATM   29  N1  UNL     1       4.693  -1.651   6.281  1.00  0.00    -0.038 NA
HETATM   30  O1  UNL     1       6.055  -3.536   6.276  1.00  0.00    -0.249 OA
ATOM     31  H2  UNL     1       7.032  -0.501   5.960  1.00  0.00     0.191 HD
ENDBRANCH  25  27
ENDBRANCH   1  25
TORSDOF 6
ENDMDL
MODEL 5
REMARK VINA RESULT: -9.226624736      1.389      1.557
REMARK  6 active torsions:
REMARK  status: ('A' for Active; 'I' for Inactive)
REMARK       I    between atoms: C1_2  and  N2_4 
REMARK    1  A    between atoms: N2_4  and  N3_6 
REMARK    2  A    between atoms: N3_6  and  C2_8 
REMARK    3  A    between atoms: C3_15  and  N7_16 
REMARK    4  A    between atoms: N7_16  and  N8_18 
REMARK    5  A    between atoms: N8_18  and  S1_20 
REMARK    6  A    between atoms: S1_20  and  C4_23 
ROOT
HETATM    1  C2  UNL     1       7.737  -0.947   4.596  1.00  0.00     0.262 A 
HETATM    2  N4  UNL     1       8.516  -1.995   4.476  1.00  0.00    -0.249 N 
ATOM      3  H4  UNL     1       8.134  -2.939   4.429  1.00  0.00     0.192 HD
HETATM    4  N5  UNL     1       9.887  -1.760   4.414  1.00  0.00    -0.236 N 
ATOM      5  H5  UNL     1      10.529  -2.547   4.320  1.00  0.00     0.208 HD
HETATM    6  N6  UNL     1      10.388  -0.473   4.479  1.00  0.00    -0.249 N 
ATOM      7  H6  UNL     1      11.399  -0.346   4.430  1.00  0.00     0.192 HD
HETATM    8  C3  UNL     1       9.637   0.587   4.600  1.00  0.00     0.263 A 
HETATM    9  O4  UNL     1       8.276   0.323   4.658  1.00  0.00    -0.242 OA
ENDROOT
BRANCH   8  10
HETATM   10  N7  UNL     1      10.176   1.889   4.664  1.00  0.00    -0.254 N 
ATOM     11  H7  UNL     1       9.886   2.462   5.457  1.00  0.00     0.191 HD
BRANCH  10  12
HETATM   12  N8  UNL     1      11.045   2.470   3.780  1.00  0.00    -0.219 N 
ATOM     13  H8  UNL     1      11.908   2.913   4.095  1.00  0.00     0.200 HD
BRANCH  12  14
HETATM   14  S1  UNL     1      10.626   2.421   2.136  1.00  0.00     0.291 S 
HETATM   15  O2  UNL     1      10.100   1.080   1.794  1.00  0.00    -0.197 OA
HETATM   16  O3  UNL     1      11.912   2.592   1.347  1.00  0.00    -0.197 OA
BRANCH  14  17
HETATM   17  C4  UNL     1       9.570   3.703   1.655  1.00  0.00     0.150 A 
HETATM   18  C5  UNL     1       9.685   4.254   0.395  1.00  0.00     0.047 A 
HETATM   19  C6  UNL     1       8.822   5.294   0.069  1.00  0.00     0.046 A 
HETATM   20  C7  UNL     1       7.885   5.759   0.969  1.00  0.00     0.131 A 
HETATM   21  F1  UNL     1       7.054   6.783   0.611  1.00  0.00    -0.205 F 
HETATM   22  C8  UNL     1       7.817   5.169   2.209  1.00  0.00     0.131 A 
HETATM   23  N9  UNL     1       8.656   4.163   2.519  1.00  0.00    -0.352 N 
ATOM     24  H9  UNL     1       8.593   3.736   3.444  1.00  0.00     0.166 HD
ENDBRANCH  14  17
ENDBRANCH  12  14
ENDBRANCH  10  12
ENDBRANCH   8  10
BRANCH   1  25
HETATM   25  N3  UNL     1       6.333  -1.168   4.659  1.00  0.00    -0.260 N 
ATOM     26  H3  UNL     1       5.706  -0.391   4.453  1.00  0.00     0.190 HD
BRANCH  25  27
HETATM   27  N2  UNL     1       5.778  -2.403   4.991  1.00  0.00    -0.251 N 
HETATM   28  C1  UNL     1       6.110  -3.072   6.187  1.00  0.00     0.347 C 
HETATM   29  N1  UNL     1       5.523  -4.321   6.475  1.00  0.00    -0.038 NA
HETATM   30  O1  UNL     1       6.927  -2.536   6.973  1.00  0.00    -0.249 OA
ATOM     31  H2  UNL     1       5.113  -2.834   4.349  1.00  0.00     0.191 HD
ENDBRANCH  25  27
ENDBRANCH   1  25
TORSDOF 6
ENDMDL
