MODEL 1
REMARK VINA RESULT: -8.228706811      0.000      0.000
REMARK  8 active torsions:
REMARK  status: ('A' for Active; 'I' for Inactive)
REMARK    1  A    between atoms: N3_4  and  N4_6 
REMARK    2  A    between atoms: C2_7  and  N5_8 
REMARK    3  A    between atoms: C5_14  and  N8_15 
REMARK    4  A    between atoms: C6_21  and  C7_22 
REMARK    5  A    between atoms: C7_22  and  O2_24 
REMARK    6  A    between atoms: O2_24  and  C8_25 
REMARK    7  A    between atoms: C8_25  and  C9_26 
REMARK    8  A    between atoms: C9_26  and  O3_27 
ROOT
HETATM    1  N4  UNL     1       9.576  -0.329   4.465  1.00  0.00    -0.070 N 
HETATM    2  C2  UNL     1       8.241  -0.305   4.317  1.00  0.00     0.706 A 
HETATM    3  N9  UNL     1       8.006   0.708   3.445  1.00  0.00    -0.180 N 
ATOM      4  H9  UNL     1       7.080   0.988   3.121  1.00  0.00     0.184 HD
HETATM    5  C6  UNL     1       9.151   1.289   3.065  1.00  0.00     0.165 A 
HETATM    6  C10 UNL     1      10.165   0.630   3.715  1.00  0.00     0.177 A 
HETATM    7 CL1  UNL     1      11.901   0.954   3.610  1.00  0.00    -0.059 Cl
ENDROOT
BRANCH   2   8
HETATM    8  N5  UNL     1       7.279  -1.150   4.918  1.00  0.00    -0.169 N 
HETATM    9  C3  UNL     1       7.704  -2.096   5.913  1.00  0.00     0.166 C 
HETATM   10  C4  UNL     1       6.632  -2.934   6.508  1.00  0.00     0.155 C 
HETATM   11  N6  UNL     1       5.301  -2.593   6.137  1.00  0.00    -0.335 N 
HETATM   12  N7  UNL     1       5.074  -1.292   5.752  1.00  0.00    -0.090 NA
ATOM     13  H6  UNL     1       4.549  -3.282   6.157  1.00  0.00     0.175 HD
HETATM   14  C5  UNL     1       5.886  -1.056   4.560  1.00  0.00     0.413 C 
BRANCH  14  15
HETATM   15  N8  UNL     1       5.487  -2.102   3.625  1.00  0.00    -0.042 N 
ATOM     16  H83 UNL     1       4.537  -1.951   3.287  1.00  0.00     0.278 HD
ATOM     17  H82 UNL     1       5.988  -2.018   2.741  1.00  0.00     0.278 HD
ATOM     18  H81 UNL     1       5.592  -3.035   4.022  1.00  0.00     0.278 HD
ENDBRANCH  14  15
ENDBRANCH   2   8
BRANCH   1  19
HETATM   19  N3  UNL     1      10.335  -1.201   5.277  1.00  0.00    -0.254 N 
HETATM   20  C1  UNL     1      10.609  -0.834   6.508  1.00  0.00     0.216 C 
HETATM   21  N1  UNL     1      10.150   0.417   7.004  1.00  0.00    -0.065 NA
HETATM   22  N2  UNL     1      11.353  -1.649   7.385  1.00  0.00    -0.065 NA
ATOM     23  H3  UNL     1      10.663  -2.096   4.914  1.00  0.00     0.190 HD
ENDBRANCH   1  19
BRANCH   5  24
HETATM   24  C7  UNL     1       9.313   2.400   2.136  1.00  0.00     0.314 C 
HETATM   25  O1  UNL     1      10.124   2.280   1.192  1.00  0.00    -0.257 OA
BRANCH  24  26
HETATM   26  O2  UNL     1       8.587   3.566   2.288  1.00  0.00    -0.314 OA
BRANCH  26  27
HETATM   27  C8  UNL     1       9.085   4.782   1.741  1.00  0.00     0.205 C 
BRANCH  27  28
HETATM   28  C9  UNL     1       7.951   5.708   1.373  1.00  0.00     0.191 C 
BRANCH  28  29
HETATM   29  O3  UNL     1       7.123   5.897   2.479  1.00  0.00    -0.399 OA
ATOM     30  H3  UNL     1       6.282   5.484   2.322  1.00  0.00     0.209 HD
ENDBRANCH  28  29
ENDBRANCH  27  28
ENDBRANCH  26  27
ENDBRANCH  24  26
ENDBRANCH   5  24
TORSDOF 8
ENDMDL
MODEL 2
REMARK VINA RESULT: -8.213908801      1.149      1.871
REMARK  8 active torsions:
REMARK  status: ('A' for Active; 'I' for Inactive)
REMARK    1  A    between atoms: N3_4  and  N4_6 
REMARK    2  A    between atoms: C2_7  and  N5_8 
REMARK    3  A    between atoms: C5_14  and  N8_15 
REMARK    4  A    between atoms: C6_21  and  C7_22 
REMARK    5  A    between atoms: C7_22  and  O2_24 
REMARK    6  A    between atoms: O2_24  and  C8_25 
REMARK    7  A    between atoms: C8_25  and  C9_26 
REMARK    8  A    between atoms: C9_26  and  O3_27 
ROOT
HETATM    1  N4  UNL     1       9.735  -0.220   4.493  1.00  0.00    -0.070 N 
HETATM    2  C2  UNL     1       8.411  -0.155   4.276  1.00  0.00     0.706 A 
HETATM    3  N9  UNL     1       8.248   0.887   3.421  1.00  0.00    -0.180 N 
ATOM      4  H9  UNL     1       7.349   1.201   3.057  1.00  0.00     0.184 HD
HETATM    5  C6  UNL     1       9.426   1.447   3.119  1.00  0.00     0.165 A 
HETATM    6  C10 UNL     1      10.387   0.744   3.802  1.00  0.00     0.177 A 
HETATM    7 CL1  UNL     1      12.135   1.023   3.798  1.00  0.00    -0.059 Cl
ENDROOT
BRANCH   2   8
HETATM    8  N5  UNL     1       7.397  -0.990   4.801  1.00  0.00    -0.169 N 
HETATM    9  C3  UNL     1       7.714  -1.875   5.888  1.00  0.00     0.166 C 
HETATM   10  C4  UNL     1       6.591  -2.704   6.394  1.00  0.00     0.155 C 
HETATM   11  N6  UNL     1       5.309  -2.412   5.850  1.00  0.00    -0.335 N 
HETATM   12  N7  UNL     1       5.110  -1.138   5.371  1.00  0.00    -0.090 NA
ATOM     13  H6  UNL     1       4.572  -3.116   5.816  1.00  0.00     0.175 HD
HETATM   14  C5  UNL     1       6.056  -0.945   4.274  1.00  0.00     0.413 C 
BRANCH  14  15
HETATM   15  N8  UNL     1       5.789  -2.046   3.355  1.00  0.00    -0.042 N 
ATOM     16  H83 UNL     1       5.279  -1.724   2.533  1.00  0.00     0.278 HD
ATOM     17  H82 UNL     1       6.645  -2.363   2.900  1.00  0.00     0.278 HD
ATOM     18  H81 UNL     1       5.304  -2.819   3.810  1.00  0.00     0.278 HD
ENDBRANCH  14  15
ENDBRANCH   2   8
BRANCH   1  19
HETATM   19  N3  UNL     1      10.427  -1.132   5.318  1.00  0.00    -0.254 N 
HETATM   20  C1  UNL     1      10.669  -0.795   6.564  1.00  0.00     0.216 C 
HETATM   21  N1  UNL     1      10.242   0.467   7.063  1.00  0.00    -0.065 NA
HETATM   22  N2  UNL     1      11.345  -1.652   7.456  1.00  0.00    -0.065 NA
ATOM     23  H3  UNL     1      10.733  -2.035   4.954  1.00  0.00     0.190 HD
ENDBRANCH   1  19
BRANCH   5  24
HETATM   24  C7  UNL     1       9.667   2.577   2.231  1.00  0.00     0.314 C 
HETATM   25  O1  UNL     1       9.301   3.716   2.593  1.00  0.00    -0.257 OA
BRANCH  24  26
HETATM   26  O2  UNL     1      10.288   2.401   1.009  1.00  0.00    -0.314 OA
BRANCH  26  27
HETATM   27  C8  UNL     1       9.663   2.884  -0.175  1.00  0.00     0.205 C 
BRANCH  27  28
HETATM   28  C9  UNL     1      10.676   3.526  -1.092  1.00  0.00     0.191 C 
BRANCH  28  29
HETATM   29  O3  UNL     1      11.940   2.996  -0.838  1.00  0.00    -0.399 OA
ATOM     30  H3  UNL     1      11.876   2.054  -0.734  1.00  0.00     0.209 HD
ENDBRANCH  28  29
ENDBRANCH  27  28
ENDBRANCH  26  27
ENDBRANCH  24  26
ENDBRANCH   5  24
TORSDOF 8
ENDMDL
MODEL 3
REMARK VINA RESULT: -7.857041312      3.645      6.451
REMARK  8 active torsions:
REMARK  status: ('A' for Active; 'I' for Inactive)
REMARK    1  A    between atoms: N3_4  and  N4_6 
REMARK    2  A    between atoms: C2_7  and  N5_8 
REMARK    3  A    between atoms: C5_14  and  N8_15 
REMARK    4  A    between atoms: C6_21  and  C7_22 
REMARK    5  A    between atoms: C7_22  and  O2_24 
REMARK    6  A    between atoms: O2_24  and  C8_25 
REMARK    7  A    between atoms: C8_25  and  C9_26 
REMARK    8  A    between atoms: C9_26  and  O3_27 
ROOT
HETATM    1  N4  UNL     1       9.614   0.310   2.888  1.00  0.00    -0.070 N 
HETATM    2  C2  UNL     1       8.764   1.154   2.280  1.00  0.00     0.706 A 
HETATM    3  N9  UNL     1       7.532   0.775   2.708  1.00  0.00    -0.180 N 
ATOM      4  H9  UNL     1       6.659   1.222   2.426  1.00  0.00     0.184 HD
HETATM    5  C6  UNL     1       7.615  -0.263   3.549  1.00  0.00     0.165 A 
HETATM    6  C10 UNL     1       8.948  -0.569   3.671  1.00  0.00     0.177 A 
HETATM    7 CL1  UNL     1       9.674  -1.853   4.650  1.00  0.00    -0.059 Cl
ENDROOT
BRANCH   2   8
HETATM    8  N5  UNL     1       9.067   2.218   1.398  1.00  0.00    -0.169 N 
HETATM    9  C3  UNL     1       9.222   1.940  -0.003  1.00  0.00     0.166 C 
HETATM   10  C4  UNL     1       9.522   3.111  -0.865  1.00  0.00     0.155 C 
HETATM   11  N6  UNL     1       9.466   4.382  -0.226  1.00  0.00    -0.335 N 
HETATM   12  N7  UNL     1       8.662   4.486   0.885  1.00  0.00    -0.090 NA
ATOM     13  H6  UNL     1       9.998   5.178  -0.576  1.00  0.00     0.175 HD
HETATM   14  C5  UNL     1       9.200   3.567   1.886  1.00  0.00     0.413 C 
BRANCH  14  15
HETATM   15  N8  UNL     1      10.596   3.961   2.040  1.00  0.00    -0.042 N 
ATOM     16  H83 UNL     1      11.144   3.216   2.470  1.00  0.00     0.278 HD
ATOM     17  H82 UNL     1      11.068   4.010   1.138  1.00  0.00     0.278 HD
ATOM     18  H81 UNL     1      10.695   4.835   2.556  1.00  0.00     0.278 HD
ENDBRANCH  14  15
ENDBRANCH   2   8
BRANCH   1  19
HETATM   19  N3  UNL     1      11.021   0.277   2.773  1.00  0.00    -0.254 N 
HETATM   20  C1  UNL     1      11.730   1.119   3.489  1.00  0.00     0.216 C 
HETATM   21  N1  UNL     1      11.087   2.044   4.357  1.00  0.00    -0.065 NA
HETATM   22  N2  UNL     1      13.138   1.145   3.439  1.00  0.00    -0.065 NA
ATOM     23  H3  UNL     1      11.476  -0.387   2.146  1.00  0.00     0.190 HD
ENDBRANCH   1  19
BRANCH   5  24
HETATM   24  C7  UNL     1       6.518  -0.945   4.224  1.00  0.00     0.314 C 
HETATM   25  O1  UNL     1       5.651  -1.521   3.533  1.00  0.00    -0.257 OA
BRANCH  24  26
HETATM   26  O2  UNL     1       6.432  -0.959   5.603  1.00  0.00    -0.314 OA
BRANCH  26  27
HETATM   27  C8  UNL     1       5.568  -1.889   6.246  1.00  0.00     0.205 C 
BRANCH  27  28
HETATM   28  C9  UNL     1       6.296  -3.174   6.555  1.00  0.00     0.191 C 
BRANCH  28  29
HETATM   29  O3  UNL     1       5.540  -4.259   6.113  1.00  0.00    -0.399 OA
ATOM     30  H3  UNL     1       5.778  -5.035   6.606  1.00  0.00     0.209 HD
ENDBRANCH  28  29
ENDBRANCH  27  28
ENDBRANCH  26  27
ENDBRANCH  24  26
ENDBRANCH   5  24
TORSDOF 8
ENDMDL
MODEL 4
REMARK VINA RESULT: -7.581917280      3.602      6.436
REMARK  8 active torsions:
REMARK  status: ('A' for Active; 'I' for Inactive)
REMARK    1  A    between atoms: N3_4  and  N4_6 
REMARK    2  A    between atoms: C2_7  and  N5_8 
REMARK    3  A    between atoms: C5_14  and  N8_15 
REMARK    4  A    between atoms: C6_21  and  C7_22 
REMARK    5  A    between atoms: C7_22  and  O2_24 
REMARK    6  A    between atoms: O2_24  and  C8_25 
REMARK    7  A    between atoms: C8_25  and  C9_26 
REMARK    8  A    between atoms: C9_26  and  O3_27 
ROOT
HETATM    1  N4  UNL     1       9.923   1.205   3.925  1.00  0.00    -0.070 N 
HETATM    2  C2  UNL     1       8.967   1.670   3.104  1.00  0.00     0.706 A 
HETATM    3  N9  UNL     1       7.902   0.853   3.310  1.00  0.00    -0.180 N 
ATOM      4  H9  UNL     1       7.005   0.941   2.832  1.00  0.00     0.184 HD
HETATM    5  C6  UNL     1       8.186  -0.082   4.225  1.00  0.00     0.165 A 
HETATM    6  C10 UNL     1       9.481   0.135   4.626  1.00  0.00     0.177 A 
HETATM    7 CL1  UNL     1      10.409  -0.787   5.818  1.00  0.00    -0.059 Cl
ENDROOT
BRANCH   2   8
HETATM    8  N5  UNL     1       9.032   2.774   2.222  1.00  0.00    -0.169 N 
HETATM    9  C3  UNL     1       8.250   3.945   2.510  1.00  0.00     0.166 C 
HETATM   10  C4  UNL     1       8.387   5.067   1.548  1.00  0.00     0.155 C 
HETATM   11  N6  UNL     1       9.387   4.908   0.548  1.00  0.00    -0.335 N 
HETATM   12  N7  UNL     1      10.442   4.077   0.847  1.00  0.00    -0.090 NA
ATOM     13  H6  UNL     1       9.325   5.388  -0.350  1.00  0.00     0.175 HD
HETATM   14  C5  UNL     1       9.883   2.743   1.060  1.00  0.00     0.413 C 
BRANCH  14  15
HETATM   15  N8  UNL     1       9.139   2.453  -0.161  1.00  0.00    -0.042 N 
ATOM     16  H83 UNL     1       9.241   1.475  -0.431  1.00  0.00     0.278 HD
ATOM     17  H82 UNL     1       8.134   2.470   0.008  1.00  0.00     0.278 HD
ATOM     18  H81 UNL     1       9.396   3.076  -0.926  1.00  0.00     0.278 HD
ENDBRANCH  14  15
ENDBRANCH   2   8
BRANCH   1  19
HETATM   19  N3  UNL     1      11.233   1.704   4.088  1.00  0.00    -0.254 N 
HETATM   20  C1  UNL     1      12.205   1.156   3.395  1.00  0.00     0.216 C 
HETATM   21  N1  UNL     1      11.935   0.082   2.504  1.00  0.00    -0.065 NA
HETATM   22  N2  UNL     1      13.539   1.601   3.492  1.00  0.00    -0.065 NA
ATOM     23  H3  UNL     1      11.421   2.473   4.731  1.00  0.00     0.190 HD
ENDBRANCH   1  19
BRANCH   5  24
HETATM   24  C7  UNL     1       7.304  -1.130   4.722  1.00  0.00     0.314 C 
HETATM   25  O1  UNL     1       7.026  -2.090   3.971  1.00  0.00    -0.257 OA
BRANCH  24  26
HETATM   26  O2  UNL     1       6.780  -1.071   5.999  1.00  0.00    -0.314 OA
BRANCH  26  27
HETATM   27  C8  UNL     1       5.655  -1.874   6.338  1.00  0.00     0.205 C 
BRANCH  27  28
HETATM   28  C9  UNL     1       6.091  -3.251   6.776  1.00  0.00     0.191 C 
BRANCH  28  29
HETATM   29  O3  UNL     1       5.564  -4.207   5.909  1.00  0.00    -0.399 OA
ATOM     30  H3  UNL     1       6.268  -4.614   5.417  1.00  0.00     0.209 HD
ENDBRANCH  28  29
ENDBRANCH  27  28
ENDBRANCH  26  27
ENDBRANCH  24  26
ENDBRANCH   5  24
TORSDOF 8
ENDMDL
MODEL 5
REMARK VINA RESULT: -7.537225831      3.670      6.510
REMARK  8 active torsions:
REMARK  status: ('A' for Active; 'I' for Inactive)
REMARK    1  A    between atoms: N3_4  and  N4_6 
REMARK    2  A    between atoms: C2_7  and  N5_8 
REMARK    3  A    between atoms: C5_14  and  N8_15 
REMARK    4  A    between atoms: C6_21  and  C7_22 
REMARK    5  A    between atoms: C7_22  and  O2_24 
REMARK    6  A    between atoms: O2_24  and  C8_25 
REMARK    7  A    between atoms: C8_25  and  C9_26 
REMARK    8  A    between atoms: C9_26  and  O3_27 
ROOT
HETATM    1  N4  UNL     1       9.795   1.371   3.609  1.00  0.00    -0.070 N 
HETATM    2  C2  UNL     1       8.896   1.801   2.708  1.00  0.00     0.706 A 
HETATM    3  N9  UNL     1       7.823   0.986   2.870  1.00  0.00    -0.180 N 
ATOM      4  H9  UNL     1       6.961   1.051   2.328  1.00  0.00     0.184 HD
HETATM    5  C6  UNL     1       8.046   0.085   3.834  1.00  0.00     0.165 A 
HETATM    6  C10 UNL     1       9.310   0.324   4.316  1.00  0.00     0.177 A 
HETATM    7 CL1  UNL     1      10.157  -0.549   5.601  1.00  0.00    -0.059 Cl
ENDROOT
BRANCH   2   8
HETATM    8  N5  UNL     1       9.018   2.874   1.794  1.00  0.00    -0.169 N 
HETATM    9  C3  UNL     1       9.498   2.610   0.466  1.00  0.00     0.166 C 
HETATM   10  C4  UNL     1       9.581   3.785  -0.437  1.00  0.00     0.155 C 
HETATM   11  N6  UNL     1       9.032   4.996   0.069  1.00  0.00    -0.335 N 
HETATM   12  N7  UNL     1       8.049   4.884   1.023  1.00  0.00    -0.090 NA
ATOM     13  H6  UNL     1       9.354   5.906  -0.262  1.00  0.00     0.175 HD
HETATM   14  C5  UNL     1       8.650   4.214   2.175  1.00  0.00     0.413 C 
BRANCH  14  15
HETATM   15  N8  UNL     1       9.811   5.030   2.514  1.00  0.00    -0.042 N 
ATOM     16  H83 UNL     1      10.553   4.462   2.924  1.00  0.00     0.278 HD
ATOM     17  H82 UNL     1      10.296   5.348   1.676  1.00  0.00     0.278 HD
ATOM     18  H81 UNL     1       9.568   5.813   3.121  1.00  0.00     0.278 HD
ENDBRANCH  14  15
ENDBRANCH   2   8
BRANCH   1  19
HETATM   19  N3  UNL     1      11.089   1.884   3.845  1.00  0.00    -0.254 N 
HETATM   20  C1  UNL     1      12.116   1.274   3.297  1.00  0.00     0.216 C 
HETATM   21  N1  UNL     1      11.919   0.121   2.489  1.00  0.00    -0.065 NA
HETATM   22  N2  UNL     1      13.438   1.726   3.474  1.00  0.00    -0.065 NA
ATOM     23  H3  UNL     1      11.224   2.710   4.427  1.00  0.00     0.190 HD
ENDBRANCH   1  19
BRANCH   5  24
HETATM   24  C7  UNL     1       7.136  -0.950   4.307  1.00  0.00     0.314 C 
HETATM   25  O1  UNL     1       6.771  -1.841   3.509  1.00  0.00    -0.257 OA
BRANCH  24  26
HETATM   26  O2  UNL     1       6.679  -0.954   5.611  1.00  0.00    -0.314 OA
BRANCH  26  27
HETATM   27  C8  UNL     1       5.661  -1.869   5.999  1.00  0.00     0.205 C 
BRANCH  27  28
HETATM   28  C9  UNL     1       6.260  -3.113   6.609  1.00  0.00     0.191 C 
BRANCH  28  29
HETATM   29  O3  UNL     1       5.580  -4.237   6.143  1.00  0.00    -0.399 OA
ATOM     30  H3  UNL     1       6.196  -4.839   5.741  1.00  0.00     0.209 HD
ENDBRANCH  28  29
ENDBRANCH  27  28
ENDBRANCH  26  27
ENDBRANCH  24  26
ENDBRANCH   5  24
TORSDOF 8
ENDMDL
