MODEL 1
REMARK VINA RESULT: -8.627631164      0.000      0.000
REMARK  9 active torsions:
REMARK  status: ('A' for Active; 'I' for Inactive)
REMARK    1  A    between atoms: N1_1  and  C1_4 
REMARK    2  A    between atoms: C2_7  and  S1_8 
REMARK    3  A    between atoms: S1_8  and  S2_9 
REMARK    4  A    between atoms: S2_9  and  C3_10 
REMARK    5  A    between atoms: C5_19  and  N6_20 
REMARK       I    between atoms: N6_20  and  C6_22 
REMARK    6  A    between atoms: C6_22  and  C7_24 
REMARK    7  A    between atoms: C7_24  and  N7_25 
REMARK    8  A    between atoms: C7_24  and  C8_29 
REMARK    9  A    between atoms: C8_29  and  O2_30 
ROOT
HETATM    1  C1  UNL     1      12.242   1.676   3.157  1.00  0.00     0.691 A 
HETATM    2  N2  UNL     1      11.107   2.341   2.875  1.00  0.00    -0.180 N 
ATOM      3  H2  UNL     1      11.124   3.113   2.209  1.00  0.00     0.185 HD
HETATM    4  C2  UNL     1       9.956   1.994   3.465  1.00  0.00     0.142 A 
HETATM    5  C5  UNL     1      10.007   0.925   4.366  1.00  0.00     0.158 A 
HETATM    6  N8  UNL     1      11.151   0.283   4.625  1.00  0.00    -0.269 N 
ATOM      7  H8  UNL     1      11.164  -0.495   5.286  1.00  0.00     0.189 HD
HETATM    8  N9  UNL     1      12.252   0.653   4.028  1.00  0.00    -0.131 N 
ATOM      9  H9  UNL     1      13.125   0.163   4.226  1.00  0.00     0.205 HD
ENDROOT
BRANCH   5  10
HETATM   10  N6  UNL     1       8.921   0.569   4.947  1.00  0.00    -0.308 N 
HETATM   11  C6  UNL     1       8.864  -0.680   5.616  1.00  0.00     0.256 C 
HETATM   12  O1  UNL     1       9.450  -0.887   6.710  1.00  0.00    -0.271 OA
ATOM     13  H6  UNL     1       8.104   1.180   4.926  1.00  0.00     0.170 HD
BRANCH  11  14
HETATM   14  C7  UNL     1       8.077  -1.766   4.982  1.00  0.00     0.298 C 
BRANCH  14  15
HETATM   15  N7  UNL     1       7.088  -2.227   5.908  1.00  0.00    -0.064 N 
ATOM     16  H73 UNL     1       7.495  -2.754   6.681  1.00  0.00     0.275 HD
ATOM     17  H72 UNL     1       6.680  -1.466   6.453  1.00  0.00     0.275 HD
ATOM     18  H71 UNL     1       6.383  -2.763   5.403  1.00  0.00     0.275 HD
ENDBRANCH  14  15
BRANCH  14  19
HETATM   19  C8  UNL     1       7.417  -1.227   3.704  1.00  0.00     0.206 C 
BRANCH  19  20
HETATM   20  O2  UNL     1       6.303  -0.505   4.059  1.00  0.00    -0.398 OA
ATOM     21  H2  UNL     1       6.306   0.313   3.576  1.00  0.00     0.209 HD
ENDBRANCH  19  20
ENDBRANCH  14  19
ENDBRANCH  11  14
ENDBRANCH   5  10
BRANCH   4  22
HETATM   22  S1  UNL     1       8.389   2.791   3.179  1.00  0.00    -0.027 SA
BRANCH  22  23
HETATM   23  S2  UNL     1       8.801   4.659   2.251  1.00  0.00    -0.013 SA
BRANCH  23  24
HETATM   24  C3  UNL     1       9.113   4.308   0.530  1.00  0.00     0.173 A 
HETATM   25  N3  UNL     1       9.325   3.140  -0.086  1.00  0.00    -0.276 N 
HETATM   26  N4  UNL     1       9.510   3.378  -1.373  1.00  0.00    -0.259 N 
ATOM     27  H3  UNL     1       9.341   2.223   0.360  1.00  0.00     0.189 HD
HETATM   28  C4  UNL     1       9.416   4.702  -1.579  1.00  0.00     0.282 A 
ATOM     29  H4  UNL     1       9.692   2.674  -2.088  1.00  0.00     0.191 HD
HETATM   30  F1  UNL     1       9.556   5.305  -2.800  1.00  0.00    -0.164 F 
HETATM   31  N5  UNL     1       9.173   5.257  -0.407  1.00  0.00    -0.296 N 
ATOM     32  H5  UNL     1       9.050   6.256  -0.243  1.00  0.00     0.172 HD
ENDBRANCH  23  24
ENDBRANCH  22  23
ENDBRANCH   4  22
BRANCH   1  33
HETATM   33  N1  UNL     1      13.350   2.032   2.571  1.00  0.00    -0.233 N 
ATOM     34  H12 UNL     1      13.480   3.003   2.286  1.00  0.00     0.174 HD
ATOM     35  H11 UNL     1      14.073   1.332   2.406  1.00  0.00     0.174 HD
ENDBRANCH   1  33
TORSDOF 9
ENDMDL
MODEL 2
REMARK VINA RESULT: -8.558946881      1.032      1.045
REMARK  9 active torsions:
REMARK  status: ('A' for Active; 'I' for Inactive)
REMARK    1  A    between atoms: N1_1  and  C1_4 
REMARK    2  A    between atoms: C2_7  and  S1_8 
REMARK    3  A    between atoms: S1_8  and  S2_9 
REMARK    4  A    between atoms: S2_9  and  C3_10 
REMARK    5  A    between atoms: C5_19  and  N6_20 
REMARK       I    between atoms: N6_20  and  C6_22 
REMARK    6  A    between atoms: C6_22  and  C7_24 
REMARK    7  A    between atoms: C7_24  and  N7_25 
REMARK    8  A    between atoms: C7_24  and  C8_29 
REMARK    9  A    between atoms: C8_29  and  O2_30 
ROOT
HETATM    1  C1  UNL     1      12.461   1.738   2.997  1.00  0.00     0.691 A 
HETATM    2  N2  UNL     1      11.291   2.359   2.761  1.00  0.00    -0.180 N 
ATOM      3  H2  UNL     1      11.256   3.148   2.115  1.00  0.00     0.185 HD
HETATM    4  C2  UNL     1      10.171   1.946   3.369  1.00  0.00     0.142 A 
HETATM    5  C5  UNL     1      10.293   0.858   4.241  1.00  0.00     0.158 A 
HETATM    6  N8  UNL     1      11.470   0.261   4.454  1.00  0.00    -0.269 N 
ATOM      7  H8  UNL     1      11.534  -0.531   5.094  1.00  0.00     0.189 HD
HETATM    8  N9  UNL     1      12.537   0.695   3.841  1.00  0.00    -0.131 N 
ATOM      9  H9  UNL     1      13.436   0.239   4.004  1.00  0.00     0.205 HD
ENDROOT
BRANCH   5  10
HETATM   10  N6  UNL     1       9.238   0.440   4.838  1.00  0.00    -0.308 N 
HETATM   11  C6  UNL     1       9.360  -0.502   5.892  1.00  0.00     0.256 C 
HETATM   12  O1  UNL     1       9.810  -0.192   7.024  1.00  0.00    -0.271 OA
ATOM     13  H6  UNL     1       8.319   0.781   4.557  1.00  0.00     0.170 HD
BRANCH  11  14
HETATM   14  C7  UNL     1       8.932  -1.896   5.622  1.00  0.00     0.298 C 
BRANCH  14  15
HETATM   15  N7  UNL     1       9.874  -2.796   6.216  1.00  0.00    -0.064 N 
ATOM     16  H73 UNL     1      10.627  -3.049   5.576  1.00  0.00     0.275 HD
ATOM     17  H72 UNL     1      10.442  -2.345   6.934  1.00  0.00     0.275 HD
ATOM     18  H71 UNL     1       9.376  -3.612   6.572  1.00  0.00     0.275 HD
ENDBRANCH  14  15
BRANCH  14  19
HETATM   19  C8  UNL     1       7.529  -2.113   6.205  1.00  0.00     0.206 C 
BRANCH  19  20
HETATM   20  O2  UNL     1       6.921  -0.889   6.348  1.00  0.00    -0.398 OA
ATOM     21  H2  UNL     1       6.653  -0.788   7.254  1.00  0.00     0.209 HD
ENDBRANCH  19  20
ENDBRANCH  14  19
ENDBRANCH  11  14
ENDBRANCH   5  10
BRANCH   4  22
HETATM   22  S1  UNL     1       8.564   2.680   3.144  1.00  0.00    -0.027 SA
BRANCH  22  23
HETATM   23  S2  UNL     1       8.869   4.579   2.237  1.00  0.00    -0.013 SA
BRANCH  23  24
HETATM   24  C3  UNL     1       9.160   4.269   0.505  1.00  0.00     0.173 A 
HETATM   25  N3  UNL     1       9.371   3.117  -0.140  1.00  0.00    -0.276 N 
HETATM   26  N4  UNL     1       9.538   3.384  -1.423  1.00  0.00    -0.259 N 
ATOM     27  H3  UNL     1       9.400   2.190   0.285  1.00  0.00     0.189 HD
HETATM   28  C4  UNL     1       9.432   4.712  -1.599  1.00  0.00     0.282 A 
ATOM     29  H4  UNL     1       9.715   2.699  -2.157  1.00  0.00     0.191 HD
HETATM   30  F1  UNL     1       9.551   5.343  -2.808  1.00  0.00    -0.164 F 
HETATM   31  N5  UNL     1       9.201   5.239  -0.412  1.00  0.00    -0.296 N 
ATOM     32  H5  UNL     1       9.073   6.233  -0.223  1.00  0.00     0.172 HD
ENDBRANCH  23  24
ENDBRANCH  22  23
ENDBRANCH   4  22
BRANCH   1  33
HETATM   33  N1  UNL     1      13.536   2.158   2.394  1.00  0.00    -0.233 N 
ATOM     34  H12 UNL     1      13.799   3.142   2.458  1.00  0.00     0.174 HD
ATOM     35  H11 UNL     1      14.101   1.494   1.865  1.00  0.00     0.174 HD
ENDBRANCH   1  33
TORSDOF 9
ENDMDL
MODEL 3
REMARK VINA RESULT: -8.389737786      1.212      1.444
REMARK  9 active torsions:
REMARK  status: ('A' for Active; 'I' for Inactive)
REMARK    1  A    between atoms: N1_1  and  C1_4 
REMARK    2  A    between atoms: C2_7  and  S1_8 
REMARK    3  A    between atoms: S1_8  and  S2_9 
REMARK    4  A    between atoms: S2_9  and  C3_10 
REMARK    5  A    between atoms: C5_19  and  N6_20 
REMARK       I    between atoms: N6_20  and  C6_22 
REMARK    6  A    between atoms: C6_22  and  C7_24 
REMARK    7  A    between atoms: C7_24  and  N7_25 
REMARK    8  A    between atoms: C7_24  and  C8_29 
REMARK    9  A    between atoms: C8_29  and  O2_30 
ROOT
HETATM    1  C1  UNL     1      12.378   1.681   3.089  1.00  0.00     0.691 A 
HETATM    2  N2  UNL     1      11.224   2.317   2.818  1.00  0.00    -0.180 N 
ATOM      3  H2  UNL     1      11.209   3.073   2.134  1.00  0.00     0.185 HD
HETATM    4  C2  UNL     1      10.094   1.963   3.444  1.00  0.00     0.142 A 
HETATM    5  C5  UNL     1      10.188   0.917   4.370  1.00  0.00     0.158 A 
HETATM    6  N8  UNL     1      11.351   0.304   4.616  1.00  0.00    -0.269 N 
ATOM      7  H8  UNL     1      11.395  -0.456   5.295  1.00  0.00     0.189 HD
HETATM    8  N9  UNL     1      12.429   0.681   3.984  1.00  0.00    -0.131 N 
ATOM      9  H9  UNL     1      13.316   0.212   4.172  1.00  0.00     0.205 HD
ENDROOT
BRANCH   5  10
HETATM   10  N6  UNL     1       9.123   0.555   4.985  1.00  0.00    -0.308 N 
HETATM   11  C6  UNL     1       9.212  -0.395   6.035  1.00  0.00     0.256 C 
HETATM   12  O1  UNL     1       9.699  -0.113   7.160  1.00  0.00    -0.271 OA
ATOM     13  H6  UNL     1       8.219   0.947   4.722  1.00  0.00     0.170 HD
BRANCH  11  14
HETATM   14  C7  UNL     1       8.705  -1.763   5.770  1.00  0.00     0.298 C 
BRANCH  14  15
HETATM   15  N7  UNL     1       7.790  -1.715   4.670  1.00  0.00    -0.064 N 
ATOM     16  H73 UNL     1       8.046  -1.008   3.981  1.00  0.00     0.275 HD
ATOM     17  H72 UNL     1       7.863  -2.535   4.067  1.00  0.00     0.275 HD
ATOM     18  H71 UNL     1       6.845  -1.582   5.029  1.00  0.00     0.275 HD
ENDBRANCH  14  15
BRANCH  14  19
HETATM   19  C8  UNL     1       9.891  -2.686   5.452  1.00  0.00     0.206 C 
BRANCH  19  20
HETATM   20  O2  UNL     1      10.947  -2.333   6.258  1.00  0.00    -0.398 OA
ATOM     21  H2  UNL     1      11.048  -1.389   6.227  1.00  0.00     0.209 HD
ENDBRANCH  19  20
ENDBRANCH  14  19
ENDBRANCH  11  14
ENDBRANCH   5  10
BRANCH   4  22
HETATM   22  S1  UNL     1       8.505   2.722   3.178  1.00  0.00    -0.027 SA
BRANCH  22  23
HETATM   23  S2  UNL     1       8.862   4.605   2.256  1.00  0.00    -0.013 SA
BRANCH  23  24
HETATM   24  C3  UNL     1       9.152   4.272   0.528  1.00  0.00     0.173 A 
HETATM   25  N3  UNL     1       9.356   3.111  -0.103  1.00  0.00    -0.276 N 
HETATM   26  N4  UNL     1       9.524   3.362  -1.389  1.00  0.00    -0.259 N 
ATOM     27  H3  UNL     1       9.378   2.189   0.334  1.00  0.00     0.189 HD
HETATM   28  C4  UNL     1       9.428   4.689  -1.581  1.00  0.00     0.282 A 
ATOM     29  H4  UNL     1       9.698   2.666  -2.114  1.00  0.00     0.191 HD
HETATM   30  F1  UNL     1       9.552   5.304  -2.797  1.00  0.00    -0.164 F 
HETATM   31  N5  UNL     1       9.200   5.231  -0.400  1.00  0.00    -0.296 N 
ATOM     32  H5  UNL     1       9.079   6.228  -0.223  1.00  0.00     0.172 HD
ENDBRANCH  23  24
ENDBRANCH  22  23
ENDBRANCH   4  22
BRANCH   1  33
HETATM   33  N1  UNL     1      13.464   2.045   2.467  1.00  0.00    -0.233 N 
ATOM     34  H12 UNL     1      13.421   2.786   1.768  1.00  0.00     0.174 HD
ATOM     35  H11 UNL     1      14.344   1.580   2.690  1.00  0.00     0.174 HD
ENDBRANCH   1  33
TORSDOF 9
ENDMDL
MODEL 4
REMARK VINA RESULT: -7.908885691      3.976      6.484
REMARK  9 active torsions:
REMARK  status: ('A' for Active; 'I' for Inactive)
REMARK    1  A    between atoms: N1_1  and  C1_4 
REMARK    2  A    between atoms: C2_7  and  S1_8 
REMARK    3  A    between atoms: S1_8  and  S2_9 
REMARK    4  A    between atoms: S2_9  and  C3_10 
REMARK    5  A    between atoms: C5_19  and  N6_20 
REMARK       I    between atoms: N6_20  and  C6_22 
REMARK    6  A    between atoms: C6_22  and  C7_24 
REMARK    7  A    between atoms: C7_24  and  N7_25 
REMARK    8  A    between atoms: C7_24  and  C8_29 
REMARK    9  A    between atoms: C8_29  and  O2_30 
ROOT
HETATM    1  C1  UNL     1      13.183   1.370   3.031  1.00  0.00     0.691 A 
HETATM    2  N2  UNL     1      12.251   0.771   3.794  1.00  0.00    -0.180 N 
ATOM      3  H2  UNL     1      12.520   0.015   4.423  1.00  0.00     0.185 HD
HETATM    4  C2  UNL     1      10.972   1.163   3.731  1.00  0.00     0.142 A 
HETATM    5  C5  UNL     1      10.676   2.207   2.847  1.00  0.00     0.158 A 
HETATM    6  N8  UNL     1      11.626   2.784   2.103  1.00  0.00    -0.269 N 
ATOM      7  H8  UNL     1      11.386   3.544   1.466  1.00  0.00     0.189 HD
HETATM    8  N9  UNL     1      12.860   2.371   2.194  1.00  0.00    -0.131 N 
ATOM      9  H9  UNL     1      13.585   2.811   1.626  1.00  0.00     0.205 HD
ENDROOT
BRANCH   5  10
HETATM   10  N6  UNL     1       9.460   2.605   2.765  1.00  0.00    -0.308 N 
HETATM   11  C6  UNL     1       9.104   3.563   1.782  1.00  0.00     0.256 C 
HETATM   12  O1  UNL     1       9.035   3.280   0.558  1.00  0.00    -0.271 OA
ATOM     13  H6  UNL     1       8.754   2.235   3.402  1.00  0.00     0.170 HD
BRANCH  11  14
HETATM   14  C7  UNL     1       8.806   4.942   2.240  1.00  0.00     0.298 C 
BRANCH  14  15
HETATM   15  N7  UNL     1      10.014   5.710   2.220  1.00  0.00    -0.064 N 
ATOM     16  H73 UNL     1      10.848   5.124   2.245  1.00  0.00     0.275 HD
ATOM     17  H72 UNL     1      10.177   6.154   1.317  1.00  0.00     0.275 HD
ATOM     18  H71 UNL     1       9.991   6.384   2.985  1.00  0.00     0.275 HD
ENDBRANCH  14  15
BRANCH  14  19
HETATM   19  C8  UNL     1       7.751   5.563   1.313  1.00  0.00     0.206 C 
BRANCH  19  20
HETATM   20  O2  UNL     1       6.710   6.024   2.083  1.00  0.00    -0.398 OA
ATOM     21  H2  UNL     1       7.008   6.785   2.569  1.00  0.00     0.209 HD
ENDBRANCH  19  20
ENDBRANCH  14  19
ENDBRANCH  11  14
ENDBRANCH   5  10
BRANCH   4  22
HETATM   22  S1  UNL     1       9.645   0.455   4.685  1.00  0.00    -0.027 SA
BRANCH  22  23
HETATM   23  S2  UNL     1       9.026  -1.311   3.674  1.00  0.00    -0.013 SA
BRANCH  23  24
HETATM   24  C3  UNL     1       7.303  -1.541   4.073  1.00  0.00     0.173 A 
HETATM   25  N3  UNL     1       6.285  -1.932   3.299  1.00  0.00    -0.276 N 
HETATM   26  N4  UNL     1       5.189  -1.956   4.037  1.00  0.00    -0.259 N 
ATOM     27  H3  UNL     1       6.344  -2.171   2.309  1.00  0.00     0.189 HD
HETATM   28  C4  UNL     1       5.508  -1.579   5.287  1.00  0.00     0.282 A 
ATOM     29  H4  UNL     1       4.259  -2.218   3.713  1.00  0.00     0.191 HD
HETATM   30  F1  UNL     1       4.613  -1.490   6.319  1.00  0.00    -0.164 F 
HETATM   31  N5  UNL     1       6.804  -1.329   5.293  1.00  0.00    -0.296 N 
ATOM     32  H5  UNL     1       7.340  -1.021   6.104  1.00  0.00     0.172 HD
ENDBRANCH  23  24
ENDBRANCH  22  23
ENDBRANCH   4  22
BRANCH   1  33
HETATM   33  N1  UNL     1      14.421   0.971   3.110  1.00  0.00    -0.233 N 
ATOM     34  H12 UNL     1      14.820   0.742   4.020  1.00  0.00     0.174 HD
ATOM     35  H11 UNL     1      14.973   0.892   2.256  1.00  0.00     0.174 HD
ENDBRANCH   1  33
TORSDOF 9
ENDMDL
MODEL 5
REMARK VINA RESULT: -7.893970416      4.091      6.779
REMARK  9 active torsions:
REMARK  status: ('A' for Active; 'I' for Inactive)
REMARK    1  A    between atoms: N1_1  and  C1_4 
REMARK    2  A    between atoms: C2_7  and  S1_8 
REMARK    3  A    between atoms: S1_8  and  S2_9 
REMARK    4  A    between atoms: S2_9  and  C3_10 
REMARK    5  A    between atoms: C5_19  and  N6_20 
REMARK       I    between atoms: N6_20  and  C6_22 
REMARK    6  A    between atoms: C6_22  and  C7_24 
REMARK    7  A    between atoms: C7_24  and  N7_25 
REMARK    8  A    between atoms: C7_24  and  C8_29 
REMARK    9  A    between atoms: C8_29  and  O2_30 
ROOT
HETATM    1  C1  UNL     1      12.702   1.176   3.254  1.00  0.00     0.691 A 
HETATM    2  N2  UNL     1      11.616   0.408   3.460  1.00  0.00    -0.180 N 
ATOM      3  H2  UNL     1      11.713  -0.490   3.934  1.00  0.00     0.185 HD
HETATM    4  C2  UNL     1      10.410   0.817   3.046  1.00  0.00     0.142 A 
HETATM    5  C5  UNL     1      10.352   2.059   2.405  1.00  0.00     0.158 A 
HETATM    6  N8  UNL     1      11.449   2.800   2.216  1.00  0.00    -0.269 N 
ATOM      7  H8  UNL     1      11.382   3.704   1.746  1.00  0.00     0.189 HD
HETATM    8  N9  UNL     1      12.606   2.365   2.634  1.00  0.00    -0.131 N 
ATOM      9  H9  UNL     1      13.443   2.931   2.490  1.00  0.00     0.205 HD
ENDROOT
BRANCH   5  10
HETATM   10  N6  UNL     1       9.211   2.478   1.997  1.00  0.00    -0.308 N 
HETATM   11  C6  UNL     1       9.149   3.394   0.916  1.00  0.00     0.256 C 
HETATM   12  O1  UNL     1       9.385   3.054  -0.271  1.00  0.00    -0.271 OA
ATOM     13  H6  UNL     1       8.354   2.154   2.447  1.00  0.00     0.170 HD
BRANCH  11  14
HETATM   14  C7  UNL     1       8.789   4.799   1.226  1.00  0.00     0.298 C 
BRANCH  14  15
HETATM   15  N7  UNL     1       8.262   5.416   0.046  1.00  0.00    -0.064 N 
ATOM     16  H73 UNL     1       7.524   4.860  -0.386  1.00  0.00     0.275 HD
ATOM     17  H72 UNL     1       7.711   6.249   0.255  1.00  0.00     0.275 HD
ATOM     18  H71 UNL     1       9.028   5.610  -0.599  1.00  0.00     0.275 HD
ENDBRANCH  14  15
BRANCH  14  19
HETATM   19  C8  UNL     1       7.751   4.815   2.358  1.00  0.00     0.206 C 
BRANCH  19  20
HETATM   20  O2  UNL     1       7.076   6.012   2.314  1.00  0.00    -0.398 OA
ATOM     21  H2  UNL     1       7.704   6.717   2.414  1.00  0.00     0.209 HD
ENDBRANCH  19  20
ENDBRANCH  14  19
ENDBRANCH  11  14
ENDBRANCH   5  10
BRANCH   4  22
HETATM   22  S1  UNL     1       8.900  -0.103   3.257  1.00  0.00    -0.027 SA
BRANCH  22  23
HETATM   23  S2  UNL     1       8.479  -0.139   5.341  1.00  0.00    -0.013 SA
BRANCH  23  24
HETATM   24  C3  UNL     1       9.945  -0.767   6.140  1.00  0.00     0.173 A 
HETATM   25  N3  UNL     1      10.459  -2.001   6.147  1.00  0.00    -0.276 N 
HETATM   26  N4  UNL     1      11.561  -1.987   6.877  1.00  0.00    -0.259 N 
ATOM     27  H3  UNL     1      10.069  -2.815   5.671  1.00  0.00     0.189 HD
HETATM   28  C4  UNL     1      11.750  -0.739   7.338  1.00  0.00     0.282 A 
ATOM     29  H4  UNL     1      12.165  -2.788   7.060  1.00  0.00     0.191 HD
HETATM   30  F1  UNL     1      12.799  -0.360   8.132  1.00  0.00    -0.164 F 
HETATM   31  N5  UNL     1      10.755  -0.005   6.879  1.00  0.00    -0.296 N 
ATOM     32  H5  UNL     1      10.624   0.990   7.060  1.00  0.00     0.172 HD
ENDBRANCH  23  24
ENDBRANCH  22  23
ENDBRANCH   4  22
BRANCH   1  33
HETATM   33  N1  UNL     1      13.864   0.757   3.666  1.00  0.00    -0.233 N 
ATOM     34  H12 UNL     1      14.568   0.472   2.984  1.00  0.00     0.174 HD
ATOM     35  H11 UNL     1      14.054   0.720   4.667  1.00  0.00     0.174 HD
ENDBRANCH   1  33
TORSDOF 9
ENDMDL
