MODEL 1
REMARK VINA RESULT: -8.367536760      0.000      0.000
REMARK  6 active torsions:
REMARK  status: ('A' for Active; 'I' for Inactive)
REMARK    1  A    between atoms: N1_2  and  C2_4 
REMARK    2  A    between atoms: C4_11  and  N4_12 
REMARK    3  A    between atoms: N4_12  and  C5_14 
REMARK    4  A    between atoms: N7_17  and  C6_18 
REMARK    5  A    between atoms: C6_18  and  O1_19 
REMARK    6  A    between atoms: N8_22  and  N9_24 
REMARK       I    between atoms: C8_26  and  N11_28 
ROOT
HETATM    1  N9  UNL     1       7.464  -1.646   3.476  1.00  0.00    -0.272 N 
ATOM      2  H9  UNL     1       7.849  -2.564   3.255  1.00  0.00     0.189 HD
HETATM    3  C8  UNL     1       6.328  -1.547   4.077  1.00  0.00     0.216 C 
HETATM    4  N10 UNL     1       5.718  -0.315   4.422  1.00  0.00    -0.061 NA
HETATM    5  N11 UNL     1       5.645  -2.749   4.412  1.00  0.00    -0.266 N 
ATOM      6  H11 UNL     1       5.002  -3.144   3.725  1.00  0.00     0.180 HD
HETATM    7  C9  UNL     1       5.802  -3.417   5.619  1.00  0.00     0.184 C 
HETATM    8  N12 UNL     1       5.926  -3.985   6.625  1.00  0.00    -0.172 NA
ENDROOT
BRANCH   1   9
HETATM    9  N8  UNL     1       8.151  -0.511   3.137  1.00  0.00    -0.283 N 
HETATM   10  C7  UNL     1       9.147   0.029   3.704  1.00  0.00     0.154 C 
HETATM   11  C5  UNL     1       9.859   1.243   3.316  1.00  0.00     0.281 C 
HETATM   12  N7  UNL     1       9.806  -0.441   4.869  1.00  0.00    -0.239 N 
HETATM   13  N5  UNL     1      10.728   1.481   4.481  1.00  0.00    -0.092 NA
HETATM   14  N6  UNL     1      11.083   0.202   4.938  1.00  0.00    -0.023 NA
ATOM     15  H8  UNL     1       7.811  -0.030   2.305  1.00  0.00     0.188 HD
BRANCH  11  16
HETATM   16  N4  UNL     1       9.030   2.398   3.167  1.00  0.00    -0.199 N 
ATOM     17  H4  UNL     1       8.311   2.627   3.853  1.00  0.00     0.180 HD
BRANCH  16  18
HETATM   18  C4  UNL     1       9.231   3.148   2.119  1.00  0.00     0.696 A 
HETATM   19  N3  UNL     1      10.101   2.824   1.152  1.00  0.00    -0.165 N 
HETATM   20  C3  UNL     1      10.321   3.585   0.063  1.00  0.00     0.208 A 
ATOM     21  H3  UNL     1      10.624   1.953   1.245  1.00  0.00     0.186 HD
HETATM   22  N2  UNL     1       9.635   4.731  -0.065  1.00  0.00    -0.165 N 
HETATM   23 CL1  UNL     1      11.477   3.109  -1.177  1.00  0.00    -0.044 Cl
HETATM   24  C2  UNL     1       8.751   5.104   0.875  1.00  0.00     0.694 A 
ATOM     25  H2  UNL     1       9.787   5.324  -0.881  1.00  0.00     0.186 HD
HETATM   26  N13 UNL     1       8.556   4.307   1.962  1.00  0.00    -0.022 N 
ATOM     27  H13 UNL     1       7.884   4.592   2.675  1.00  0.00     0.203 HD
BRANCH  24  28
HETATM   28  N1  UNL     1       8.114   6.205   0.720  1.00  0.00    -0.230 N 
HETATM   29  C1  UNL     1       6.677   6.236   0.716  1.00  0.00     0.165 C 
ATOM     30  H1  UNL     1       8.635   7.074   0.597  1.00  0.00     0.177 HD
ENDBRANCH  24  28
ENDBRANCH  16  18
ENDBRANCH  11  16
BRANCH  12  31
HETATM   31  C6  UNL     1       9.409  -1.374   5.881  1.00  0.00     0.312 C 
BRANCH  31  32
HETATM   32  O1  UNL     1       8.173  -0.991   6.449  1.00  0.00    -0.381 OA
ATOM     33  H1  UNL     1       8.036  -1.435   7.278  1.00  0.00     0.211 HD
ENDBRANCH  31  32
ENDBRANCH  12  31
ENDBRANCH   1   9
TORSDOF 6
ENDMDL
MODEL 2
REMARK VINA RESULT: -8.171326440      1.869      2.566
REMARK  6 active torsions:
REMARK  status: ('A' for Active; 'I' for Inactive)
REMARK    1  A    between atoms: N1_2  and  C2_4 
REMARK    2  A    between atoms: C4_11  and  N4_12 
REMARK    3  A    between atoms: N4_12  and  C5_14 
REMARK    4  A    between atoms: N7_17  and  C6_18 
REMARK    5  A    between atoms: C6_18  and  O1_19 
REMARK    6  A    between atoms: N8_22  and  N9_24 
REMARK       I    between atoms: C8_26  and  N11_28 
ROOT
HETATM    1  N9  UNL     1       7.978  -0.299   4.711  1.00  0.00    -0.272 N 
ATOM      2  H9  UNL     1       8.271  -0.428   5.680  1.00  0.00     0.189 HD
HETATM    3  C8  UNL     1       7.027  -1.017   4.221  1.00  0.00     0.216 C 
HETATM    4  N10 UNL     1       6.556  -0.906   2.888  1.00  0.00    -0.061 NA
HETATM    5  N11 UNL     1       6.414  -1.979   5.070  1.00  0.00    -0.266 N 
ATOM      6  H11 UNL     1       6.813  -2.917   5.101  1.00  0.00     0.180 HD
HETATM    7  C9  UNL     1       5.303  -1.716   5.861  1.00  0.00     0.184 C 
HETATM    8  N12 UNL     1       4.374  -1.507   6.527  1.00  0.00    -0.172 NA
ENDROOT
BRANCH   1   9
HETATM    9  N8  UNL     1       8.594   0.638   3.925  1.00  0.00    -0.283 N 
HETATM   10  C7  UNL     1       9.813   0.981   3.881  1.00  0.00     0.154 C 
HETATM   11  C5  UNL     1      10.438   1.986   3.028  1.00  0.00     0.281 C 
HETATM   12  N7  UNL     1      10.863   0.447   4.670  1.00  0.00    -0.239 N 
HETATM   13  N5  UNL     1      11.786   2.097   3.613  1.00  0.00    -0.092 NA
HETATM   14  N6  UNL     1      12.102   0.799   4.046  1.00  0.00    -0.023 NA
ATOM     15  H8  UNL     1       7.980   1.133   3.278  1.00  0.00     0.188 HD
BRANCH  11  16
HETATM   16  N4  UNL     1       9.842   3.284   3.100  1.00  0.00    -0.199 N 
ATOM     17  H4  UNL     1       9.696   3.751   3.995  1.00  0.00     0.180 HD
BRANCH  16  18
HETATM   18  C4  UNL     1       9.494   3.846   1.976  1.00  0.00     0.696 A 
HETATM   19  N3  UNL     1       8.461   4.696   1.880  1.00  0.00    -0.165 N 
HETATM   20  C3  UNL     1       8.087   5.286   0.729  1.00  0.00     0.208 A 
ATOM     21  H3  UNL     1       7.930   4.908   2.725  1.00  0.00     0.186 HD
HETATM   22  N2  UNL     1       8.782   5.011  -0.385  1.00  0.00    -0.165 N 
HETATM   23 CL1  UNL     1       6.722   6.395   0.661  1.00  0.00    -0.044 Cl
HETATM   24  C2  UNL     1       9.826   4.166  -0.346  1.00  0.00     0.694 A 
ATOM     25  H2  UNL     1       8.515   5.446  -1.269  1.00  0.00     0.186 HD
HETATM   26  N13 UNL     1      10.174   3.589   0.838  1.00  0.00    -0.022 N 
ATOM     27  H13 UNL     1      10.966   2.948   0.866  1.00  0.00     0.203 HD
BRANCH  24  28
HETATM   28  N1  UNL     1      10.466   3.926  -1.430  1.00  0.00    -0.230 N 
HETATM   29  C1  UNL     1      11.711   3.209  -1.411  1.00  0.00     0.165 C 
ATOM     30  H1  UNL     1      10.086   4.250  -2.320  1.00  0.00     0.177 HD
ENDBRANCH  24  28
ENDBRANCH  16  18
ENDBRANCH  11  16
BRANCH  12  31
HETATM   31  C6  UNL     1      10.854  -0.318   5.882  1.00  0.00     0.312 C 
BRANCH  31  32
HETATM   32  O1  UNL     1      10.338  -1.613   5.645  1.00  0.00    -0.381 OA
ATOM     33  H1  UNL     1      10.931  -2.111   5.096  1.00  0.00     0.211 HD
ENDBRANCH  31  32
ENDBRANCH  12  31
ENDBRANCH   1   9
TORSDOF 6
ENDMDL
MODEL 3
REMARK VINA RESULT: -8.095382930      1.314      1.405
REMARK  6 active torsions:
REMARK  status: ('A' for Active; 'I' for Inactive)
REMARK    1  A    between atoms: N1_2  and  C2_4 
REMARK    2  A    between atoms: C4_11  and  N4_12 
REMARK    3  A    between atoms: N4_12  and  C5_14 
REMARK    4  A    between atoms: N7_17  and  C6_18 
REMARK    5  A    between atoms: C6_18  and  O1_19 
REMARK    6  A    between atoms: N8_22  and  N9_24 
REMARK       I    between atoms: C8_26  and  N11_28 
ROOT
HETATM    1  N9  UNL     1       7.975  -0.327   4.716  1.00  0.00    -0.272 N 
ATOM      2  H9  UNL     1       8.275  -0.480   5.679  1.00  0.00     0.189 HD
HETATM    3  C8  UNL     1       7.013  -1.026   4.219  1.00  0.00     0.216 C 
HETATM    4  N10 UNL     1       6.532  -0.881   2.893  1.00  0.00    -0.061 NA
HETATM    5  N11 UNL     1       6.398  -2.001   5.052  1.00  0.00    -0.266 N 
ATOM      6  H11 UNL     1       6.789  -2.942   5.058  1.00  0.00     0.180 HD
HETATM    7  C9  UNL     1       5.296  -1.745   5.858  1.00  0.00     0.184 C 
HETATM    8  N12 UNL     1       4.375  -1.542   6.537  1.00  0.00    -0.172 NA
ENDROOT
BRANCH   1   9
HETATM    9  N8  UNL     1       8.592   0.621   3.946  1.00  0.00    -0.283 N 
HETATM   10  C7  UNL     1       9.813   0.960   3.905  1.00  0.00     0.154 C 
HETATM   11  C5  UNL     1      10.440   1.978   3.069  1.00  0.00     0.281 C 
HETATM   12  N7  UNL     1      10.862   0.408   4.683  1.00  0.00    -0.239 N 
HETATM   13  N5  UNL     1      11.789   2.073   3.653  1.00  0.00    -0.092 NA
HETATM   14  N6  UNL     1      12.101   0.767   4.063  1.00  0.00    -0.023 NA
ATOM     15  H8  UNL     1       7.979   1.130   3.309  1.00  0.00     0.188 HD
BRANCH  11  16
HETATM   16  N4  UNL     1       9.849   3.277   3.165  1.00  0.00    -0.199 N 
ATOM     17  H4  UNL     1       9.661   3.708   4.070  1.00  0.00     0.180 HD
BRANCH  16  18
HETATM   18  C4  UNL     1       9.560   3.887   2.050  1.00  0.00     0.696 A 
HETATM   19  N3  UNL     1      10.179   3.614   0.892  1.00  0.00    -0.165 N 
HETATM   20  C3  UNL     1       9.894   4.233  -0.269  1.00  0.00     0.208 A 
ATOM     21  H3  UNL     1      10.906   2.897   0.891  1.00  0.00     0.186 HD
HETATM   22  N2  UNL     1       8.940   5.176  -0.272  1.00  0.00    -0.165 N 
HETATM   23 CL1  UNL     1      10.740   3.833  -1.760  1.00  0.00    -0.044 Cl
HETATM   24  C2  UNL     1       8.287   5.490   0.859  1.00  0.00     0.694 A 
ATOM     25  H2  UNL     1       8.708   5.659  -1.141  1.00  0.00     0.186 HD
HETATM   26  N13 UNL     1       8.604   4.840   2.014  1.00  0.00    -0.022 N 
ATOM     27  H13 UNL     1       8.108   5.080   2.873  1.00  0.00     0.203 HD
BRANCH  24  28
HETATM   28  N1  UNL     1       7.382   6.395   0.818  1.00  0.00    -0.230 N 
HETATM   29  C1  UNL     1       6.071   6.109   0.305  1.00  0.00     0.165 C 
ATOM     30  H1  UNL     1       7.595   7.335   1.156  1.00  0.00     0.177 HD
ENDBRANCH  24  28
ENDBRANCH  16  18
ENDBRANCH  11  16
BRANCH  12  31
HETATM   31  C6  UNL     1      10.852  -0.378   5.881  1.00  0.00     0.312 C 
BRANCH  31  32
HETATM   32  O1  UNL     1      10.295  -1.653   5.631  1.00  0.00    -0.381 OA
ATOM     33  H1  UNL     1      10.938  -2.222   5.224  1.00  0.00     0.211 HD
ENDBRANCH  31  32
ENDBRANCH  12  31
ENDBRANCH   1   9
TORSDOF 6
ENDMDL
MODEL 4
REMARK VINA RESULT: -8.060643139      1.440      2.104
REMARK  6 active torsions:
REMARK  status: ('A' for Active; 'I' for Inactive)
REMARK    1  A    between atoms: N1_2  and  C2_4 
REMARK    2  A    between atoms: C4_11  and  N4_12 
REMARK    3  A    between atoms: N4_12  and  C5_14 
REMARK    4  A    between atoms: N7_17  and  C6_18 
REMARK    5  A    between atoms: C6_18  and  O1_19 
REMARK    6  A    between atoms: N8_22  and  N9_24 
REMARK       I    between atoms: C8_26  and  N11_28 
ROOT
HETATM    1  N9  UNL     1       7.279  -1.796   3.710  1.00  0.00    -0.272 N 
ATOM      2  H9  UNL     1       7.642  -2.703   3.415  1.00  0.00     0.189 HD
HETATM    3  C8  UNL     1       6.138  -1.717   4.304  1.00  0.00     0.216 C 
HETATM    4  N10 UNL     1       5.558  -0.502   4.747  1.00  0.00    -0.061 NA
HETATM    5  N11 UNL     1       5.418  -2.924   4.526  1.00  0.00    -0.266 N 
ATOM      6  H11 UNL     1       4.775  -3.240   3.801  1.00  0.00     0.180 HD
HETATM    7  C9  UNL     1       5.541  -3.697   5.674  1.00  0.00     0.184 C 
HETATM    8  N12 UNL     1       5.636  -4.352   6.629  1.00  0.00    -0.172 NA
ENDROOT
BRANCH   1   9
HETATM    9  N8  UNL     1       8.002  -0.657   3.478  1.00  0.00    -0.283 N 
HETATM   10  C7  UNL     1       9.034  -0.221   4.069  1.00  0.00     0.154 C 
HETATM   11  C5  UNL     1       9.783   1.002   3.795  1.00  0.00     0.281 C 
HETATM   12  N7  UNL     1       9.706  -0.842   5.152  1.00  0.00    -0.239 N 
HETATM   13  N5  UNL     1      10.693   1.075   4.951  1.00  0.00    -0.092 NA
HETATM   14  N6  UNL     1      11.009  -0.259   5.251  1.00  0.00    -0.023 NA
ATOM     15  H8  UNL     1       7.658  -0.073   2.715  1.00  0.00     0.188 HD
BRANCH  11  16
HETATM   16  N4  UNL     1       8.997   2.197   3.803  1.00  0.00    -0.199 N 
ATOM     17  H4  UNL     1       8.413   2.442   4.602  1.00  0.00     0.180 HD
BRANCH  16  18
HETATM   18  C4  UNL     1       9.058   2.960   2.747  1.00  0.00     0.696 A 
HETATM   19  N3  UNL     1       8.281   4.041   2.588  1.00  0.00    -0.165 N 
HETATM   20  C3  UNL     1       8.331   4.840   1.506  1.00  0.00     0.208 A 
ATOM     21  H3  UNL     1       7.617   4.271   3.327  1.00  0.00     0.186 HD
HETATM   22  N2  UNL     1       9.202   4.542   0.530  1.00  0.00    -0.165 N 
HETATM   23 CL1  UNL     1       7.285   6.249   1.350  1.00  0.00    -0.044 Cl
HETATM   24  C2  UNL     1      10.005   3.470   0.638  1.00  0.00     0.694 A 
ATOM     25  H2  UNL     1       9.255   5.134  -0.299  1.00  0.00     0.186 HD
HETATM   26  N13 UNL     1       9.925   2.686   1.749  1.00  0.00    -0.022 N 
ATOM     27  H13 UNL     1      10.535   1.872   1.828  1.00  0.00     0.203 HD
BRANCH  24  28
HETATM   28  N1  UNL     1      10.825   3.216  -0.313  1.00  0.00    -0.230 N 
HETATM   29  C1  UNL     1      10.664   3.816  -1.610  1.00  0.00     0.165 C 
ATOM     30  H1  UNL     1      11.604   2.578  -0.148  1.00  0.00     0.177 HD
ENDBRANCH  24  28
ENDBRANCH  16  18
ENDBRANCH  11  16
BRANCH  12  31
HETATM   31  C6  UNL     1       9.300  -1.868   6.066  1.00  0.00     0.312 C 
BRANCH  31  32
HETATM   32  O1  UNL     1       8.038  -1.563   6.624  1.00  0.00    -0.381 OA
ATOM     33  H1  UNL     1       7.436  -2.288   6.501  1.00  0.00     0.211 HD
ENDBRANCH  31  32
ENDBRANCH  12  31
ENDBRANCH   1   9
TORSDOF 6
ENDMDL
MODEL 5
REMARK VINA RESULT: -7.692406392      3.408      7.606
REMARK  6 active torsions:
REMARK  status: ('A' for Active; 'I' for Inactive)
REMARK    1  A    between atoms: N1_2  and  C2_4 
REMARK    2  A    between atoms: C4_11  and  N4_12 
REMARK    3  A    between atoms: N4_12  and  C5_14 
REMARK    4  A    between atoms: N7_17  and  C6_18 
REMARK    5  A    between atoms: C6_18  and  O1_19 
REMARK    6  A    between atoms: N8_22  and  N9_24 
REMARK       I    between atoms: C8_26  and  N11_28 
ROOT
HETATM    1  N9  UNL     1       8.313   4.597   1.175  1.00  0.00    -0.272 N 
ATOM      2  H9  UNL     1       8.593   4.499   0.199  1.00  0.00     0.189 HD
HETATM    3  C8  UNL     1       7.572   5.586   1.540  1.00  0.00     0.216 C 
HETATM    4  N10 UNL     1       7.137   5.801   2.872  1.00  0.00    -0.061 NA
HETATM    5  N11 UNL     1       7.168   6.519   0.545  1.00  0.00    -0.266 N 
ATOM      6  H11 UNL     1       7.772   7.320   0.364  1.00  0.00     0.180 HD
HETATM    7  C9  UNL     1       5.999   6.402  -0.195  1.00  0.00     0.184 C 
HETATM    8  N12 UNL     1       5.023   6.314  -0.820  1.00  0.00    -0.172 NA
ENDROOT
BRANCH   1   9
HETATM    9  N8  UNL     1       8.723   3.679   2.104  1.00  0.00    -0.283 N 
HETATM   10  C7  UNL     1       9.779   2.980   2.137  1.00  0.00     0.154 C 
HETATM   11  C5  UNL     1      10.187   2.007   3.146  1.00  0.00     0.281 C 
HETATM   12  N7  UNL     1      10.825   2.994   1.179  1.00  0.00    -0.239 N 
HETATM   13  N5  UNL     1      11.350   1.366   2.507  1.00  0.00    -0.092 NA
HETATM   14  N6  UNL     1      11.975   2.389   1.777  1.00  0.00    -0.023 NA
ATOM     15  H8  UNL     1       8.082   3.536   2.884  1.00  0.00     0.188 HD
BRANCH  11  16
HETATM   16  N4  UNL     1       9.229   0.977   3.403  1.00  0.00    -0.199 N 
ATOM     17  H4  UNL     1       8.404   0.861   2.813  1.00  0.00     0.180 HD
BRANCH  16  18
HETATM   18  C4  UNL     1       9.451   0.193   4.420  1.00  0.00     0.696 A 
HETATM   19  N3  UNL     1       8.534  -0.665   4.888  1.00  0.00    -0.165 N 
HETATM   20  C3  UNL     1       8.746  -1.483   5.937  1.00  0.00     0.208 A 
ATOM     21  H3  UNL     1       7.626  -0.702   4.425  1.00  0.00     0.186 HD
HETATM   22  N2  UNL     1       9.938  -1.439   6.551  1.00  0.00    -0.165 N 
HETATM   23 CL1  UNL     1       7.504  -2.592   6.509  1.00  0.00    -0.044 Cl
HETATM   24  C2  UNL     1      10.894  -0.597   6.123  1.00  0.00     0.694 A 
ATOM     25  H2  UNL     1      10.120  -2.049   7.348  1.00  0.00     0.186 HD
HETATM   26  N13 UNL     1      10.641   0.214   5.058  1.00  0.00    -0.022 N 
ATOM     27  H13 UNL     1      11.368   0.852   4.735  1.00  0.00     0.203 HD
BRANCH  24  28
HETATM   28  N1  UNL     1      12.021  -0.583   6.733  1.00  0.00    -0.230 N 
HETATM   29  C1  UNL     1      12.095  -0.775   8.155  1.00  0.00     0.165 C 
ATOM     30  H1  UNL     1      12.878  -0.433   6.201  1.00  0.00     0.177 HD
ENDBRANCH  24  28
ENDBRANCH  16  18
ENDBRANCH  11  16
BRANCH  12  31
HETATM   31  C6  UNL     1      10.880   3.480  -0.168  1.00  0.00     0.312 C 
BRANCH  31  32
HETATM   32  O1  UNL     1      12.026   2.983  -0.827  1.00  0.00    -0.381 OA
ATOM     33  H1  UNL     1      12.630   3.691  -1.023  1.00  0.00     0.211 HD
ENDBRANCH  31  32
ENDBRANCH  12  31
ENDBRANCH   1   9
TORSDOF 6
ENDMDL
