MODEL 1
REMARK VINA RESULT: -6.309695539      0.000      0.000
REMARK  4 active torsions:
REMARK  status: ('A' for Active; 'I' for Inactive)
REMARK    1  A    between atoms: O1_2  and  C2_3 
REMARK    2  A    between atoms: C4_6  and  O3_7 
REMARK    3  A    between atoms: C5_9  and  N1_11 
REMARK    4  A    between atoms: N1_11  and  O4_13 
ROOT
HETATM    1  C2  UNL     1      -7.852  53.285  12.359  1.00  0.00     0.265 C 
HETATM    2  O2  UNL     1      -7.893  54.672  12.109  1.00  0.00    -0.358 OA
HETATM    3  C3  UNL     1      -7.932  55.282  13.356  1.00  0.00     0.205 C 
HETATM    4  C4  UNL     1      -6.489  55.383  13.834  1.00  0.00     0.172 C 
HETATM    5  C5  UNL     1      -5.835  54.061  13.546  1.00  0.00     0.083 C 
HETATM    6  C6  UNL     1      -5.099  54.198  12.219  1.00  0.00     0.043 C 
HETATM    7  C7  UNL     1      -6.879  52.974  13.476  1.00  0.00     0.069 C 
HETATM    8  C8  UNL     1      -6.195  51.673  13.160  1.00  0.00     0.017 C 
ENDROOT
BRANCH   5   9
HETATM    9  N1  UNL     1      -4.849  53.741  14.550  1.00  0.00    -0.292 N 
ATOM     10  H1  UNL     1      -3.849  53.871  14.396  1.00  0.00     0.188 HD
BRANCH   9  11
HETATM   11  O4  UNL     1      -5.342  53.266  15.692  1.00  0.00    -0.294 OA
ATOM     12  H4  UNL     1      -4.759  53.331  16.439  1.00  0.00     0.244 HD
ENDBRANCH   9  11
ENDBRANCH   5   9
BRANCH   4  13
HETATM   13  O3  UNL     1      -6.512  55.585  15.204  1.00  0.00    -0.391 OA
ATOM     14  H3  UNL     1      -5.909  54.965  15.597  1.00  0.00     0.210 HD
ENDBRANCH   4  13
BRANCH   1  15
HETATM   15  O1  UNL     1      -9.106  52.780  12.558  1.00  0.00    -0.366 OA
HETATM   16  C1  UNL     1      -9.548  51.908  11.597  1.00  0.00     0.204 C 
ENDBRANCH   1  15
TORSDOF 4
ENDMDL
MODEL 2
REMARK VINA RESULT: -6.129653866      1.608      1.932
REMARK  4 active torsions:
REMARK  status: ('A' for Active; 'I' for Inactive)
REMARK    1  A    between atoms: O1_2  and  C2_3 
REMARK    2  A    between atoms: C4_6  and  O3_7 
REMARK    3  A    between atoms: C5_9  and  N1_11 
REMARK    4  A    between atoms: N1_11  and  O4_13 
ROOT
HETATM    1  C2  UNL     1      -6.668  52.443  12.329  1.00  0.00     0.265 C 
HETATM    2  O2  UNL     1      -7.163  53.448  11.473  1.00  0.00    -0.358 OA
HETATM    3  C3  UNL     1      -8.208  54.052  12.161  1.00  0.00     0.205 C 
HETATM    4  C4  UNL     1      -7.579  55.099  13.071  1.00  0.00     0.172 C 
HETATM    5  C5  UNL     1      -6.382  54.461  13.717  1.00  0.00     0.083 C 
HETATM    6  C6  UNL     1      -5.159  54.857  12.899  1.00  0.00     0.043 C 
HETATM    7  C7  UNL     1      -6.550  52.961  13.746  1.00  0.00     0.069 C 
HETATM    8  C8  UNL     1      -5.325  52.355  14.372  1.00  0.00     0.017 C 
ENDROOT
BRANCH   5   9
HETATM    9  N1  UNL     1      -6.184  54.966  15.054  1.00  0.00    -0.292 N 
ATOM     10  H1  UNL     1      -6.084  54.353  15.863  1.00  0.00     0.188 HD
BRANCH   9  11
HETATM   11  O4  UNL     1      -6.142  56.294  15.153  1.00  0.00    -0.294 OA
ATOM     12  H4  UNL     1      -6.090  56.757  14.325  1.00  0.00     0.244 HD
ENDBRANCH   9  11
ENDBRANCH   5   9
BRANCH   4  13
HETATM   13  O3  UNL     1      -8.504  55.416  14.051  1.00  0.00    -0.391 OA
ATOM     14  H3  UNL     1      -8.496  56.359  14.162  1.00  0.00     0.210 HD
ENDBRANCH   4  13
BRANCH   1  15
HETATM   15  O1  UNL     1      -7.396  51.293  12.217  1.00  0.00    -0.366 OA
HETATM   16  C1  UNL     1      -6.744  50.239  11.630  1.00  0.00     0.204 C 
ENDBRANCH   1  15
TORSDOF 4
ENDMDL
MODEL 3
REMARK VINA RESULT: -5.823550910      1.393      1.433
REMARK  4 active torsions:
REMARK  status: ('A' for Active; 'I' for Inactive)
REMARK    1  A    between atoms: O1_2  and  C2_3 
REMARK    2  A    between atoms: C4_6  and  O3_7 
REMARK    3  A    between atoms: C5_9  and  N1_11 
REMARK    4  A    between atoms: N1_11  and  O4_13 
ROOT
HETATM    1  C2  UNL     1      -6.954  53.525  11.367  1.00  0.00     0.265 C 
HETATM    2  O2  UNL     1      -6.376  54.810  11.408  1.00  0.00    -0.358 OA
HETATM    3  C3  UNL     1      -6.988  55.468  12.468  1.00  0.00     0.205 C 
HETATM    4  C4  UNL     1      -6.232  55.059  13.726  1.00  0.00     0.172 C 
HETATM    5  C5  UNL     1      -6.018  53.573  13.647  1.00  0.00     0.083 C 
HETATM    6  C6  UNL     1      -4.621  53.345  13.085  1.00  0.00     0.043 C 
HETATM    7  C7  UNL     1      -7.067  52.947  12.761  1.00  0.00     0.069 C 
HETATM    8  C8  UNL     1      -6.806  51.468  12.683  1.00  0.00     0.017 C 
ENDROOT
BRANCH   5   9
HETATM    9  N1  UNL     1      -6.053  52.975  14.960  1.00  0.00    -0.292 N 
ATOM     10  H1  UNL     1      -6.731  52.258  15.218  1.00  0.00     0.188 HD
BRANCH   9  11
HETATM   11  O4  UNL     1      -5.135  53.430  15.810  1.00  0.00    -0.294 OA
ATOM     12  H4  UNL     1      -5.476  53.935  16.539  1.00  0.00     0.244 HD
ENDBRANCH   9  11
ENDBRANCH   5   9
BRANCH   4  13
HETATM   13  O3  UNL     1      -7.042  55.340  14.813  1.00  0.00    -0.391 OA
ATOM     14  H3  UNL     1      -6.480  55.604  15.532  1.00  0.00     0.210 HD
ENDBRANCH   4  13
BRANCH   1  15
HETATM   15  O1  UNL     1      -8.131  53.533  10.673  1.00  0.00    -0.366 OA
HETATM   16  C1  UNL     1      -8.031  53.222   9.342  1.00  0.00     0.204 C 
ENDBRANCH   1  15
TORSDOF 4
ENDMDL
MODEL 4
REMARK VINA RESULT: -5.722179995      2.214      3.031
REMARK  4 active torsions:
REMARK  status: ('A' for Active; 'I' for Inactive)
REMARK    1  A    between atoms: O1_2  and  C2_3 
REMARK    2  A    between atoms: C4_6  and  O3_7 
REMARK    3  A    between atoms: C5_9  and  N1_11 
REMARK    4  A    between atoms: N1_11  and  O4_13 
ROOT
HETATM    1  C2  UNL     1      -6.249  53.016  11.481  1.00  0.00     0.265 C 
HETATM    2  O2  UNL     1      -5.138  52.361  12.052  1.00  0.00    -0.358 OA
HETATM    3  C3  UNL     1      -4.108  53.293  12.054  1.00  0.00     0.205 C 
HETATM    4  C4  UNL     1      -4.290  54.137  13.309  1.00  0.00     0.172 C 
HETATM    5  C5  UNL     1      -5.752  54.474  13.406  1.00  0.00     0.083 C 
HETATM    6  C6  UNL     1      -6.390  53.459  14.347  1.00  0.00     0.043 C 
HETATM    7  C7  UNL     1      -6.386  54.416  12.038  1.00  0.00     0.069 C 
HETATM    8  C8  UNL     1      -7.850  54.729  12.175  1.00  0.00     0.017 C 
ENDROOT
BRANCH   5   9
HETATM    9  N1  UNL     1      -5.945  55.779  13.991  1.00  0.00    -0.292 N 
ATOM     10  H1  UNL     1      -5.726  56.641  13.491  1.00  0.00     0.188 HD
BRANCH   9  11
HETATM   11  O4  UNL     1      -6.432  55.774  15.230  1.00  0.00    -0.294 OA
ATOM     12  H4  UNL     1      -7.345  56.022  15.304  1.00  0.00     0.244 HD
ENDBRANCH   9  11
ENDBRANCH   5   9
BRANCH   4  13
HETATM   13  O3  UNL     1      -3.570  55.307  13.139  1.00  0.00    -0.391 OA
ATOM     14  H3  UNL     1      -4.164  56.036  13.277  1.00  0.00     0.210 HD
ENDBRANCH   4  13
BRANCH   1  15
HETATM   15  O1  UNL     1      -6.208  52.962  10.116  1.00  0.00    -0.366 OA
HETATM   16  C1  UNL     1      -6.936  51.951   9.545  1.00  0.00     0.204 C 
ENDBRANCH   1  15
TORSDOF 4
ENDMDL
MODEL 5
REMARK VINA RESULT: -5.660194854      3.677      4.473
REMARK  4 active torsions:
REMARK  status: ('A' for Active; 'I' for Inactive)
REMARK    1  A    between atoms: O1_2  and  C2_3 
REMARK    2  A    between atoms: C4_6  and  O3_7 
REMARK    3  A    between atoms: C5_9  and  N1_11 
REMARK    4  A    between atoms: N1_11  and  O4_13 
ROOT
HETATM    1  C2  UNL     1      -4.688  52.336  12.502  1.00  0.00     0.265 C 
HETATM    2  O2  UNL     1      -4.228  53.616  12.130  1.00  0.00    -0.358 OA
HETATM    3  C3  UNL     1      -3.293  53.977  13.092  1.00  0.00     0.205 C 
HETATM    4  C4  UNL     1      -1.971  53.350  12.669  1.00  0.00     0.172 C 
HETATM    5  C5  UNL     1      -2.268  51.937  12.249  1.00  0.00     0.083 C 
HETATM    6  C6  UNL     1      -2.420  51.936  10.734  1.00  0.00     0.043 C 
HETATM    7  C7  UNL     1      -3.531  51.455  12.920  1.00  0.00     0.069 C 
HETATM    8  C8  UNL     1      -3.812  50.052  12.458  1.00  0.00     0.017 C 
ENDROOT
BRANCH   5   9
HETATM    9  N1  UNL     1      -1.167  51.060  12.568  1.00  0.00    -0.292 N 
ATOM     10  H1  UNL     1      -1.174  50.447  13.384  1.00  0.00     0.188 HD
BRANCH   9  11
HETATM   11  O4  UNL     1      -0.143  51.111  11.719  1.00  0.00    -0.294 OA
ATOM     12  H4  UNL     1       0.381  50.320  11.674  1.00  0.00     0.244 HD
ENDBRANCH   9  11
ENDBRANCH   5   9
BRANCH   4  13
HETATM   13  O3  UNL     1      -1.142  53.325  13.777  1.00  0.00    -0.391 OA
ATOM     14  H3  UNL     1      -0.338  52.885  13.528  1.00  0.00     0.210 HD
ENDBRANCH   4  13
BRANCH   1  15
HETATM   15  O1  UNL     1      -5.686  52.418  13.431  1.00  0.00    -0.366 OA
HETATM   16  C1  UNL     1      -6.946  52.141  12.966  1.00  0.00     0.204 C 
ENDBRANCH   1  15
TORSDOF 4
ENDMDL
