MODEL 1
REMARK VINA RESULT: -6.642418672      0.000      0.000
REMARK  5 active torsions:
REMARK  status: ('A' for Active; 'I' for Inactive)
REMARK       I    between atoms: C1_2  and  N1_3 
REMARK       I    between atoms: C1_2  and  N2_7 
REMARK    1  A    between atoms: N1_3  and  O2_5 
REMARK    2  A    between atoms: N2_7  and  N3_8 
REMARK    3  A    between atoms: N3_8  and  N4_10 
REMARK    4  A    between atoms: N4_10  and  O3_11 
REMARK    5  A    between atoms: N4_10  and  N5_13 
ROOT
HETATM    1  N3  UNL     1      -5.076  55.607  13.526  1.00  0.00    -0.129 N 
ATOM      2  H3  UNL     1      -4.852  56.595  13.408  1.00  0.00     0.228 HD
ENDROOT
BRANCH   1   3
HETATM    3  N2  UNL     1      -4.131  54.833  13.171  1.00  0.00    -0.244 NA
HETATM    4  C1  UNL     1      -3.104  53.991  12.786  1.00  0.00     0.437 C 
HETATM    5  O1  UNL     1      -2.934  53.503  11.615  1.00  0.00    -0.226 OA
HETATM    6  N1  UNL     1      -2.088  53.576  13.706  1.00  0.00    -0.205 N 
ATOM      7  H1  UNL     1      -2.109  53.897  14.674  1.00  0.00     0.200 HD
BRANCH   6   8
HETATM    8  O2  UNL     1      -1.105  52.760  13.285  1.00  0.00    -0.285 OA
ATOM      9  H2  UNL     1      -0.215  53.088  13.229  1.00  0.00     0.244 HD
ENDBRANCH   6   8
ENDBRANCH   1   3
BRANCH   1  10
HETATM   10  N4  UNL     1      -6.254  55.407  14.003  1.00  0.00    -0.071 N 
BRANCH  10  11
HETATM   11  O3  UNL     1      -6.455  55.850  15.282  1.00  0.00    -0.252 OA
ATOM     12  H3  UNL     1      -6.970  55.276  15.837  1.00  0.00     0.248 HD
ENDBRANCH  10  11
BRANCH  10  13
HETATM   13  N5  UNL     1      -7.273  54.804  13.299  1.00  0.00    -0.285 N 
HETATM   14  C2  UNL     1      -8.344  55.396  12.485  1.00  0.00     0.147 C 
HETATM   15  C3  UNL     1      -8.263  54.528  11.231  1.00  0.00     0.023 C 
HETATM   16  C4  UNL     1      -7.718  53.205  11.692  1.00  0.00     0.023 C 
HETATM   17  C5  UNL     1      -7.549  53.392  13.185  1.00  0.00     0.147 C 
ENDBRANCH  10  13
ENDBRANCH   1  10
TORSDOF 5
ENDMDL
MODEL 2
REMARK VINA RESULT: -6.309005203      1.093      1.394
REMARK  5 active torsions:
REMARK  status: ('A' for Active; 'I' for Inactive)
REMARK       I    between atoms: C1_2  and  N1_3 
REMARK       I    between atoms: C1_2  and  N2_7 
REMARK    1  A    between atoms: N1_3  and  O2_5 
REMARK    2  A    between atoms: N2_7  and  N3_8 
REMARK    3  A    between atoms: N3_8  and  N4_10 
REMARK    4  A    between atoms: N4_10  and  O3_11 
REMARK    5  A    between atoms: N4_10  and  N5_13 
ROOT
HETATM    1  N3  UNL     1      -4.940  55.387  13.564  1.00  0.00    -0.129 N 
ATOM      2  H3  UNL     1      -4.798  56.380  13.381  1.00  0.00     0.228 HD
ENDROOT
BRANCH   1   3
HETATM    3  N2  UNL     1      -3.950  54.666  13.217  1.00  0.00    -0.244 NA
HETATM    4  C1  UNL     1      -2.876  53.882  12.840  1.00  0.00     0.437 C 
HETATM    5  O1  UNL     1      -1.855  53.613  13.562  1.00  0.00    -0.226 OA
HETATM    6  N1  UNL     1      -2.810  53.270  11.547  1.00  0.00    -0.205 N 
ATOM      7  H1  UNL     1      -3.564  53.408  10.874  1.00  0.00     0.200 HD
BRANCH   6   8
HETATM    8  O2  UNL     1      -1.747  52.512  11.225  1.00  0.00    -0.285 OA
ATOM      9  H2  UNL     1      -1.643  52.206  10.331  1.00  0.00     0.244 HD
ENDBRANCH   6   8
ENDBRANCH   1   3
BRANCH   1  10
HETATM   10  N4  UNL     1      -6.082  55.127  14.097  1.00  0.00    -0.071 N 
BRANCH  10  11
HETATM   11  O3  UNL     1      -6.448  55.941  15.134  1.00  0.00    -0.252 OA
ATOM     12  H3  UNL     1      -5.732  56.362  15.596  1.00  0.00     0.248 HD
ENDBRANCH  10  11
BRANCH  10  13
HETATM   13  N5  UNL     1      -6.913  54.114  13.671  1.00  0.00    -0.285 N 
HETATM   14  C2  UNL     1      -8.085  54.158  12.784  1.00  0.00     0.147 C 
HETATM   15  C3  UNL     1      -7.776  52.992  11.847  1.00  0.00     0.023 C 
HETATM   16  C4  UNL     1      -6.933  52.042  12.649  1.00  0.00     0.023 C 
HETATM   17  C5  UNL     1      -6.835  52.712  14.004  1.00  0.00     0.147 C 
ENDBRANCH  10  13
ENDBRANCH   1  10
TORSDOF 5
ENDMDL
MODEL 3
REMARK VINA RESULT: -6.297529920      1.152      1.490
REMARK  5 active torsions:
REMARK  status: ('A' for Active; 'I' for Inactive)
REMARK       I    between atoms: C1_2  and  N1_3 
REMARK       I    between atoms: C1_2  and  N2_7 
REMARK    1  A    between atoms: N1_3  and  O2_5 
REMARK    2  A    between atoms: N2_7  and  N3_8 
REMARK    3  A    between atoms: N3_8  and  N4_10 
REMARK    4  A    between atoms: N4_10  and  O3_11 
REMARK    5  A    between atoms: N4_10  and  N5_13 
ROOT
HETATM    1  N3  UNL     1      -5.261  54.030  14.456  1.00  0.00    -0.129 N 
ATOM      2  H3  UNL     1      -5.336  53.449  15.291  1.00  0.00     0.228 HD
ENDROOT
BRANCH   1   3
HETATM    3  N2  UNL     1      -4.185  53.838  13.805  1.00  0.00    -0.244 NA
HETATM    4  C1  UNL     1      -3.016  53.628  13.097  1.00  0.00     0.437 C 
HETATM    5  O1  UNL     1      -1.834  53.631  13.586  1.00  0.00    -0.226 OA
HETATM    6  N1  UNL     1      -3.027  53.371  11.688  1.00  0.00    -0.205 N 
ATOM      7  H1  UNL     1      -3.910  53.342  11.178  1.00  0.00     0.200 HD
BRANCH   6   8
HETATM    8  O2  UNL     1      -1.866  53.169  11.041  1.00  0.00    -0.285 OA
ATOM      9  H2  UNL     1      -1.706  53.609  10.215  1.00  0.00     0.244 HD
ENDBRANCH   6   8
ENDBRANCH   1   3
BRANCH   1  10
HETATM   10  N4  UNL     1      -6.274  54.804  14.284  1.00  0.00    -0.071 N 
BRANCH  10  11
HETATM   11  O3  UNL     1      -6.475  55.739  15.263  1.00  0.00    -0.252 OA
ATOM     12  H3  UNL     1      -7.213  55.576  15.839  1.00  0.00     0.248 HD
ENDBRANCH  10  11
BRANCH  10  13
HETATM   13  N5  UNL     1      -7.115  54.736  13.194  1.00  0.00    -0.285 N 
HETATM   14  C2  UNL     1      -8.327  55.506  12.881  1.00  0.00     0.147 C 
HETATM   15  C3  UNL     1      -8.051  55.894  11.430  1.00  0.00     0.023 C 
HETATM   16  C4  UNL     1      -7.162  54.811  10.886  1.00  0.00     0.023 C 
HETATM   17  C5  UNL     1      -7.008  53.859  12.053  1.00  0.00     0.147 C 
ENDBRANCH  10  13
ENDBRANCH   1  10
TORSDOF 5
ENDMDL
MODEL 4
REMARK VINA RESULT: -6.155635062      1.762      2.060
REMARK  5 active torsions:
REMARK  status: ('A' for Active; 'I' for Inactive)
REMARK       I    between atoms: C1_2  and  N1_3 
REMARK       I    between atoms: C1_2  and  N2_7 
REMARK    1  A    between atoms: N1_3  and  O2_5 
REMARK    2  A    between atoms: N2_7  and  N3_8 
REMARK    3  A    between atoms: N3_8  and  N4_10 
REMARK    4  A    between atoms: N4_10  and  O3_11 
REMARK    5  A    between atoms: N4_10  and  N5_13 
ROOT
HETATM    1  N3  UNL     1      -4.578  52.538  13.819  1.00  0.00    -0.129 N 
ATOM      2  H3  UNL     1      -4.892  51.589  13.618  1.00  0.00     0.228 HD
ENDROOT
BRANCH   1   3
HETATM    3  N2  UNL     1      -3.399  52.776  13.404  1.00  0.00    -0.244 NA
HETATM    4  C1  UNL     1      -2.118  53.033  12.953  1.00  0.00     0.437 C 
HETATM    5  O1  UNL     1      -1.068  53.110  13.680  1.00  0.00    -0.226 OA
HETATM    6  N1  UNL     1      -1.839  53.241  11.563  1.00  0.00    -0.205 N 
ATOM      7  H1  UNL     1      -2.592  53.205  10.877  1.00  0.00     0.200 HD
BRANCH   6   8
HETATM    8  O2  UNL     1      -0.576  53.484  11.169  1.00  0.00    -0.285 OA
ATOM      9  H2  UNL     1      -0.404  53.714  10.264  1.00  0.00     0.244 HD
ENDBRANCH   6   8
ENDBRANCH   1   3
BRANCH   1  10
HETATM   10  N4  UNL     1      -5.458  53.243  14.439  1.00  0.00    -0.071 N 
BRANCH  10  11
HETATM   11  O3  UNL     1      -5.217  53.448  15.771  1.00  0.00    -0.252 OA
ATOM     12  H3  UNL     1      -5.798  54.064  16.202  1.00  0.00     0.248 HD
ENDBRANCH  10  11
BRANCH  10  13
HETATM   13  N5  UNL     1      -6.572  53.784  13.835  1.00  0.00    -0.285 N 
HETATM   14  C2  UNL     1      -6.951  55.190  13.629  1.00  0.00     0.147 C 
HETATM   15  C3  UNL     1      -7.352  55.164  12.156  1.00  0.00     0.023 C 
HETATM   16  C4  UNL     1      -7.817  53.760  11.889  1.00  0.00     0.023 C 
HETATM   17  C5  UNL     1      -7.678  53.079  13.235  1.00  0.00     0.147 C 
ENDBRANCH  10  13
ENDBRANCH   1  10
TORSDOF 5
ENDMDL
MODEL 5
REMARK VINA RESULT: -6.106219824      1.378      1.753
REMARK  5 active torsions:
REMARK  status: ('A' for Active; 'I' for Inactive)
REMARK       I    between atoms: C1_2  and  N1_3 
REMARK       I    between atoms: C1_2  and  N2_7 
REMARK    1  A    between atoms: N1_3  and  O2_5 
REMARK    2  A    between atoms: N2_7  and  N3_8 
REMARK    3  A    between atoms: N3_8  and  N4_10 
REMARK    4  A    between atoms: N4_10  and  O3_11 
REMARK    5  A    between atoms: N4_10  and  N5_13 
ROOT
HETATM    1  N3  UNL     1      -4.763  53.685  14.450  1.00  0.00    -0.129 N 
ATOM      2  H3  UNL     1      -4.671  53.314  15.396  1.00  0.00     0.228 HD
ENDROOT
BRANCH   1   3
HETATM    3  N2  UNL     1      -3.704  53.560  13.756  1.00  0.00    -0.244 NA
HETATM    4  C1  UNL     1      -2.554  53.423  13.002  1.00  0.00     0.437 C 
HETATM    5  O1  UNL     1      -1.365  53.318  13.461  1.00  0.00    -0.226 OA
HETATM    6  N1  UNL     1      -2.595  53.379  11.571  1.00  0.00    -0.205 N 
ATOM      7  H1  UNL     1      -3.486  53.452  11.080  1.00  0.00     0.200 HD
BRANCH   6   8
HETATM    8  O2  UNL     1      -1.451  53.240  10.878  1.00  0.00    -0.285 OA
ATOM      9  H2  UNL     1      -1.439  53.438   9.948  1.00  0.00     0.244 HD
ENDBRANCH   6   8
ENDBRANCH   1   3
BRANCH   1  10
HETATM   10  N4  UNL     1      -5.925  54.182  14.211  1.00  0.00    -0.071 N 
BRANCH  10  11
HETATM   11  O3  UNL     1      -6.331  55.171  15.065  1.00  0.00    -0.252 OA
ATOM     12  H3  UNL     1      -6.918  55.818  14.692  1.00  0.00     0.248 HD
ENDBRANCH  10  11
BRANCH  10  13
HETATM   13  N5  UNL     1      -6.730  53.780  13.167  1.00  0.00    -0.285 N 
HETATM   14  C2  UNL     1      -6.711  54.169  11.750  1.00  0.00     0.147 C 
HETATM   15  C3  UNL     1      -6.800  52.801  11.077  1.00  0.00     0.023 C 
HETATM   16  C4  UNL     1      -7.526  51.918  12.054  1.00  0.00     0.023 C 
HETATM   17  C5  UNL     1      -7.829  52.846  13.212  1.00  0.00     0.147 C 
ENDBRANCH  10  13
ENDBRANCH   1  10
TORSDOF 5
ENDMDL
