MODEL 1
REMARK VINA RESULT: -5.978913756      0.000      0.000
REMARK  6 active torsions:
REMARK  status: ('A' for Active; 'I' for Inactive)
REMARK    1  A    between atoms: C2_2  and  N1_3 
REMARK    2  A    between atoms: C2_2  and  C8_10 
REMARK    3  A    between atoms: C3_5  and  C4_6 
REMARK    4  A    between atoms: C8_10  and  O2_12 
REMARK    5  A    between atoms: O2_12  and  N2_13 
REMARK    6  A    between atoms: N2_13  and  O3_14 
ROOT
HETATM    1  C1  UNL     1      -6.029  51.951  12.263  1.00  0.00     0.043 C 
HETATM    2  C2  UNL     1      -5.324  53.289  12.393  1.00  0.00     0.178 C 
ENDROOT
BRANCH   2   3
HETATM    3  N1  UNL     1      -3.938  53.179  12.035  1.00  0.00    -0.388 N 
HETATM    4  C3  UNL     1      -3.439  52.081  11.612  1.00  0.00     0.065 C 
ATOM      5  H1  UNL     1      -3.337  53.998  12.121  1.00  0.00     0.159 HD
BRANCH   4   6
HETATM    6  C4  UNL     1      -2.007  51.949  11.237  1.00  0.00    -0.020 C 
HETATM    7  C5  UNL     1      -1.314  53.294  11.235  1.00  0.00     0.020 C 
HETATM    8  C6  UNL     1      -1.827  51.313   9.873  1.00  0.00     0.020 C 
HETATM    9  C7  UNL     1      -1.350  51.009  12.246  1.00  0.00     0.020 C 
ENDBRANCH   4   6
ENDBRANCH   2   3
BRANCH   2  10
HETATM   10  C8  UNL     1      -5.501  53.855  13.753  1.00  0.00     0.301 C 
HETATM   11  O1  UNL     1      -4.530  53.765  14.547  1.00  0.00    -0.261 OA
BRANCH  10  12
HETATM   12  O2  UNL     1      -6.646  54.467  14.199  1.00  0.00    -0.178 OA
BRANCH  12  13
HETATM   13  N2  UNL     1      -6.809  55.851  14.123  1.00  0.00     0.072 NA
BRANCH  13  14
HETATM   14  O3  UNL     1      -6.259  56.333  15.279  1.00  0.00    -0.271 OA
ATOM     15  H3  UNL     1      -5.994  57.222  15.071  1.00  0.00     0.241 HD
ENDBRANCH  13  14
ENDBRANCH  12  13
ENDBRANCH  10  12
ENDBRANCH   2  10
TORSDOF 6
ENDMDL
MODEL 2
REMARK VINA RESULT: -5.970631976      0.241      1.266
REMARK  6 active torsions:
REMARK  status: ('A' for Active; 'I' for Inactive)
REMARK    1  A    between atoms: C2_2  and  N1_3 
REMARK    2  A    between atoms: C2_2  and  C8_10 
REMARK    3  A    between atoms: C3_5  and  C4_6 
REMARK    4  A    between atoms: C8_10  and  O2_12 
REMARK    5  A    between atoms: O2_12  and  N2_13 
REMARK    6  A    between atoms: N2_13  and  O3_14 
ROOT
HETATM    1  C1  UNL     1      -6.089  51.917  12.290  1.00  0.00     0.043 C 
HETATM    2  C2  UNL     1      -5.424  53.280  12.369  1.00  0.00     0.178 C 
ENDROOT
BRANCH   2   3
HETATM    3  N1  UNL     1      -4.054  53.210  11.945  1.00  0.00    -0.388 N 
HETATM    4  C3  UNL     1      -3.533  52.118  11.531  1.00  0.00     0.065 C 
ATOM      5  H1  UNL     1      -3.482  54.054  11.974  1.00  0.00     0.159 HD
BRANCH   4   6
HETATM    6  C4  UNL     1      -2.118  52.029  11.089  1.00  0.00    -0.020 C 
HETATM    7  C5  UNL     1      -1.392  50.903  11.792  1.00  0.00     0.020 C 
HETATM    8  C6  UNL     1      -1.358  53.318  11.332  1.00  0.00     0.020 C 
HETATM    9  C7  UNL     1      -2.120  51.804   9.578  1.00  0.00     0.020 C 
ENDBRANCH   4   6
ENDBRANCH   2   3
BRANCH   2  10
HETATM   10  C8  UNL     1      -5.553  53.857  13.730  1.00  0.00     0.301 C 
HETATM   11  O1  UNL     1      -4.553  53.778  14.488  1.00  0.00    -0.261 OA
BRANCH  10  12
HETATM   12  O2  UNL     1      -6.683  54.469  14.213  1.00  0.00    -0.178 OA
BRANCH  12  13
HETATM   13  N2  UNL     1      -6.842  55.854  14.156  1.00  0.00     0.072 NA
BRANCH  13  14
HETATM   14  O3  UNL     1      -6.223  56.325  15.281  1.00  0.00    -0.271 OA
ATOM     15  H3  UNL     1      -5.318  56.045  15.197  1.00  0.00     0.241 HD
ENDBRANCH  13  14
ENDBRANCH  12  13
ENDBRANCH  10  12
ENDBRANCH   2  10
TORSDOF 6
ENDMDL
MODEL 3
REMARK VINA RESULT: -5.955416882      0.245      1.092
REMARK  6 active torsions:
REMARK  status: ('A' for Active; 'I' for Inactive)
REMARK    1  A    between atoms: C2_2  and  N1_3 
REMARK    2  A    between atoms: C2_2  and  C8_10 
REMARK    3  A    between atoms: C3_5  and  C4_6 
REMARK    4  A    between atoms: C8_10  and  O2_12 
REMARK    5  A    between atoms: O2_12  and  N2_13 
REMARK    6  A    between atoms: N2_13  and  O3_14 
ROOT
HETATM    1  C1  UNL     1      -6.114  51.902  12.300  1.00  0.00     0.043 C 
HETATM    2  C2  UNL     1      -5.446  53.263  12.377  1.00  0.00     0.178 C 
ENDROOT
BRANCH   2   3
HETATM    3  N1  UNL     1      -4.072  53.186  11.967  1.00  0.00    -0.388 N 
HETATM    4  C3  UNL     1      -3.563  52.100  11.524  1.00  0.00     0.065 C 
ATOM      5  H1  UNL     1      -3.487  54.020  12.030  1.00  0.00     0.159 HD
BRANCH   4   6
HETATM    6  C4  UNL     1      -2.144  52.003  11.096  1.00  0.00    -0.020 C 
HETATM    7  C5  UNL     1      -2.034  51.783   9.602  1.00  0.00     0.020 C 
HETATM    8  C6  UNL     1      -1.406  50.882  11.802  1.00  0.00     0.020 C 
HETATM    9  C7  UNL     1      -1.449  53.302  11.499  1.00  0.00     0.020 C 
ENDBRANCH   4   6
ENDBRANCH   2   3
BRANCH   2  10
HETATM   10  C8  UNL     1      -5.586  53.851  13.731  1.00  0.00     0.301 C 
HETATM   11  O1  UNL     1      -4.595  53.773  14.501  1.00  0.00    -0.261 OA
BRANCH  10  12
HETATM   12  O2  UNL     1      -6.719  54.472  14.198  1.00  0.00    -0.178 OA
BRANCH  12  13
HETATM   13  N2  UNL     1      -6.864  55.859  14.143  1.00  0.00     0.072 NA
BRANCH  13  14
HETATM   14  O3  UNL     1      -6.244  56.321  15.271  1.00  0.00    -0.271 OA
ATOM     15  H3  UNL     1      -6.702  57.125  15.489  1.00  0.00     0.241 HD
ENDBRANCH  13  14
ENDBRANCH  12  13
ENDBRANCH  10  12
ENDBRANCH   2  10
TORSDOF 6
ENDMDL
MODEL 4
REMARK VINA RESULT: -5.909670939      2.156      3.246
REMARK  6 active torsions:
REMARK  status: ('A' for Active; 'I' for Inactive)
REMARK    1  A    between atoms: C2_2  and  N1_3 
REMARK    2  A    between atoms: C2_2  and  C8_10 
REMARK    3  A    between atoms: C3_5  and  C4_6 
REMARK    4  A    between atoms: C8_10  and  O2_12 
REMARK    5  A    between atoms: O2_12  and  N2_13 
REMARK    6  A    between atoms: N2_13  and  O3_14 
ROOT
HETATM    1  C1  UNL     1      -8.127  54.598  10.523  1.00  0.00     0.043 C 
HETATM    2  C2  UNL     1      -7.176  55.305  11.473  1.00  0.00     0.178 C 
ENDROOT
BRANCH   2   3
HETATM    3  N1  UNL     1      -6.077  54.454  11.829  1.00  0.00    -0.388 N 
HETATM    4  C3  UNL     1      -6.192  53.180  11.852  1.00  0.00     0.065 C 
ATOM      5  H1  UNL     1      -5.180  54.876  12.070  1.00  0.00     0.159 HD
BRANCH   4   6
HETATM    6  C4  UNL     1      -5.065  52.286  12.218  1.00  0.00    -0.020 C 
HETATM    7  C5  UNL     1      -4.779  52.340  13.703  1.00  0.00     0.020 C 
HETATM    8  C6  UNL     1      -3.792  52.630  11.471  1.00  0.00     0.020 C 
HETATM    9  C7  UNL     1      -5.445  50.867  11.798  1.00  0.00     0.020 C 
ENDBRANCH   4   6
ENDBRANCH   2   3
BRANCH   2  10
HETATM   10  C8  UNL     1      -7.894  55.810  12.668  1.00  0.00     0.301 C 
HETATM   11  O1  UNL     1      -8.954  56.459  12.474  1.00  0.00    -0.261 OA
BRANCH  10  12
HETATM   12  O2  UNL     1      -7.482  55.618  13.964  1.00  0.00    -0.178 OA
BRANCH  12  13
HETATM   13  N2  UNL     1      -6.167  55.873  14.355  1.00  0.00     0.072 NA
BRANCH  13  14
HETATM   14  O3  UNL     1      -6.279  56.573  15.525  1.00  0.00    -0.271 OA
ATOM     15  H3  UNL     1      -5.513  57.135  15.547  1.00  0.00     0.241 HD
ENDBRANCH  13  14
ENDBRANCH  12  13
ENDBRANCH  10  12
ENDBRANCH   2  10
TORSDOF 6
ENDMDL
MODEL 5
REMARK VINA RESULT: -5.899697275      1.759      2.325
REMARK  6 active torsions:
REMARK  status: ('A' for Active; 'I' for Inactive)
REMARK    1  A    between atoms: C2_2  and  N1_3 
REMARK    2  A    between atoms: C2_2  and  C8_10 
REMARK    3  A    between atoms: C3_5  and  C4_6 
REMARK    4  A    between atoms: C8_10  and  O2_12 
REMARK    5  A    between atoms: O2_12  and  N2_13 
REMARK    6  A    between atoms: N2_13  and  O3_14 
ROOT
HETATM    1  C1  UNL     1      -7.490  54.034  10.600  1.00  0.00     0.043 C 
HETATM    2  C2  UNL     1      -6.782  54.839  11.675  1.00  0.00     0.178 C 
ENDROOT
BRANCH   2   3
HETATM    3  N1  UNL     1      -5.439  54.370  11.870  1.00  0.00    -0.388 N 
HETATM    4  C3  UNL     1      -5.164  53.122  11.921  1.00  0.00     0.065 C 
ATOM      5  H1  UNL     1      -4.685  55.050  11.968  1.00  0.00     0.159 HD
BRANCH   4   6
HETATM    6  C4  UNL     1      -3.781  52.620  12.122  1.00  0.00    -0.020 C 
HETATM    7  C5  UNL     1      -2.882  53.696  12.691  1.00  0.00     0.020 C 
HETATM    8  C6  UNL     1      -3.164  52.109  10.834  1.00  0.00     0.020 C 
HETATM    9  C7  UNL     1      -3.855  51.426  13.071  1.00  0.00     0.020 C 
ENDBRANCH   4   6
ENDBRANCH   2   3
BRANCH   2  10
HETATM   10  C8  UNL     1      -7.556  54.838  12.940  1.00  0.00     0.301 C 
HETATM   11  O1  UNL     1      -8.360  53.889  13.124  1.00  0.00    -0.261 OA
BRANCH  10  12
HETATM   12  O2  UNL     1      -7.454  55.797  13.917  1.00  0.00    -0.178 OA
BRANCH  12  13
HETATM   13  N2  UNL     1      -6.272  55.983  14.635  1.00  0.00     0.072 NA
BRANCH  13  14
HETATM   14  O3  UNL     1      -5.836  54.719  14.926  1.00  0.00    -0.271 OA
ATOM     15  H3  UNL     1      -5.851  54.258  14.095  1.00  0.00     0.241 HD
ENDBRANCH  13  14
ENDBRANCH  12  13
ENDBRANCH  10  12
ENDBRANCH   2  10
TORSDOF 6
ENDMDL
