MODEL 1
REMARK VINA RESULT: -6.620378769      0.000      0.000
REMARK  4 active torsions:
REMARK  status: ('A' for Active; 'I' for Inactive)
REMARK    1  A    between atoms: C2_2  and  C4_4 
REMARK    2  A    between atoms: C5_6  and  C6_7 
REMARK    3  A    between atoms: N1_8  and  O2_10 
REMARK    4  A    between atoms: C7_13  and  O4_14 
ROOT
HETATM    1  C4  UNL     1      -4.576  52.938  13.039  1.00  0.00     0.183 C 
HETATM    2  O1  UNL     1      -5.075  54.003  12.299  1.00  0.00    -0.346 OA
HETATM    3  C5  UNL     1      -6.202  54.465  12.931  1.00  0.00     0.305 C 
HETATM    4  O3  UNL     1      -6.610  53.500  13.838  1.00  0.00    -0.324 OA
HETATM    5  C7  UNL     1      -5.479  52.780  14.200  1.00  0.00     0.289 C 
ENDROOT
BRANCH   3   6
HETATM    6  C6  UNL     1      -5.976  55.790  13.577  1.00  0.00     0.147 C 
HETATM    7  N1  UNL     1      -6.010  55.908  14.859  1.00  0.00    -0.280 N 
ATOM      8  H1  UNL     1      -6.194  55.085  15.431  1.00  0.00     0.193 HD
BRANCH   7   9
HETATM    9  O2  UNL     1      -5.806  57.107  15.467  1.00  0.00    -0.290 OA
ATOM     10  H2  UNL     1      -5.629  57.167  16.398  1.00  0.00     0.244 HD
ENDBRANCH   7   9
ENDBRANCH   3   6
BRANCH   1  11
HETATM   11  C2  UNL     1      -4.489  51.746  12.137  1.00  0.00     0.011 C 
HETATM   12  C1  UNL     1      -5.785  51.077  11.856  1.00  0.00     0.012 C 
HETATM   13  C3  UNL     1      -3.504  50.709  12.637  1.00  0.00     0.012 C 
ENDBRANCH   1  11
BRANCH   5  14
HETATM   14  O4  UNL     1      -4.922  53.369  15.349  1.00  0.00    -0.368 OA
ATOM     15  H4  UNL     1      -5.340  53.037  16.135  1.00  0.00     0.212 HD
ENDBRANCH   5  14
TORSDOF 4
ENDMDL
MODEL 2
REMARK VINA RESULT: -6.607128351      0.544      1.066
REMARK  4 active torsions:
REMARK  status: ('A' for Active; 'I' for Inactive)
REMARK    1  A    between atoms: C2_2  and  C4_4 
REMARK    2  A    between atoms: C5_6  and  C6_7 
REMARK    3  A    between atoms: N1_8  and  O2_10 
REMARK    4  A    between atoms: C7_13  and  O4_14 
ROOT
HETATM    1  C4  UNL     1      -4.995  52.827  13.097  1.00  0.00     0.183 C 
HETATM    2  O1  UNL     1      -5.578  53.868  12.385  1.00  0.00    -0.346 OA
HETATM    3  C5  UNL     1      -6.572  54.407  13.164  1.00  0.00     0.305 C 
HETATM    4  O3  UNL     1      -6.852  53.509  14.182  1.00  0.00    -0.324 OA
HETATM    5  C7  UNL     1      -5.697  52.768  14.398  1.00  0.00     0.289 C 
ENDROOT
BRANCH   3   6
HETATM    6  C6  UNL     1      -6.205  55.756  13.682  1.00  0.00     0.147 C 
HETATM    7  N1  UNL     1      -6.056  55.954  14.946  1.00  0.00    -0.280 N 
ATOM      8  H1  UNL     1      -6.192  55.177  15.591  1.00  0.00     0.193 HD
BRANCH   7   9
HETATM    9  O2  UNL     1      -5.721  57.176  15.438  1.00  0.00    -0.290 OA
ATOM     10  H2  UNL     1      -6.249  57.945  15.257  1.00  0.00     0.244 HD
ENDBRANCH   7   9
ENDBRANCH   3   6
BRANCH   1  11
HETATM   11  C2  UNL     1      -5.091  51.585  12.267  1.00  0.00     0.011 C 
HETATM   12  C1  UNL     1      -3.900  50.699  12.326  1.00  0.00     0.012 C 
HETATM   13  C3  UNL     1      -5.407  51.878  10.815  1.00  0.00     0.012 C 
ENDBRANCH   1  11
BRANCH   5  14
HETATM   14  O4  UNL     1      -4.942  53.399  15.402  1.00  0.00    -0.368 OA
ATOM     15  H4  UNL     1      -4.022  53.173  15.324  1.00  0.00     0.212 HD
ENDBRANCH   5  14
TORSDOF 4
ENDMDL
MODEL 3
REMARK VINA RESULT: -6.423409192      1.207      1.490
REMARK  4 active torsions:
REMARK  status: ('A' for Active; 'I' for Inactive)
REMARK    1  A    between atoms: C2_2  and  C4_4 
REMARK    2  A    between atoms: C5_6  and  C6_7 
REMARK    3  A    between atoms: N1_8  and  O2_10 
REMARK    4  A    between atoms: C7_13  and  O4_14 
ROOT
HETATM    1  C4  UNL     1      -3.876  53.451  13.104  1.00  0.00     0.183 C 
HETATM    2  O1  UNL     1      -4.578  54.417  12.393  1.00  0.00    -0.346 OA
HETATM    3  C5  UNL     1      -5.915  54.242  12.650  1.00  0.00     0.305 C 
HETATM    4  O3  UNL     1      -6.082  52.987  13.213  1.00  0.00    -0.324 OA
HETATM    5  C7  UNL     1      -4.887  52.663  13.844  1.00  0.00     0.289 C 
ENDROOT
BRANCH   3   6
HETATM    6  C6  UNL     1      -6.464  55.328  13.511  1.00  0.00     0.147 C 
HETATM    7  N1  UNL     1      -5.871  55.659  14.606  1.00  0.00    -0.280 N 
ATOM      8  H1  UNL     1      -5.019  55.169  14.879  1.00  0.00     0.193 HD
BRANCH   7   9
HETATM    9  O2  UNL     1      -6.355  56.646  15.404  1.00  0.00    -0.290 OA
ATOM     10  H2  UNL     1      -5.782  57.301  15.786  1.00  0.00     0.244 HD
ENDBRANCH   7   9
ENDBRANCH   3   6
BRANCH   1  11
HETATM   11  C2  UNL     1      -3.048  52.668  12.133  1.00  0.00     0.011 C 
HETATM   12  C1  UNL     1      -2.841  51.242  12.494  1.00  0.00     0.012 C 
HETATM   13  C3  UNL     1      -1.699  53.305  11.874  1.00  0.00     0.012 C 
ENDBRANCH   1  11
BRANCH   5  14
HETATM   14  O4  UNL     1      -4.962  53.080  15.185  1.00  0.00    -0.368 OA
ATOM     15  H4  UNL     1      -5.251  53.983  15.242  1.00  0.00     0.212 HD
ENDBRANCH   5  14
TORSDOF 4
ENDMDL
MODEL 4
REMARK VINA RESULT: -6.065417174      1.262      1.880
REMARK  4 active torsions:
REMARK  status: ('A' for Active; 'I' for Inactive)
REMARK    1  A    between atoms: C2_2  and  C4_4 
REMARK    2  A    between atoms: C5_6  and  C6_7 
REMARK    3  A    between atoms: N1_8  and  O2_10 
REMARK    4  A    between atoms: C7_13  and  O4_14 
ROOT
HETATM    1  C4  UNL     1      -4.566  52.604  11.969  1.00  0.00     0.183 C 
HETATM    2  O1  UNL     1      -5.603  52.360  12.861  1.00  0.00    -0.346 OA
HETATM    3  C5  UNL     1      -5.308  53.002  14.038  1.00  0.00     0.305 C 
HETATM    4  O3  UNL     1      -3.964  53.338  14.016  1.00  0.00    -0.324 OA
HETATM    5  C7  UNL     1      -3.600  53.469  12.682  1.00  0.00     0.289 C 
ENDROOT
BRANCH   3   6
HETATM    6  C6  UNL     1      -6.186  54.186  14.262  1.00  0.00     0.147 C 
HETATM    7  N1  UNL     1      -5.727  55.241  14.841  1.00  0.00    -0.280 N 
ATOM      8  H1  UNL     1      -4.754  55.260  15.145  1.00  0.00     0.193 HD
BRANCH   7   9
HETATM    9  O2  UNL     1      -6.510  56.331  15.054  1.00  0.00    -0.290 OA
ATOM     10  H2  UNL     1      -6.144  57.207  15.082  1.00  0.00     0.244 HD
ENDBRANCH   7   9
ENDBRANCH   3   6
BRANCH   1  11
HETATM   11  C2  UNL     1      -4.022  51.285  11.515  1.00  0.00     0.011 C 
HETATM   12  C1  UNL     1      -5.044  50.233  11.282  1.00  0.00     0.012 C 
HETATM   13  C3  UNL     1      -2.966  50.738  12.454  1.00  0.00     0.012 C 
ENDBRANCH   1  11
BRANCH   5  14
HETATM   14  O4  UNL     1      -3.760  54.814  12.304  1.00  0.00    -0.368 OA
ATOM     15  H4  UNL     1      -3.130  55.367  12.750  1.00  0.00     0.212 HD
ENDBRANCH   5  14
TORSDOF 4
ENDMDL
MODEL 5
REMARK VINA RESULT: -6.050710441      1.373      2.155
REMARK  4 active torsions:
REMARK  status: ('A' for Active; 'I' for Inactive)
REMARK    1  A    between atoms: C2_2  and  C4_4 
REMARK    2  A    between atoms: C5_6  and  C6_7 
REMARK    3  A    between atoms: N1_8  and  O2_10 
REMARK    4  A    between atoms: C7_13  and  O4_14 
ROOT
HETATM    1  C4  UNL     1      -4.555  52.612  11.938  1.00  0.00     0.183 C 
HETATM    2  O1  UNL     1      -5.572  52.337  12.845  1.00  0.00    -0.346 OA
HETATM    3  C5  UNL     1      -5.275  52.980  14.020  1.00  0.00     0.305 C 
HETATM    4  O3  UNL     1      -3.941  53.352  13.980  1.00  0.00    -0.324 OA
HETATM    5  C7  UNL     1      -3.601  53.499  12.641  1.00  0.00     0.289 C 
ENDROOT
BRANCH   3   6
HETATM    6  C6  UNL     1      -6.180  54.140  14.265  1.00  0.00     0.147 C 
HETATM    7  N1  UNL     1      -5.732  55.216  14.812  1.00  0.00    -0.280 N 
ATOM      8  H1  UNL     1      -4.749  55.268  15.078  1.00  0.00     0.193 HD
BRANCH   7   9
HETATM    9  O2  UNL     1      -6.540  56.284  15.043  1.00  0.00    -0.290 OA
ATOM     10  H2  UNL     1      -6.251  57.172  14.868  1.00  0.00     0.244 HD
ENDBRANCH   7   9
ENDBRANCH   3   6
BRANCH   1  11
HETATM   11  C2  UNL     1      -3.984  51.311  11.469  1.00  0.00     0.011 C 
HETATM   12  C1  UNL     1      -3.137  51.401  10.253  1.00  0.00     0.012 C 
HETATM   13  C3  UNL     1      -5.048  50.256  11.244  1.00  0.00     0.012 C 
ENDBRANCH   1  11
BRANCH   5  14
HETATM   14  O4  UNL     1      -3.802  54.841  12.273  1.00  0.00    -0.368 OA
ATOM     15  H4  UNL     1      -3.116  55.136  11.686  1.00  0.00     0.212 HD
ENDBRANCH   5  14
TORSDOF 4
ENDMDL
