MODEL 1
REMARK VINA RESULT: -5.401413384      0.000      0.000
REMARK  5 active torsions:
REMARK  status: ('A' for Active; 'I' for Inactive)
REMARK    1  A    between atoms: N1_1  and  C1_5 
REMARK    2  A    between atoms: C1_5  and  O1_6 
REMARK    3  A    between atoms: C1_5  and  C2_8 
REMARK    4  A    between atoms: C1_5  and  C8_14 
REMARK    5  A    between atoms: C2_8  and  C3_9 
ROOT
HETATM    1  C1  UNL     1      22.291  41.079  94.948  1.00  0.00     0.263 C 
ENDROOT
BRANCH   1   2
HETATM    2  N1  UNL     1      21.169  41.507  95.771  1.00  0.00    -0.043 N 
ATOM      3  H13 UNL     1      20.390  40.853  95.693  1.00  0.00     0.278 HD
ATOM      4  H12 UNL     1      21.382  41.396  96.763  1.00  0.00     0.278 HD
ATOM      5  H11 UNL     1      20.865  42.460  95.569  1.00  0.00     0.278 HD
ENDBRANCH   1   2
BRANCH   1   6
HETATM    6  O1  UNL     1      22.323  39.719  94.743  1.00  0.00    -0.362 OA
ATOM      7  H1  UNL     1      22.318  39.480  93.824  1.00  0.00     0.212 HD
ENDBRANCH   1   6
BRANCH   1   8
HETATM    8  C2  UNL     1      22.206  41.832  93.654  1.00  0.00     0.077 C 
BRANCH   8   9
HETATM    9  C3  UNL     1      20.817  41.938  93.139  1.00  0.00    -0.010 C 
HETATM   10  C4  UNL     1      20.410  40.811  92.227  1.00  0.00     0.005 C 
HETATM   11  C5  UNL     1      19.388  41.440  91.275  1.00  0.00     0.000 C 
HETATM   12  C6  UNL     1      19.348  42.914  91.616  1.00  0.00     0.000 C 
HETATM   13  C7  UNL     1      20.741  43.128  92.176  1.00  0.00     0.005 C 
ENDBRANCH   8   9
ENDBRANCH   1   8
BRANCH   1  14
HETATM   14  C8  UNL     1      23.554  41.468  95.698  1.00  0.00     0.304 C 
HETATM   15  F1  UNL     1      23.471  41.181  97.041  1.00  0.00    -0.232 F 
HETATM   16 BR1  UNL     1      23.941  43.348  95.387  1.00  0.00    -0.051 Br
ENDBRANCH   1  14
TORSDOF 5
ENDMDL
MODEL 2
REMARK VINA RESULT: -5.253691365      2.535      4.892
REMARK  5 active torsions:
REMARK  status: ('A' for Active; 'I' for Inactive)
REMARK    1  A    between atoms: N1_1  and  C1_5 
REMARK    2  A    between atoms: C1_5  and  O1_6 
REMARK    3  A    between atoms: C1_5  and  C2_8 
REMARK    4  A    between atoms: C1_5  and  C8_14 
REMARK    5  A    between atoms: C2_8  and  C3_9 
ROOT
HETATM    1  C1  UNL     1      21.923  41.527  94.992  1.00  0.00     0.263 C 
ENDROOT
BRANCH   1   2
HETATM    2  N1  UNL     1      22.379  40.152  94.833  1.00  0.00    -0.043 N 
ATOM      3  H13 UNL     1      22.052  39.761  93.949  1.00  0.00     0.278 HD
ATOM      4  H12 UNL     1      23.385  40.119  94.669  1.00  0.00     0.278 HD
ATOM      5  H11 UNL     1      22.118  39.552  95.615  1.00  0.00     0.278 HD
ENDBRANCH   1   2
BRANCH   1   6
HETATM    6  O1  UNL     1      21.053  41.689  96.045  1.00  0.00    -0.362 OA
ATOM      7  H1  UNL     1      21.489  41.926  96.855  1.00  0.00     0.212 HD
ENDBRANCH   1   6
BRANCH   1   8
HETATM    8  C2  UNL     1      23.143  42.384  95.144  1.00  0.00     0.077 C 
BRANCH   8   9
HETATM    9  C3  UNL     1      24.390  41.592  95.297  1.00  0.00    -0.010 C 
HETATM   10  C4  UNL     1      25.146  41.871  96.570  1.00  0.00     0.005 C 
HETATM   11  C5  UNL     1      26.612  41.612  96.208  1.00  0.00     0.000 C 
HETATM   12  C6  UNL     1      26.631  41.312  94.725  1.00  0.00     0.000 C 
HETATM   13  C7  UNL     1      25.405  42.067  94.252  1.00  0.00     0.005 C 
ENDBRANCH   8   9
ENDBRANCH   1   8
BRANCH   1  14
HETATM   14  C8  UNL     1      21.184  41.890  93.715  1.00  0.00     0.304 C 
HETATM   15  F1  UNL     1      21.031  40.810  92.877  1.00  0.00    -0.232 F 
HETATM   16 BR1  UNL     1      22.096  43.362  92.831  1.00  0.00    -0.051 Br
ENDBRANCH   1  14
TORSDOF 5
ENDMDL
MODEL 3
REMARK VINA RESULT: -5.246130380      1.054      1.203
REMARK  5 active torsions:
REMARK  status: ('A' for Active; 'I' for Inactive)
REMARK    1  A    between atoms: N1_1  and  C1_5 
REMARK    2  A    between atoms: C1_5  and  O1_6 
REMARK    3  A    between atoms: C1_5  and  C2_8 
REMARK    4  A    between atoms: C1_5  and  C8_14 
REMARK    5  A    between atoms: C2_8  and  C3_9 
ROOT
HETATM    1  C1  UNL     1      21.624  41.476  94.878  1.00  0.00     0.263 C 
ENDROOT
BRANCH   1   2
HETATM    2  N1  UNL     1      20.946  41.848  96.113  1.00  0.00    -0.043 N 
ATOM      3  H13 UNL     1      19.991  41.490  96.125  1.00  0.00     0.278 HD
ATOM      4  H12 UNL     1      21.328  41.334  96.907  1.00  0.00     0.278 HD
ATOM      5  H11 UNL     1      20.960  42.853  96.290  1.00  0.00     0.278 HD
ENDBRANCH   1   2
BRANCH   1   6
HETATM    6  O1  UNL     1      21.294  40.215  94.440  1.00  0.00    -0.362 OA
ATOM      7  H1  UNL     1      20.460  40.184  93.987  1.00  0.00     0.212 HD
ENDBRANCH   1   6
BRANCH   1   8
HETATM    8  C2  UNL     1      21.293  42.522  93.857  1.00  0.00     0.077 C 
BRANCH   8   9
HETATM    9  C3  UNL     1      20.898  41.945  92.547  1.00  0.00    -0.010 C 
HETATM   10  C4  UNL     1      21.884  42.202  91.437  1.00  0.00     0.005 C 
HETATM   11  C5  UNL     1      21.027  42.244  90.168  1.00  0.00     0.000 C 
HETATM   12  C6  UNL     1      19.590  42.125  90.627  1.00  0.00     0.000 C 
HETATM   13  C7  UNL     1      19.675  42.706  92.025  1.00  0.00     0.005 C 
ENDBRANCH   8   9
ENDBRANCH   1   8
BRANCH   1  14
HETATM   14  C8  UNL     1      23.113  41.491  95.179  1.00  0.00     0.304 C 
HETATM   15  F1  UNL     1      23.409  40.883  96.378  1.00  0.00    -0.232 F 
HETATM   16 BR1  UNL     1      23.771  43.320  95.121  1.00  0.00    -0.051 Br
ENDBRANCH   1  14
TORSDOF 5
ENDMDL
MODEL 4
REMARK VINA RESULT: -5.216006002      1.145      1.145
REMARK  5 active torsions:
REMARK  status: ('A' for Active; 'I' for Inactive)
REMARK    1  A    between atoms: N1_1  and  C1_5 
REMARK    2  A    between atoms: C1_5  and  O1_6 
REMARK    3  A    between atoms: C1_5  and  C2_8 
REMARK    4  A    between atoms: C1_5  and  C8_14 
REMARK    5  A    between atoms: C2_8  and  C3_9 
ROOT
HETATM    1  C1  UNL     1      22.374  41.485  95.301  1.00  0.00     0.263 C 
ENDROOT
BRANCH   1   2
HETATM    2  N1  UNL     1      21.079  41.799  95.891  1.00  0.00    -0.043 N 
ATOM      3  H13 UNL     1      20.637  40.960  96.267  1.00  0.00     0.278 HD
ATOM      4  H12 UNL     1      21.191  42.330  96.755  1.00  0.00     0.278 HD
ATOM      5  H11 UNL     1      20.453  42.281  95.246  1.00  0.00     0.278 HD
ENDBRANCH   1   2
BRANCH   1   6
HETATM    6  O1  UNL     1      22.736  40.168  95.466  1.00  0.00    -0.362 OA
ATOM      7  H1  UNL     1      23.446  40.051  96.086  1.00  0.00     0.212 HD
ENDBRANCH   1   6
BRANCH   1   8
HETATM    8  C2  UNL     1      22.306  41.864  93.853  1.00  0.00     0.077 C 
BRANCH   8   9
HETATM    9  C3  UNL     1      20.915  41.919  93.335  1.00  0.00    -0.010 C 
HETATM   10  C4  UNL     1      20.521  40.730  92.500  1.00  0.00     0.005 C 
HETATM   11  C5  UNL     1      19.489  41.282  91.511  1.00  0.00     0.000 C 
HETATM   12  C6  UNL     1      19.432  42.775  91.755  1.00  0.00     0.000 C 
HETATM   13  C7  UNL     1      20.823  43.042  92.296  1.00  0.00     0.005 C 
ENDBRANCH   8   9
ENDBRANCH   1   8
BRANCH   1  14
HETATM   14  C8  UNL     1      23.398  42.345  96.021  1.00  0.00     0.304 C 
HETATM   15  F1  UNL     1      23.387  43.648  95.578  1.00  0.00    -0.232 F 
HETATM   16 BR1  UNL     1      25.160  41.543  95.845  1.00  0.00    -0.051 Br
ENDBRANCH   1  14
TORSDOF 5
ENDMDL
MODEL 5
REMARK VINA RESULT: -5.208302361      1.675      2.225
REMARK  5 active torsions:
REMARK  status: ('A' for Active; 'I' for Inactive)
REMARK    1  A    between atoms: N1_1  and  C1_5 
REMARK    2  A    between atoms: C1_5  and  O1_6 
REMARK    3  A    between atoms: C1_5  and  C2_8 
REMARK    4  A    between atoms: C1_5  and  C8_14 
REMARK    5  A    between atoms: C2_8  and  C3_9 
ROOT
HETATM    1  C1  UNL     1      23.100  41.434  95.599  1.00  0.00     0.263 C 
ENDROOT
BRANCH   1   2
HETATM    2  N1  UNL     1      22.572  40.886  96.842  1.00  0.00    -0.043 N 
ATOM      3  H13 UNL     1      21.735  40.330  96.668  1.00  0.00     0.278 HD
ATOM      4  H12 UNL     1      23.185  40.155  97.207  1.00  0.00     0.278 HD
ATOM      5  H11 UNL     1      22.395  41.599  97.550  1.00  0.00     0.278 HD
ENDBRANCH   1   2
BRANCH   1   6
HETATM    6  O1  UNL     1      23.396  40.467  94.666  1.00  0.00    -0.362 OA
ATOM      7  H1  UNL     1      23.493  40.814  93.788  1.00  0.00     0.212 HD
ENDBRANCH   1   6
BRANCH   1   8
HETATM    8  C2  UNL     1      22.090  42.413  95.082  1.00  0.00     0.077 C 
BRANCH   8   9
HETATM    9  C3  UNL     1      22.134  42.561  93.605  1.00  0.00    -0.010 C 
HETATM   10  C4  UNL     1      22.661  43.891  93.134  1.00  0.00     0.005 C 
HETATM   11  C5  UNL     1      21.950  44.132  91.798  1.00  0.00     0.000 C 
HETATM   12  C6  UNL     1      20.973  42.988  91.630  1.00  0.00     0.000 C 
HETATM   13  C7  UNL     1      20.698  42.617  93.074  1.00  0.00     0.005 C 
ENDBRANCH   8   9
ENDBRANCH   1   8
BRANCH   1  14
HETATM   14  C8  UNL     1      24.391  42.152  95.955  1.00  0.00     0.304 C 
HETATM   15  F1  UNL     1      24.229  43.517  96.009  1.00  0.00    -0.232 F 
HETATM   16 BR1  UNL     1      25.785  41.643  94.700  1.00  0.00    -0.051 Br
ENDBRANCH   1  14
TORSDOF 5
ENDMDL
