MODEL 1
REMARK VINA RESULT: -5.835010679      0.000      0.000
REMARK  3 active torsions:
REMARK  status: ('A' for Active; 'I' for Inactive)
REMARK    1  A    between atoms: C2_2  and  C3_3 
REMARK    2  A    between atoms: C3_3  and  C4_4 
REMARK    3  A    between atoms: C4_4  and  N1_5 
ROOT
HETATM    1  N1  UNL     1      21.334  40.294  94.204  1.00  0.00    -0.372 N 
ATOM      2  H1  UNL     1      20.805  39.630  94.768  1.00  0.00     0.161 HD
HETATM    3  C5  UNL     1      20.987  40.514  92.979  1.00  0.00     0.172 A 
HETATM    4  N2  UNL     1      21.644  41.376  92.182  1.00  0.00    -0.326 N 
ATOM      5  H2  UNL     1      22.448  41.877  92.559  1.00  0.00     0.168 HD
HETATM    6  C6  UNL     1      21.280  41.603  90.906  1.00  0.00     0.144 A 
HETATM    7 CL1  UNL     1      22.145  42.731  89.879  1.00  0.00    -0.061 Cl
HETATM    8  C7  UNL     1      20.200  40.950  90.349  1.00  0.00     0.145 A 
HETATM    9 CL2  UNL     1      19.696  41.219  88.695  1.00  0.00    -0.061 Cl
HETATM   10  N3  UNL     1      19.540  40.087  91.143  1.00  0.00    -0.308 N 
ATOM     11  H3  UNL     1      18.735  39.586  90.767  1.00  0.00     0.170 HD
HETATM   12  C8  UNL     1      19.908  39.864  92.418  1.00  0.00     0.290 A 
HETATM   13  O1  UNL     1      19.279  39.053  93.143  1.00  0.00    -0.264 OA
ENDROOT
BRANCH   1  14
HETATM   14  C4  UNL     1      22.471  40.985  94.783  1.00  0.00     0.121 C 
BRANCH  14  15
HETATM   15  C3  UNL     1      22.033  42.251  95.497  1.00  0.00     0.019 C 
BRANCH  15  16
HETATM   16  C2  UNL     1      23.205  43.225  95.433  1.00  0.00    -0.003 C 
HETATM   17  C1  UNL     1      23.282  43.776  94.036  1.00  0.00     0.005 C 
ENDBRANCH  15  16
ENDBRANCH  14  15
ENDBRANCH   1  14
TORSDOF 3
ENDMDL
MODEL 2
REMARK VINA RESULT: -5.660094221      4.576      6.187
REMARK  3 active torsions:
REMARK  status: ('A' for Active; 'I' for Inactive)
REMARK    1  A    between atoms: C2_2  and  C3_3 
REMARK    2  A    between atoms: C3_3  and  C4_4 
REMARK    3  A    between atoms: C4_4  and  N1_5 
ROOT
HETATM    1  N1  UNL     1      23.337  41.544  95.836  1.00  0.00    -0.372 N 
ATOM      2  H1  UNL     1      22.977  41.809  96.753  1.00  0.00     0.161 HD
HETATM    3  C5  UNL     1      24.610  41.564  95.618  1.00  0.00     0.172 A 
HETATM    4  N2  UNL     1      25.148  41.227  94.432  1.00  0.00    -0.326 N 
ATOM      5  H2  UNL     1      24.527  40.945  93.674  1.00  0.00     0.168 HD
HETATM    6  C6  UNL     1      26.475  41.248  94.207  1.00  0.00     0.144 A 
HETATM    7 CL1  UNL     1      27.162  40.806  92.655  1.00  0.00    -0.061 Cl
HETATM    8  C7  UNL     1      27.357  41.623  95.200  1.00  0.00     0.145 A 
HETATM    9 CL2  UNL     1      29.088  41.662  94.945  1.00  0.00    -0.061 Cl
HETATM   10  N3  UNL     1      26.823  41.959  96.387  1.00  0.00    -0.308 N 
ATOM     11  H3  UNL     1      27.444  42.241  97.146  1.00  0.00     0.170 HD
HETATM   12  C8  UNL     1      25.495  41.937  96.607  1.00  0.00     0.290 A 
HETATM   13  O1  UNL     1      25.017  42.256  97.724  1.00  0.00    -0.264 OA
ENDROOT
BRANCH   1  14
HETATM   14  C4  UNL     1      22.415  41.149  94.788  1.00  0.00     0.121 C 
BRANCH  14  15
HETATM   15  C3  UNL     1      21.438  42.267  94.472  1.00  0.00     0.019 C 
BRANCH  15  16
HETATM   16  C2  UNL     1      21.742  42.733  93.052  1.00  0.00    -0.003 C 
HETATM   17  C1  UNL     1      22.726  43.868  93.130  1.00  0.00     0.005 C 
ENDBRANCH  15  16
ENDBRANCH  14  15
ENDBRANCH   1  14
TORSDOF 3
ENDMDL
MODEL 3
REMARK VINA RESULT: -5.485247204      3.468      5.631
REMARK  3 active torsions:
REMARK  status: ('A' for Active; 'I' for Inactive)
REMARK    1  A    between atoms: C2_2  and  C3_3 
REMARK    2  A    between atoms: C3_3  and  C4_4 
REMARK    3  A    between atoms: C4_4  and  N1_5 
ROOT
HETATM    1  N1  UNL     1      21.712  40.966  94.916  1.00  0.00    -0.372 N 
ATOM      2  H1  UNL     1      21.195  40.569  95.701  1.00  0.00     0.161 HD
HETATM    3  C5  UNL     1      22.944  41.319  95.074  1.00  0.00     0.172 A 
HETATM    4  N2  UNL     1      23.681  41.848  94.081  1.00  0.00    -0.326 N 
ATOM      5  H2  UNL     1      23.250  41.976  93.166  1.00  0.00     0.168 HD
HETATM    6  C6  UNL     1      24.965  42.214  94.249  1.00  0.00     0.144 A 
HETATM    7 CL1  UNL     1      25.914  42.902  92.944  1.00  0.00    -0.061 Cl
HETATM    8  C7  UNL     1      25.594  42.061  95.468  1.00  0.00     0.145 A 
HETATM    9 CL2  UNL     1      27.262  42.526  95.724  1.00  0.00    -0.061 Cl
HETATM   10  N3  UNL     1      24.861  41.532  96.463  1.00  0.00    -0.308 N 
ATOM     11  H3  UNL     1      25.291  41.402  97.379  1.00  0.00     0.170 HD
HETATM   12  C8  UNL     1      23.577  41.167  96.290  1.00  0.00     0.290 A 
HETATM   13  O1  UNL     1      22.909  40.675  97.234  1.00  0.00    -0.264 OA
ENDROOT
BRANCH   1  14
HETATM   14  C4  UNL     1      21.057  41.129  93.631  1.00  0.00     0.121 C 
BRANCH  14  15
HETATM   15  C3  UNL     1      20.818  39.785  92.967  1.00  0.00     0.019 C 
BRANCH  15  16
HETATM   16  C2  UNL     1      20.471  40.066  91.509  1.00  0.00    -0.003 C 
HETATM   17  C1  UNL     1      20.914  38.889  90.685  1.00  0.00     0.005 C 
ENDBRANCH  15  16
ENDBRANCH  14  15
ENDBRANCH   1  14
TORSDOF 3
ENDMDL
MODEL 4
REMARK VINA RESULT: -5.459392626      3.689      5.401
REMARK  3 active torsions:
REMARK  status: ('A' for Active; 'I' for Inactive)
REMARK    1  A    between atoms: C2_2  and  C3_3 
REMARK    2  A    between atoms: C3_3  and  C4_4 
REMARK    3  A    between atoms: C4_4  and  N1_5 
ROOT
HETATM    1  N1  UNL     1      21.942  40.978  94.906  1.00  0.00    -0.372 N 
ATOM      2  H1  UNL     1      21.372  40.643  95.682  1.00  0.00     0.161 HD
HETATM    3  C5  UNL     1      23.175  41.303  95.110  1.00  0.00     0.172 A 
HETATM    4  N2  UNL     1      23.980  41.752  94.130  1.00  0.00    -0.326 N 
ATOM      5  H2  UNL     1      23.602  41.840  93.187  1.00  0.00     0.168 HD
HETATM    6  C6  UNL     1      25.265  42.089  94.347  1.00  0.00     0.144 A 
HETATM    7 CL1  UNL     1      26.303  42.673  93.059  1.00  0.00    -0.061 Cl
HETATM    8  C7  UNL     1      25.824  41.987  95.604  1.00  0.00     0.145 A 
HETATM    9 CL2  UNL     1      27.490  42.416  95.924  1.00  0.00    -0.061 Cl
HETATM   10  N3  UNL     1      25.022  41.538  96.587  1.00  0.00    -0.308 N 
ATOM     11  H3  UNL     1      25.400  41.448  97.530  1.00  0.00     0.170 HD
HETATM   12  C8  UNL     1      23.738  41.202  96.365  1.00  0.00     0.290 A 
HETATM   13  O1  UNL     1      23.006  40.785  97.298  1.00  0.00    -0.264 OA
ENDROOT
BRANCH   1  14
HETATM   14  C4  UNL     1      21.361  41.087  93.580  1.00  0.00     0.121 C 
BRANCH  14  15
HETATM   15  C3  UNL     1      20.707  42.443  93.382  1.00  0.00     0.019 C 
BRANCH  15  16
HETATM   16  C2  UNL     1      21.150  42.953  92.015  1.00  0.00    -0.003 C 
HETATM   17  C1  UNL     1      22.151  44.055  92.226  1.00  0.00     0.005 C 
ENDBRANCH  15  16
ENDBRANCH  14  15
ENDBRANCH   1  14
TORSDOF 3
ENDMDL
MODEL 5
REMARK VINA RESULT: -5.442600040      3.006      5.017
REMARK  3 active torsions:
REMARK  status: ('A' for Active; 'I' for Inactive)
REMARK    1  A    between atoms: C2_2  and  C3_3 
REMARK    2  A    between atoms: C3_3  and  C4_4 
REMARK    3  A    between atoms: C4_4  and  N1_5 
ROOT
HETATM    1  N1  UNL     1      20.281  41.575  92.765  1.00  0.00    -0.372 N 
ATOM      2  H1  UNL     1      19.723  40.731  92.640  1.00  0.00     0.161 HD
HETATM    3  C5  UNL     1      21.323  41.547  93.527  1.00  0.00     0.172 A 
HETATM    4  N2  UNL     1      22.101  42.625  93.734  1.00  0.00    -0.326 N 
ATOM      5  H2  UNL     1      21.859  43.500  93.270  1.00  0.00     0.168 HD
HETATM    6  C6  UNL     1      23.187  42.592  94.529  1.00  0.00     0.144 A 
HETATM    7 CL1  UNL     1      24.192  44.006  94.789  1.00  0.00    -0.061 Cl
HETATM    8  C7  UNL     1      23.557  41.433  95.179  1.00  0.00     0.145 A 
HETATM    9 CL2  UNL     1      24.961  41.352  96.220  1.00  0.00    -0.061 Cl
HETATM   10  N3  UNL     1      22.782  40.352  94.974  1.00  0.00    -0.308 N 
ATOM     11  H3  UNL     1      23.024  39.476  95.437  1.00  0.00     0.170 HD
HETATM   12  C8  UNL     1      21.697  40.390  94.178  1.00  0.00     0.290 A 
HETATM   13  O1  UNL     1      20.986  39.369  94.001  1.00  0.00    -0.264 OA
ENDROOT
BRANCH   1  14
HETATM   14  C4  UNL     1      19.899  42.798  92.084  1.00  0.00     0.121 C 
BRANCH  14  15
HETATM   15  C3  UNL     1      19.477  42.516  90.653  1.00  0.00     0.019 C 
BRANCH  15  16
HETATM   16  C2  UNL     1      19.521  41.002  90.468  1.00  0.00    -0.003 C 
HETATM   17  C1  UNL     1      19.521  40.709  88.993  1.00  0.00     0.005 C 
ENDBRANCH  15  16
ENDBRANCH  14  15
ENDBRANCH   1  14
TORSDOF 3
ENDMDL
