MODEL 1
REMARK VINA RESULT: -5.607444343      0.000      0.000
REMARK  3 active torsions:
REMARK  status: ('A' for Active; 'I' for Inactive)
REMARK    1  A    between atoms: N2_10  and  C7_11 
REMARK    2  A    between atoms: C7_11  and  C8_12 
REMARK    3  A    between atoms: C8_12  and  C9_13 
ROOT
HETATM    1  N1  UNL     1      21.454  40.302  93.865  1.00  0.00    -0.389 N 
ATOM      2  H11 UNL     1      21.811  39.631  93.186  1.00  0.00     0.157 HD
ATOM      3  H12 UNL     1      20.449  40.465  93.931  1.00  0.00     0.157 HD
HETATM    4  C1  UNL     1      22.210  40.966  94.668  1.00  0.00     0.071 C 
HETATM    5  C2  UNL     1      21.691  41.940  95.654  1.00  0.00     0.076 C 
HETATM    6  C3  UNL     1      22.526  43.204  95.686  1.00  0.00     0.010 C 
HETATM    7  C4  UNL     1      23.681  43.119  94.723  1.00  0.00     0.035 C 
HETATM    8  C5  UNL     1      24.481  41.852  94.895  1.00  0.00     0.076 C 
HETATM    9  C6  UNL     1      25.108  41.746  96.272  1.00  0.00     0.304 C 
HETATM   10  N2  UNL     1      26.373  42.402  96.210  1.00  0.00     0.092 N 
HETATM   11  C10 UNL     1      26.606  42.833  94.845  1.00  0.00     0.295 C 
HETATM   12  C11 UNL     1      25.710  41.914  94.020  1.00  0.00     0.140 C 
HETATM   13 CL1  UNL     1      25.424  42.605  92.437  1.00  0.00    -0.120 Cl
HETATM   14  N3  UNL     1      23.639  40.735  94.575  1.00  0.00    -0.368 N 
ATOM     15  H3  UNL     1      24.024  39.831  94.299  1.00  0.00     0.161 HD
ENDROOT
BRANCH  10  16
HETATM   16  C7  UNL     1      27.499  41.630  96.641  1.00  0.00     0.275 C 
BRANCH  16  17
HETATM   17  C8  UNL     1      28.093  42.078  97.940  1.00  0.00     0.061 C 
BRANCH  17  18
HETATM   18  C9  UNL     1      29.475  41.446  98.058  1.00  0.00     0.223 C 
HETATM   19  F1  UNL     1      29.547  40.332  97.207  1.00  0.00    -0.255 F 
ENDBRANCH  17  18
ENDBRANCH  16  17
ENDBRANCH  10  16
TORSDOF 3
ENDMDL
MODEL 2
REMARK VINA RESULT: -5.361094941      5.226      7.449
REMARK  3 active torsions:
REMARK  status: ('A' for Active; 'I' for Inactive)
REMARK    1  A    between atoms: N2_10  and  C7_11 
REMARK    2  A    between atoms: C7_11  and  C8_12 
REMARK    3  A    between atoms: C8_12  and  C9_13 
ROOT
HETATM    1  N1  UNL     1      20.963  42.070  95.861  1.00  0.00    -0.389 N 
ATOM      2  H11 UNL     1      20.022  41.784  96.129  1.00  0.00     0.157 HD
ATOM      3  H12 UNL     1      21.575  42.504  96.553  1.00  0.00     0.157 HD
HETATM    4  C1  UNL     1      21.440  41.908  94.676  1.00  0.00     0.071 C 
HETATM    5  C2  UNL     1      22.806  42.323  94.286  1.00  0.00     0.076 C 
HETATM    6  C3  UNL     1      22.819  43.008  92.934  1.00  0.00     0.010 C 
HETATM    7  C4  UNL     1      21.439  43.057  92.334  1.00  0.00     0.035 C 
HETATM    8  C5  UNL     1      20.764  41.708  92.332  1.00  0.00     0.076 C 
HETATM    9  C6  UNL     1      21.518  40.687  91.500  1.00  0.00     0.304 C 
HETATM   10  N2  UNL     1      21.043  40.802  90.160  1.00  0.00     0.092 N 
HETATM   11  C10 UNL     1      19.970  41.778  90.130  1.00  0.00     0.295 C 
HETATM   12  C11 UNL     1      19.464  41.800  91.569  1.00  0.00     0.140 C 
HETATM   13 CL1  UNL     1      18.562  43.270  91.873  1.00  0.00    -0.120 Cl
HETATM   14  N3  UNL     1      20.571  41.291  93.691  1.00  0.00    -0.368 N 
ATOM     15  H3  UNL     1      19.865  40.602  93.949  1.00  0.00     0.161 HD
ENDROOT
BRANCH  10  16
HETATM   16  C7  UNL     1      20.573  39.591  89.559  1.00  0.00     0.275 C 
BRANCH  16  17
HETATM   17  C8  UNL     1      20.915  38.349  90.323  1.00  0.00     0.061 C 
BRANCH  17  18
HETATM   18  C9  UNL     1      21.270  37.267  89.310  1.00  0.00     0.223 C 
HETATM   19  F1  UNL     1      20.245  37.172  88.357  1.00  0.00    -0.255 F 
ENDBRANCH  17  18
ENDBRANCH  16  17
ENDBRANCH  10  16
TORSDOF 3
ENDMDL
MODEL 3
REMARK VINA RESULT: -5.283326898      3.528      5.894
REMARK  3 active torsions:
REMARK  status: ('A' for Active; 'I' for Inactive)
REMARK    1  A    between atoms: N2_10  and  C7_11 
REMARK    2  A    between atoms: C7_11  and  C8_12 
REMARK    3  A    between atoms: C8_12  and  C9_13 
ROOT
HETATM    1  N1  UNL     1      27.183  41.240  94.344  1.00  0.00    -0.389 N 
ATOM      2  H11 UNL     1      27.133  40.232  94.488  1.00  0.00     0.157 HD
ATOM      3  H12 UNL     1      28.089  41.709  94.377  1.00  0.00     0.157 HD
HETATM    4  C1  UNL     1      26.150  41.973  94.113  1.00  0.00     0.071 C 
HETATM    5  C2  UNL     1      26.223  43.437  93.904  1.00  0.00     0.076 C 
HETATM    6  C3  UNL     1      25.124  44.165  94.651  1.00  0.00     0.010 C 
HETATM    7  C4  UNL     1      24.230  43.199  95.383  1.00  0.00     0.035 C 
HETATM    8  C5  UNL     1      23.735  42.085  94.495  1.00  0.00     0.076 C 
HETATM    9  C6  UNL     1      22.896  42.597  93.340  1.00  0.00     0.304 C 
HETATM   10  N2  UNL     1      21.548  42.677  93.801  1.00  0.00     0.092 N 
HETATM   11  C10 UNL     1      21.489  42.157  95.154  1.00  0.00     0.295 C 
HETATM   12  C11 UNL     1      22.719  41.259  95.248  1.00  0.00     0.140 C 
HETATM   13 CL1  UNL     1      23.135  40.972  96.924  1.00  0.00    -0.120 Cl
HETATM   14  N3  UNL     1      24.862  41.307  94.067  1.00  0.00    -0.368 N 
ATOM     15  H3  UNL     1      24.763  40.343  93.749  1.00  0.00     0.161 HD
ENDROOT
BRANCH  10  16
HETATM   16  C7  UNL     1      20.576  41.990  93.007  1.00  0.00     0.275 C 
BRANCH  16  17
HETATM   17  C8  UNL     1      21.155  41.154  91.908  1.00  0.00     0.061 C 
BRANCH  17  18
HETATM   18  C9  UNL     1      20.618  39.737  92.073  1.00  0.00     0.223 C 
HETATM   19  F1  UNL     1      20.668  39.380  93.430  1.00  0.00    -0.255 F 
ENDBRANCH  17  18
ENDBRANCH  16  17
ENDBRANCH  10  16
TORSDOF 3
ENDMDL
MODEL 4
REMARK VINA RESULT: -5.030180150      3.271      5.174
REMARK  3 active torsions:
REMARK  status: ('A' for Active; 'I' for Inactive)
REMARK    1  A    between atoms: N2_10  and  C7_11 
REMARK    2  A    between atoms: C7_11  and  C8_12 
REMARK    3  A    between atoms: C8_12  and  C9_13 
ROOT
HETATM    1  N1  UNL     1      28.263  40.324  91.286  1.00  0.00    -0.389 N 
ATOM      2  H11 UNL     1      28.436  39.355  91.554  1.00  0.00     0.157 HD
ATOM      3  H12 UNL     1      28.697  40.698  90.441  1.00  0.00     0.157 HD
HETATM    4  C1  UNL     1      27.508  41.119  91.961  1.00  0.00     0.071 C 
HETATM    5  C2  UNL     1      27.256  42.525  91.571  1.00  0.00     0.076 C 
HETATM    6  C3  UNL     1      27.322  43.457  92.765  1.00  0.00     0.010 C 
HETATM    7  C4  UNL     1      27.598  42.697  94.035  1.00  0.00     0.035 C 
HETATM    8  C5  UNL     1      26.663  41.528  94.221  1.00  0.00     0.076 C 
HETATM    9  C6  UNL     1      25.213  41.959  94.328  1.00  0.00     0.304 C 
HETATM   10  N2  UNL     1      24.956  42.238  95.703  1.00  0.00     0.092 N 
HETATM   11  C10 UNL     1      26.144  41.917  96.471  1.00  0.00     0.295 C 
HETATM   12  C11 UNL     1      26.886  40.921  95.586  1.00  0.00     0.140 C 
HETATM   13 CL1  UNL     1      28.570  40.826  96.057  1.00  0.00    -0.120 Cl
HETATM   14  N3  UNL     1      26.892  40.588  93.161  1.00  0.00    -0.368 N 
ATOM     15  H3  UNL     1      26.636  39.604  93.248  1.00  0.00     0.161 HD
ENDROOT
BRANCH  10  16
HETATM   16  C7  UNL     1      23.842  41.550  96.282  1.00  0.00     0.275 C 
BRANCH  16  17
HETATM   17  C8  UNL     1      22.839  41.053  95.287  1.00  0.00     0.061 C 
BRANCH  17  18
HETATM   18  C9  UNL     1      21.600  41.931  95.402  1.00  0.00     0.223 C 
HETATM   19  F1  UNL     1      21.959  43.166  95.966  1.00  0.00    -0.255 F 
ENDBRANCH  17  18
ENDBRANCH  16  17
ENDBRANCH  10  16
TORSDOF 3
ENDMDL
MODEL 5
REMARK VINA RESULT: -5.005237186      3.948      6.431
REMARK  3 active torsions:
REMARK  status: ('A' for Active; 'I' for Inactive)
REMARK    1  A    between atoms: N2_10  and  C7_11 
REMARK    2  A    between atoms: C7_11  and  C8_12 
REMARK    3  A    between atoms: C8_12  and  C9_13 
ROOT
HETATM    1  N1  UNL     1      26.036  40.971  95.844  1.00  0.00    -0.389 N 
ATOM      2  H11 UNL     1      25.661  40.045  96.052  1.00  0.00     0.157 HD
ATOM      3  H12 UNL     1      26.880  41.291  96.319  1.00  0.00     0.157 HD
HETATM    4  C1  UNL     1      25.499  41.775  94.995  1.00  0.00     0.071 C 
HETATM    5  C2  UNL     1      26.042  43.119  94.692  1.00  0.00     0.076 C 
HETATM    6  C3  UNL     1      24.946  44.162  94.612  1.00  0.00     0.010 C 
HETATM    7  C4  UNL     1      23.590  43.545  94.833  1.00  0.00     0.035 C 
HETATM    8  C5  UNL     1      23.356  42.340  93.956  1.00  0.00     0.076 C 
HETATM    9  C6  UNL     1      23.395  42.684  92.479  1.00  0.00     0.304 C 
HETATM   10  N2  UNL     1      22.076  43.075  92.102  1.00  0.00     0.092 N 
HETATM   11  C10 UNL     1      21.198  42.907  93.244  1.00  0.00     0.295 C 
HETATM   12  C11 UNL     1      21.925  41.881  94.109  1.00  0.00     0.140 C 
HETATM   13 CL1  UNL     1      21.329  41.942  95.754  1.00  0.00    -0.120 Cl
HETATM   14  N3  UNL     1      24.298  41.321  94.319  1.00  0.00    -0.368 N 
ATOM     15  H3  UNL     1      24.132  40.336  94.115  1.00  0.00     0.161 HD
ENDROOT
BRANCH  10  16
HETATM   16  C7  UNL     1      21.512  42.374  90.988  1.00  0.00     0.275 C 
BRANCH  16  17
HETATM   17  C8  UNL     1      20.016  42.401  90.935  1.00  0.00     0.061 C 
BRANCH  17  18
HETATM   18  C9  UNL     1      19.536  40.969  90.735  1.00  0.00     0.223 C 
HETATM   19  F1  UNL     1      19.495  40.318  91.978  1.00  0.00    -0.255 F 
ENDBRANCH  17  18
ENDBRANCH  16  17
ENDBRANCH  10  16
TORSDOF 3
ENDMDL
