MODEL 1
REMARK VINA RESULT: -5.260387677      0.000      0.000
REMARK  4 active torsions:
REMARK  status: ('A' for Active; 'I' for Inactive)
REMARK    1  A    between atoms: C3_4  and  N1_5 
REMARK    2  A    between atoms: N1_5  and  O2_7 
REMARK    3  A    between atoms: C7_12  and  C8_13 
REMARK    4  A    between atoms: C8_13  and  N3_14 
ROOT
HETATM    1  C1  UNL     1       1.413  44.783  29.600  1.00  0.00     0.077 C 
HETATM    2  C2  UNL     1       2.363  44.413  28.515  1.00  0.00     0.061 A 
HETATM    3  O1  UNL     1       3.552  44.873  28.336  1.00  0.00    -0.295 OA
HETATM    4  C3  UNL     1       4.149  44.371  27.311  1.00  0.00     0.191 A 
HETATM    5  C5  UNL     1       3.234  43.466  26.747  1.00  0.00     0.108 A 
HETATM    6  C6  UNL     1       3.498  42.689  25.597  1.00  0.00     0.104 C 
HETATM    7  N2  UNL     1       3.743  42.064  24.655  1.00  0.00    -0.191 NA
HETATM    8  C7  UNL     1       2.096  43.477  27.496  1.00  0.00     0.015 A 
ENDROOT
BRANCH   4   9
HETATM    9  N1  UNL     1       5.443  44.616  26.788  1.00  0.00    -0.242 N 
HETATM   10  C4  UNL     1       6.627  44.754  27.607  1.00  0.00     0.188 C 
BRANCH   9  11
HETATM   11  O2  UNL     1       5.637  44.740  25.437  1.00  0.00    -0.286 OA
ATOM     12  H2  UNL     1       5.249  45.462  24.957  1.00  0.00     0.244 HD
ENDBRANCH   9  11
ENDBRANCH   4   9
BRANCH   8  13
HETATM   13  C8  UNL     1       0.823  42.768  27.416  1.00  0.00     0.170 C 
BRANCH  13  14
HETATM   14  N3  UNL     1      -0.020  42.995  26.300  1.00  0.00    -0.362 N 
HETATM   15  C9  UNL     1      -0.048  42.123  25.275  1.00  0.00     0.090 A 
HETATM   16  C10 UNL     1      -0.858  42.351  24.156  1.00  0.00     0.017 A 
HETATM   17  C11 UNL     1      -1.643  43.479  24.088  1.00  0.00     0.003 A 
HETATM   18  C12 UNL     1      -1.595  44.353  25.151  1.00  0.00     0.017 A 
HETATM   19  C13 UNL     1      -0.785  44.101  26.240  1.00  0.00     0.090 A 
ENDBRANCH  13  14
ENDBRANCH   8  13
TORSDOF 4
ENDMDL
MODEL 2
REMARK VINA RESULT: -5.242259514      0.879      1.231
REMARK  4 active torsions:
REMARK  status: ('A' for Active; 'I' for Inactive)
REMARK    1  A    between atoms: C3_4  and  N1_5 
REMARK    2  A    between atoms: N1_5  and  O2_7 
REMARK    3  A    between atoms: C7_12  and  C8_13 
REMARK    4  A    between atoms: C8_13  and  N3_14 
ROOT
HETATM    1  C1  UNL     1       1.938  45.128  29.331  1.00  0.00     0.077 C 
HETATM    2  C2  UNL     1       2.909  44.569  28.351  1.00  0.00     0.061 A 
HETATM    3  O1  UNL     1       4.118  44.963  28.148  1.00  0.00    -0.295 OA
HETATM    4  C3  UNL     1       4.731  44.293  27.234  1.00  0.00     0.191 A 
HETATM    5  C5  UNL     1       3.805  43.338  26.782  1.00  0.00     0.108 A 
HETATM    6  C6  UNL     1       4.080  42.387  25.774  1.00  0.00     0.104 C 
HETATM    7  N2  UNL     1       4.334  41.617  24.948  1.00  0.00    -0.191 NA
HETATM    8  C7  UNL     1       2.644  43.496  27.478  1.00  0.00     0.015 A 
ENDROOT
BRANCH   4   9
HETATM    9  N1  UNL     1       6.049  44.418  26.728  1.00  0.00    -0.242 N 
HETATM   10  C4  UNL     1       7.224  43.943  27.424  1.00  0.00     0.188 C 
BRANCH   9  11
HETATM   11  O2  UNL     1       6.277  45.018  25.518  1.00  0.00    -0.286 OA
ATOM     12  H2  UNL     1       6.084  44.561  24.707  1.00  0.00     0.244 HD
ENDBRANCH   9  11
ENDBRANCH   4   9
BRANCH   8  13
HETATM   13  C8  UNL     1       1.352  42.819  27.460  1.00  0.00     0.170 C 
BRANCH  13  14
HETATM   14  N3  UNL     1       0.320  43.332  26.635  1.00  0.00    -0.362 N 
HETATM   15  C9  UNL     1      -0.899  43.589  27.144  1.00  0.00     0.090 A 
HETATM   16  C10 UNL     1      -1.932  44.072  26.334  1.00  0.00     0.017 A 
HETATM   17  C11 UNL     1      -1.714  44.293  24.992  1.00  0.00     0.003 A 
HETATM   18  C12 UNL     1      -0.458  44.022  24.499  1.00  0.00     0.017 A 
HETATM   19  C13 UNL     1       0.540  43.545  25.324  1.00  0.00     0.090 A 
ENDBRANCH  13  14
ENDBRANCH   8  13
TORSDOF 4
ENDMDL
MODEL 3
REMARK VINA RESULT: -4.990520426      1.975      3.275
REMARK  4 active torsions:
REMARK  status: ('A' for Active; 'I' for Inactive)
REMARK    1  A    between atoms: C3_4  and  N1_5 
REMARK    2  A    between atoms: N1_5  and  O2_7 
REMARK    3  A    between atoms: C7_12  and  C8_13 
REMARK    4  A    between atoms: C8_13  and  N3_14 
ROOT
HETATM    1  C1  UNL     1       4.259  43.504  25.629  1.00  0.00     0.077 C 
HETATM    2  C2  UNL     1       3.826  43.884  27.002  1.00  0.00     0.061 A 
HETATM    3  O1  UNL     1       4.468  44.622  27.841  1.00  0.00    -0.295 OA
HETATM    4  C3  UNL     1       3.852  44.785  28.960  1.00  0.00     0.191 A 
HETATM    5  C5  UNL     1       2.652  44.063  28.838  1.00  0.00     0.108 A 
HETATM    6  C6  UNL     1       1.673  43.984  29.853  1.00  0.00     0.104 C 
HETATM    7  N2  UNL     1       0.886  43.939  30.700  1.00  0.00    -0.191 NA
HETATM    8  C7  UNL     1       2.617  43.485  27.605  1.00  0.00     0.015 A 
ENDROOT
BRANCH   4   9
HETATM    9  N1  UNL     1       4.222  45.514  30.117  1.00  0.00    -0.242 N 
HETATM   10  C4  UNL     1       5.281  45.110  31.015  1.00  0.00     0.188 C 
BRANCH   9  11
HETATM   11  O2  UNL     1       3.571  46.673  30.449  1.00  0.00    -0.286 OA
ATOM     12  H2  UNL     1       4.060  47.452  30.687  1.00  0.00     0.244 HD
ENDBRANCH   9  11
ENDBRANCH   4   9
BRANCH   8  13
HETATM   13  C8  UNL     1       1.654  42.637  26.910  1.00  0.00     0.170 C 
BRANCH  13  14
HETATM   14  N3  UNL     1       0.507  43.235  26.332  1.00  0.00    -0.362 N 
HETATM   15  C9  UNL     1      -0.623  43.383  27.049  1.00  0.00     0.090 A 
HETATM   16  C10 UNL     1      -1.770  43.949  26.482  1.00  0.00     0.017 A 
HETATM   17  C11 UNL     1      -1.759  44.367  25.170  1.00  0.00     0.003 A 
HETATM   18  C12 UNL     1      -0.590  44.204  24.461  1.00  0.00     0.017 A 
HETATM   19  C13 UNL     1       0.524  43.642  25.049  1.00  0.00     0.090 A 
ENDBRANCH  13  14
ENDBRANCH   8  13
TORSDOF 4
ENDMDL
MODEL 4
REMARK VINA RESULT: -4.944814841      1.971      3.182
REMARK  4 active torsions:
REMARK  status: ('A' for Active; 'I' for Inactive)
REMARK    1  A    between atoms: C3_4  and  N1_5 
REMARK    2  A    between atoms: N1_5  and  O2_7 
REMARK    3  A    between atoms: C7_12  and  C8_13 
REMARK    4  A    between atoms: C8_13  and  N3_14 
ROOT
HETATM    1  C1  UNL     1       4.276  43.525  25.594  1.00  0.00     0.077 C 
HETATM    2  C2  UNL     1       3.863  43.892  26.977  1.00  0.00     0.061 A 
HETATM    3  O1  UNL     1       4.509  44.636  27.806  1.00  0.00    -0.295 OA
HETATM    4  C3  UNL     1       3.911  44.785  28.937  1.00  0.00     0.191 A 
HETATM    5  C5  UNL     1       2.721  44.044  28.835  1.00  0.00     0.108 A 
HETATM    6  C6  UNL     1       1.762  43.944  29.868  1.00  0.00     0.104 C 
HETATM    7  N2  UNL     1       0.992  43.883  30.729  1.00  0.00    -0.191 NA
HETATM    8  C7  UNL     1       2.672  43.471  27.600  1.00  0.00     0.015 A 
ENDROOT
BRANCH   4   9
HETATM    9  N1  UNL     1       4.291  45.515  30.091  1.00  0.00    -0.242 N 
HETATM   10  C4  UNL     1       5.388  45.137  30.955  1.00  0.00     0.188 C 
BRANCH   9  11
HETATM   11  O2  UNL     1       3.612  46.649  30.454  1.00  0.00    -0.286 OA
ATOM     12  H2  UNL     1       3.206  47.201  29.796  1.00  0.00     0.244 HD
ENDBRANCH   9  11
ENDBRANCH   4   9
BRANCH   8  13
HETATM   13  C8  UNL     1       1.710  42.610  26.920  1.00  0.00     0.170 C 
BRANCH  13  14
HETATM   14  N3  UNL     1       0.561  43.197  26.334  1.00  0.00    -0.362 N 
HETATM   15  C9  UNL     1       0.563  43.558  25.036  1.00  0.00     0.090 A 
HETATM   16  C10 UNL     1      -0.557  44.161  24.454  1.00  0.00     0.017 A 
HETATM   17  C11 UNL     1      -1.687  44.396  25.205  1.00  0.00     0.003 A 
HETATM   18  C12 UNL     1      -1.661  44.016  26.528  1.00  0.00     0.017 A 
HETATM   19  C13 UNL     1      -0.540  43.424  27.074  1.00  0.00     0.090 A 
ENDBRANCH  13  14
ENDBRANCH   8  13
TORSDOF 4
ENDMDL
MODEL 5
REMARK VINA RESULT: -4.860667302      1.963      2.753
REMARK  4 active torsions:
REMARK  status: ('A' for Active; 'I' for Inactive)
REMARK    1  A    between atoms: C3_4  and  N1_5 
REMARK    2  A    between atoms: N1_5  and  O2_7 
REMARK    3  A    between atoms: C7_12  and  C8_13 
REMARK    4  A    between atoms: C8_13  and  N3_14 
ROOT
HETATM    1  C1  UNL     1       3.635  44.267  27.607  1.00  0.00     0.077 C 
HETATM    2  C2  UNL     1       3.880  43.523  26.340  1.00  0.00     0.061 A 
HETATM    3  O1  UNL     1       4.919  43.603  25.584  1.00  0.00    -0.295 OA
HETATM    4  C3  UNL     1       4.860  42.842  24.547  1.00  0.00     0.191 A 
HETATM    5  C5  UNL     1       3.625  42.178  24.636  1.00  0.00     0.108 A 
HETATM    6  C6  UNL     1       3.164  41.236  23.689  1.00  0.00     0.104 C 
HETATM    7  N2  UNL     1       2.814  40.466  22.899  1.00  0.00    -0.191 NA
HETATM    8  C7  UNL     1       2.989  42.596  25.766  1.00  0.00     0.015 A 
ENDROOT
BRANCH   4   9
HETATM    9  N1  UNL     1       5.787  42.649  23.492  1.00  0.00    -0.242 N 
HETATM   10  C4  UNL     1       6.942  41.783  23.588  1.00  0.00     0.188 C 
BRANCH   9  11
HETATM   11  O2  UNL     1       5.628  43.297  22.296  1.00  0.00    -0.286 OA
ATOM     12  H2  UNL     1       4.809  43.238  21.819  1.00  0.00     0.244 HD
ENDBRANCH   9  11
ENDBRANCH   4   9
BRANCH   8  13
HETATM   13  C8  UNL     1       1.708  42.274  26.386  1.00  0.00     0.170 C 
BRANCH  13  14
HETATM   14  N3  UNL     1       0.560  43.018  26.014  1.00  0.00    -0.362 N 
HETATM   15  C9  UNL     1      -0.446  43.207  26.889  1.00  0.00     0.090 A 
HETATM   16  C10 UNL     1      -1.594  43.919  26.525  1.00  0.00     0.017 A 
HETATM   17  C11 UNL     1      -1.712  44.440  25.256  1.00  0.00     0.003 A 
HETATM   18  C12 UNL     1      -0.668  44.232  24.383  1.00  0.00     0.017 A 
HETATM   19  C13 UNL     1       0.451  43.525  24.772  1.00  0.00     0.090 A 
ENDBRANCH  13  14
ENDBRANCH   8  13
TORSDOF 4
ENDMDL
