MODEL 1
REMARK VINA RESULT: -5.020759691      0.000      0.000
REMARK  2 active torsions:
REMARK  status: ('A' for Active; 'I' for Inactive)
REMARK    1  A    between atoms: N2_9  and  C7_10 
REMARK    2  A    between atoms: C12_17  and  N4_18 
ROOT
HETATM    1  C1  UNL     1       5.703  44.294  26.536  1.00  0.00     0.037 C 
HETATM    2  C2  UNL     1       4.319  43.815  26.224  1.00  0.00    -0.015 C 
HETATM    3  C3  UNL     1       3.333  43.989  27.086  1.00  0.00     0.014 A 
HETATM    4  C4  UNL     1       3.608  44.654  28.343  1.00  0.00     0.041 A 
HETATM    5  C5  UNL     1       2.629  44.835  29.200  1.00  0.00     0.023 A 
HETATM    6  C6  UNL     1       2.933  45.517  30.480  1.00  0.00     0.070 C 
HETATM    7  N1  UNL     1       1.325  44.385  28.894  1.00  0.00    -0.295 N 
ATOM      8  H1  UNL     1       0.579  44.537  29.573  1.00  0.00     0.187 HD
HETATM    9  N2  UNL     1       1.017  43.730  27.673  1.00  0.00    -0.217 N 
HETATM   10  C12 UNL     1       1.947  43.546  26.834  1.00  0.00     0.206 A 
ENDROOT
BRANCH   9  11
HETATM   11  C7  UNL     1      -0.321  43.339  27.436  1.00  0.00     0.129 A 
HETATM   12  C8  UNL     1      -0.841  42.146  27.862  1.00  0.00     0.050 A 
HETATM   13  C9  UNL     1      -2.170  41.826  27.573  1.00  0.00     0.005 A 
HETATM   14  C10 UNL     1      -2.913  42.739  26.860  1.00  0.00     0.017 A 
HETATM   15  C11 UNL     1      -2.386  43.939  26.434  1.00  0.00     0.090 A 
HETATM   16  N3  UNL     1      -1.115  44.214  26.725  1.00  0.00    -0.351 N 
ATOM     17  H3  UNL     1      -0.717  45.099  26.413  1.00  0.00     0.166 HD
ENDBRANCH   9  11
BRANCH  10  18
HETATM   18  N4  UNL     1       1.726  42.922  25.584  1.00  0.00    -0.095 N 
HETATM   19  O1  UNL     1       1.315  43.588  24.632  1.00  0.00    -0.530 OA
HETATM   20  O2  UNL     1       1.978  41.595  25.420  1.00  0.00    -0.530 OA
ENDBRANCH  10  18
TORSDOF 2
ENDMDL
MODEL 2
REMARK VINA RESULT: -4.537480053      3.520      5.075
REMARK  2 active torsions:
REMARK  status: ('A' for Active; 'I' for Inactive)
REMARK    1  A    between atoms: N2_9  and  C7_10 
REMARK    2  A    between atoms: C12_17  and  N4_18 
ROOT
HETATM    1  C1  UNL     1      -1.305  44.344  24.171  1.00  0.00     0.037 C 
HETATM    2  C2  UNL     1      -1.912  43.084  24.705  1.00  0.00    -0.015 C 
HETATM    3  C3  UNL     1      -1.601  42.641  25.909  1.00  0.00     0.014 A 
HETATM    4  C4  UNL     1      -0.661  43.393  26.713  1.00  0.00     0.041 A 
HETATM    5  C5  UNL     1      -0.354  42.959  27.915  1.00  0.00     0.023 A 
HETATM    6  C6  UNL     1       0.611  43.744  28.720  1.00  0.00     0.070 C 
HETATM    7  N1  UNL     1      -0.937  41.772  28.412  1.00  0.00    -0.295 N 
ATOM      8  H1  UNL     1      -0.685  41.454  29.348  1.00  0.00     0.187 HD
HETATM    9  N2  UNL     1      -1.862  41.008  27.654  1.00  0.00    -0.217 N 
HETATM   10  C12 UNL     1      -2.172  41.410  26.493  1.00  0.00     0.206 A 
ENDROOT
BRANCH   9  11
HETATM   11  C7  UNL     1      -2.420  39.849  28.240  1.00  0.00     0.129 A 
HETATM   12  C8  UNL     1      -1.746  38.662  28.344  1.00  0.00     0.050 A 
HETATM   13  C9  UNL     1      -2.374  37.556  28.922  1.00  0.00     0.005 A 
HETATM   14  C10 UNL     1      -3.667  37.709  29.371  1.00  0.00     0.017 A 
HETATM   15  C11 UNL     1      -4.341  38.906  29.265  1.00  0.00     0.090 A 
HETATM   16  N3  UNL     1      -3.714  39.942  28.708  1.00  0.00    -0.351 N 
ATOM     17  H3  UNL     1      -4.206  40.831  28.624  1.00  0.00     0.166 HD
ENDBRANCH   9  11
BRANCH  10  18
HETATM   18  N4  UNL     1      -3.101  40.724  25.677  1.00  0.00    -0.095 N 
HETATM   19  O1  UNL     1      -4.305  40.952  25.797  1.00  0.00    -0.530 OA
HETATM   20  O2  UNL     1      -2.673  39.824  24.750  1.00  0.00    -0.530 OA
ENDBRANCH  10  18
TORSDOF 2
ENDMDL
MODEL 3
REMARK VINA RESULT: -4.516605585      2.948      4.053
REMARK  2 active torsions:
REMARK  status: ('A' for Active; 'I' for Inactive)
REMARK    1  A    between atoms: N2_9  and  C7_10 
REMARK    2  A    between atoms: C12_17  and  N4_18 
ROOT
HETATM    1  C1  UNL     1       1.456  44.814  29.508  1.00  0.00     0.037 C 
HETATM    2  C2  UNL     1       0.520  44.429  28.405  1.00  0.00    -0.015 C 
HETATM    3  C3  UNL     1       0.685  43.298  27.743  1.00  0.00     0.014 A 
HETATM    4  C4  UNL     1       1.787  42.429  28.099  1.00  0.00     0.041 A 
HETATM    5  C5  UNL     1       1.950  41.300  27.448  1.00  0.00     0.023 A 
HETATM    6  C6  UNL     1       3.085  40.427  27.829  1.00  0.00     0.070 C 
HETATM    7  N1  UNL     1       1.058  40.942  26.413  1.00  0.00    -0.295 N 
ATOM      8  H1  UNL     1       1.203  40.061  25.920  1.00  0.00     0.187 HD
HETATM    9  N2  UNL     1      -0.033  41.767  26.035  1.00  0.00    -0.217 N 
HETATM   10  C12 UNL     1      -0.208  42.860  26.651  1.00  0.00     0.206 A 
ENDROOT
BRANCH   9  11
HETATM   11  C7  UNL     1      -0.894  41.318  25.007  1.00  0.00     0.129 A 
HETATM   12  C8  UNL     1      -0.608  41.453  23.675  1.00  0.00     0.050 A 
HETATM   13  C9  UNL     1      -1.520  40.998  22.720  1.00  0.00     0.005 A 
HETATM   14  C10 UNL     1      -2.688  40.422  23.166  1.00  0.00     0.017 A 
HETATM   15  C11 UNL     1      -2.972  40.287  24.508  1.00  0.00     0.090 A 
HETATM   16  N3  UNL     1      -2.081  40.733  25.394  1.00  0.00    -0.351 N 
ATOM     17  H3  UNL     1      -2.284  40.637  26.389  1.00  0.00     0.166 HD
ENDBRANCH   9  11
BRANCH  10  18
HETATM   18  N4  UNL     1      -1.281  43.732  26.356  1.00  0.00    -0.095 N 
HETATM   19  O1  UNL     1      -2.359  43.593  26.935  1.00  0.00    -0.530 OA
HETATM   20  O2  UNL     1      -1.127  44.734  25.448  1.00  0.00    -0.530 OA
ENDBRANCH  10  18
TORSDOF 2
ENDMDL
MODEL 4
REMARK VINA RESULT: -4.514234486      2.757      4.152
REMARK  2 active torsions:
REMARK  status: ('A' for Active; 'I' for Inactive)
REMARK    1  A    between atoms: N2_9  and  C7_10 
REMARK    2  A    between atoms: C12_17  and  N4_18 
ROOT
HETATM    1  C1  UNL     1      -0.239  39.936  31.923  1.00  0.00     0.037 C 
HETATM    2  C2  UNL     1      -0.593  40.326  30.522  1.00  0.00    -0.015 C 
HETATM    3  C3  UNL     1      -0.185  41.476  30.016  1.00  0.00     0.014 A 
HETATM    4  C4  UNL     1       0.614  42.360  30.838  1.00  0.00     0.041 A 
HETATM    5  C5  UNL     1       1.029  43.502  30.337  1.00  0.00     0.023 A 
HETATM    6  C6  UNL     1       1.845  44.392  31.196  1.00  0.00     0.070 C 
HETATM    7  N1  UNL     1       0.695  43.858  29.011  1.00  0.00    -0.295 N 
ATOM      8  H1  UNL     1       1.027  44.749  28.641  1.00  0.00     0.187 HD
HETATM    9  N2  UNL     1      -0.087  43.018  28.175  1.00  0.00    -0.217 N 
HETATM   10  C12 UNL     1      -0.495  41.913  28.640  1.00  0.00     0.206 A 
ENDROOT
BRANCH   9  11
HETATM   11  C7  UNL     1      -0.349  43.439  26.851  1.00  0.00     0.129 A 
HETATM   12  C8  UNL     1       0.543  43.286  25.824  1.00  0.00     0.050 A 
HETATM   13  C9  UNL     1       0.214  43.744  24.546  1.00  0.00     0.005 A 
HETATM   14  C10 UNL     1      -1.014  44.340  24.370  1.00  0.00     0.017 A 
HETATM   15  C11 UNL     1      -1.910  44.491  25.406  1.00  0.00     0.090 A 
HETATM   16  N3  UNL     1      -1.565  44.044  26.614  1.00  0.00    -0.351 N 
ATOM     17  H3  UNL     1      -2.222  44.152  27.386  1.00  0.00     0.166 HD
ENDBRANCH   9  11
BRANCH  10  18
HETATM   18  N4  UNL     1      -1.260  41.004  27.871  1.00  0.00    -0.095 N 
HETATM   19  O1  UNL     1      -2.481  41.146  27.794  1.00  0.00    -0.530 OA
HETATM   20  O2  UNL     1      -0.655  39.983  27.205  1.00  0.00    -0.530 OA
ENDBRANCH  10  18
TORSDOF 2
ENDMDL
MODEL 5
REMARK VINA RESULT: -4.500388178      2.907      4.468
REMARK  2 active torsions:
REMARK  status: ('A' for Active; 'I' for Inactive)
REMARK    1  A    between atoms: N2_9  and  C7_10 
REMARK    2  A    between atoms: C12_17  and  N4_18 
ROOT
HETATM    1  C1  UNL     1       1.639  41.744  32.493  1.00  0.00     0.037 C 
HETATM    2  C2  UNL     1       1.497  42.472  31.192  1.00  0.00    -0.015 C 
HETATM    3  C3  UNL     1       0.595  42.099  30.303  1.00  0.00     0.014 A 
HETATM    4  C4  UNL     1      -0.262  40.971  30.603  1.00  0.00     0.041 A 
HETATM    5  C5  UNL     1      -1.166  40.601  29.724  1.00  0.00     0.023 A 
HETATM    6  C6  UNL     1      -2.031  39.443  30.051  1.00  0.00     0.070 C 
HETATM    7  N1  UNL     1      -1.296  41.298  28.503  1.00  0.00    -0.295 N 
ATOM      8  H1  UNL     1      -2.004  40.994  27.835  1.00  0.00     0.187 HD
HETATM    9  N2  UNL     1      -0.475  42.408  28.173  1.00  0.00    -0.217 N 
HETATM   10  C12 UNL     1       0.402  42.781  29.007  1.00  0.00     0.206 A 
ENDROOT
BRANCH   9  11
HETATM   11  C7  UNL     1      -0.693  43.067  26.941  1.00  0.00     0.129 A 
HETATM   12  C8  UNL     1      -1.810  43.812  26.676  1.00  0.00     0.050 A 
HETATM   13  C9  UNL     1      -1.958  44.419  25.427  1.00  0.00     0.005 A 
HETATM   14  C10 UNL     1      -0.958  44.238  24.498  1.00  0.00     0.017 A 
HETATM   15  C11 UNL     1       0.165  43.488  24.770  1.00  0.00     0.090 A 
HETATM   16  N3  UNL     1       0.276  42.922  25.971  1.00  0.00    -0.351 N 
ATOM     17  H3  UNL     1       1.104  42.364  26.180  1.00  0.00     0.166 HD
ENDBRANCH   9  11
BRANCH  10  18
HETATM   18  N4  UNL     1       1.248  43.890  28.772  1.00  0.00    -0.095 N 
HETATM   19  O1  UNL     1       0.939  44.999  29.210  1.00  0.00    -0.530 OA
HETATM   20  O2  UNL     1       2.408  43.738  28.077  1.00  0.00    -0.530 OA
ENDBRANCH  10  18
TORSDOF 2
ENDMDL
