MODEL 1
REMARK VINA RESULT: -4.922530791      0.000      0.000
REMARK  3 active torsions:
REMARK  status: ('A' for Active; 'I' for Inactive)
REMARK    1  A    between atoms: C3_5  and  N2_6 
REMARK    2  A    between atoms: N2_6  and  C4_8 
REMARK    3  A    between atoms: C4_8  and  C5_9 
ROOT
HETATM    1  C1  UNL     1      -1.274  44.384  24.444  1.00  0.00     0.089 C 
HETATM    2  C2  UNL     1      -1.267  43.581  25.713  1.00  0.00     0.079 A 
HETATM    3  N1  UNL     1      -0.333  43.783  26.648  1.00  0.00    -0.333 N 
ATOM      4  H1  UNL     1       0.379  44.495  26.481  1.00  0.00     0.168 HD
HETATM    5  C3  UNL     1      -0.292  43.088  27.794  1.00  0.00     0.105 A 
HETATM    6  C11 UNL     1      -1.251  42.128  28.016  1.00  0.00     0.089 A 
HETATM    7  C12 UNL     1      -2.212  41.916  27.064  1.00  0.00     0.118 A 
HETATM    8  C13 UNL     1      -3.229  40.925  27.259  1.00  0.00     0.117 C 
HETATM    9  N4  UNL     1      -4.045  40.109  27.404  1.00  0.00    -0.190 NA
HETATM   10  N5  UNL     1      -2.200  42.637  25.947  1.00  0.00    -0.338 N 
ATOM     11  H5  UNL     1      -2.921  42.470  25.245  1.00  0.00     0.168 HD
ENDROOT
BRANCH   5  12
HETATM   12  N2  UNL     1       0.615  43.294  28.685  1.00  0.00    -0.372 N 
ATOM     13  H2  UNL     1       1.098  42.517  29.136  1.00  0.00     0.161 HD
BRANCH  12  14
HETATM   14  C4  UNL     1       0.927  44.667  29.024  1.00  0.00     0.160 C 
BRANCH  14  15
HETATM   15  C5  UNL     1       2.414  44.769  29.134  1.00  0.00    -0.038 A 
HETATM   16  C6  UNL     1       3.258  44.218  28.192  1.00  0.00     0.026 A 
HETATM   17  C7  UNL     1       4.625  44.338  28.336  1.00  0.00     0.090 A 
HETATM   18  N3  UNL     1       5.199  44.977  29.364  1.00  0.00    -0.371 N 
HETATM   19  C8  UNL     1       6.653  45.073  29.463  1.00  0.00     0.154 C 
HETATM   20  C9  UNL     1       4.386  45.519  30.288  1.00  0.00     0.090 A 
HETATM   21  C10 UNL     1       3.012  45.429  30.194  1.00  0.00     0.026 A 
ENDBRANCH  14  15
ENDBRANCH  12  14
ENDBRANCH   5  12
TORSDOF 3
ENDMDL
MODEL 2
REMARK VINA RESULT: -4.813411761      2.495      3.524
REMARK  3 active torsions:
REMARK  status: ('A' for Active; 'I' for Inactive)
REMARK    1  A    between atoms: C3_5  and  N2_6 
REMARK    2  A    between atoms: N2_6  and  C4_8 
REMARK    3  A    between atoms: C4_8  and  C5_9 
ROOT
HETATM    1  C1  UNL     1      -1.615  44.315  24.610  1.00  0.00     0.089 C 
HETATM    2  C2  UNL     1      -0.339  43.704  25.114  1.00  0.00     0.079 A 
HETATM    3  N1  UNL     1      -0.059  43.678  26.420  1.00  0.00    -0.333 N 
ATOM      4  H1  UNL     1      -0.731  44.084  27.072  1.00  0.00     0.168 HD
HETATM    5  C3  UNL     1       1.068  43.142  26.911  1.00  0.00     0.105 A 
HETATM    6  C11 UNL     1       1.973  42.596  26.031  1.00  0.00     0.089 A 
HETATM    7  C12 UNL     1       1.694  42.618  24.691  1.00  0.00     0.118 A 
HETATM    8  C13 UNL     1       2.613  42.059  23.743  1.00  0.00     0.117 C 
HETATM    9  N4  UNL     1       3.363  41.623  22.968  1.00  0.00    -0.190 NA
HETATM   10  N5  UNL     1       0.560  43.164  24.266  1.00  0.00    -0.338 N 
ATOM     11  H5  UNL     1       0.362  43.175  23.265  1.00  0.00     0.168 HD
ENDROOT
BRANCH   5  12
HETATM   12  N2  UNL     1       1.324  43.125  28.173  1.00  0.00    -0.372 N 
ATOM     13  H2  UNL     1       1.923  42.408  28.581  1.00  0.00     0.161 HD
BRANCH  12  14
HETATM   14  C4  UNL     1       0.729  44.159  28.994  1.00  0.00     0.160 C 
BRANCH  14  15
HETATM   15  C5  UNL     1       1.783  44.629  29.945  1.00  0.00    -0.038 A 
HETATM   16  C6  UNL     1       2.697  45.604  29.602  1.00  0.00     0.026 A 
HETATM   17  C7  UNL     1       3.652  46.006  30.513  1.00  0.00     0.090 A 
HETATM   18  N3  UNL     1       3.747  45.492  31.747  1.00  0.00    -0.371 N 
HETATM   19  C8  UNL     1       4.780  45.958  32.670  1.00  0.00     0.154 C 
HETATM   20  C9  UNL     1       2.860  44.542  32.092  1.00  0.00     0.090 A 
HETATM   21  C10 UNL     1       1.885  44.103  31.221  1.00  0.00     0.026 A 
ENDBRANCH  14  15
ENDBRANCH  12  14
ENDBRANCH   5  12
TORSDOF 3
ENDMDL
MODEL 3
REMARK VINA RESULT: -4.783210178      1.350      1.710
REMARK  3 active torsions:
REMARK  status: ('A' for Active; 'I' for Inactive)
REMARK    1  A    between atoms: C3_5  and  N2_6 
REMARK    2  A    between atoms: N2_6  and  C4_8 
REMARK    3  A    between atoms: C4_8  and  C5_9 
ROOT
HETATM    1  C1  UNL     1      -1.620  44.029  24.129  1.00  0.00     0.089 C 
HETATM    2  C2  UNL     1      -1.575  43.305  25.444  1.00  0.00     0.079 A 
HETATM    3  N1  UNL     1      -0.674  43.630  26.376  1.00  0.00    -0.333 N 
ATOM      4  H1  UNL     1      -0.014  44.382  26.177  1.00  0.00     0.168 HD
HETATM    5  C3  UNL     1      -0.601  43.008  27.563  1.00  0.00     0.105 A 
HETATM    6  C11 UNL     1      -1.490  41.994  27.829  1.00  0.00     0.089 A 
HETATM    7  C12 UNL     1      -2.416  41.655  26.880  1.00  0.00     0.118 A 
HETATM    8  C13 UNL     1      -3.360  40.603  27.121  1.00  0.00     0.117 C 
HETATM    9  N4  UNL     1      -4.117  39.739  27.304  1.00  0.00    -0.190 NA
HETATM   10  N5  UNL     1      -2.439  42.308  25.723  1.00  0.00    -0.338 N 
ATOM     11  H5  UNL     1      -3.134  42.047  25.022  1.00  0.00     0.168 HD
ENDROOT
BRANCH   5  12
HETATM   12  N2  UNL     1       0.274  43.333  28.451  1.00  0.00    -0.372 N 
ATOM     13  H2  UNL     1       0.705  42.628  29.049  1.00  0.00     0.161 HD
BRANCH  12  14
HETATM   14  C4  UNL     1       0.622  44.733  28.572  1.00  0.00     0.160 C 
BRANCH  14  15
HETATM   15  C5  UNL     1       1.656  44.840  29.647  1.00  0.00    -0.038 A 
HETATM   16  C6  UNL     1       1.565  44.129  30.825  1.00  0.00     0.026 A 
HETATM   17  C7  UNL     1       2.544  44.260  31.788  1.00  0.00     0.090 A 
HETATM   18  N3  UNL     1       3.609  45.061  31.644  1.00  0.00    -0.371 N 
HETATM   19  C8  UNL     1       4.615  45.159  32.699  1.00  0.00     0.154 C 
HETATM   20  C9  UNL     1       3.708  45.758  30.499  1.00  0.00     0.090 A 
HETATM   21  C10 UNL     1       2.759  45.665  29.502  1.00  0.00     0.026 A 
ENDBRANCH  14  15
ENDBRANCH  12  14
ENDBRANCH   5  12
TORSDOF 3
ENDMDL
MODEL 4
REMARK VINA RESULT: -4.755972068      2.231      7.062
REMARK  3 active torsions:
REMARK  status: ('A' for Active; 'I' for Inactive)
REMARK    1  A    between atoms: C3_5  and  N2_6 
REMARK    2  A    between atoms: N2_6  and  C4_8 
REMARK    3  A    between atoms: C4_8  and  C5_9 
ROOT
HETATM    1  C1  UNL     1       2.854  45.695  30.087  1.00  0.00     0.089 C 
HETATM    2  C2  UNL     1       2.429  44.823  28.940  1.00  0.00     0.079 A 
HETATM    3  N1  UNL     1       1.149  44.472  28.781  1.00  0.00    -0.333 N 
ATOM      4  H1  UNL     1       0.463  44.810  29.456  1.00  0.00     0.168 HD
HETATM    5  C3  UNL     1       0.729  43.695  27.772  1.00  0.00     0.105 A 
HETATM    6  C11 UNL     1       1.656  43.241  26.863  1.00  0.00     0.089 A 
HETATM    7  C12 UNL     1       2.969  43.595  27.019  1.00  0.00     0.118 A 
HETATM    8  C13 UNL     1       3.964  43.141  26.092  1.00  0.00     0.117 C 
HETATM    9  N4  UNL     1       4.778  42.761  25.353  1.00  0.00    -0.190 NA
HETATM   10  N5  UNL     1       3.324  44.368  28.040  1.00  0.00    -0.338 N 
ATOM     11  H5  UNL     1       4.305  44.626  28.146  1.00  0.00     0.168 HD
ENDROOT
BRANCH   5  12
HETATM   12  N2  UNL     1      -0.508  43.367  27.632  1.00  0.00    -0.372 N 
ATOM     13  H2  UNL     1      -0.943  42.676  28.244  1.00  0.00     0.161 HD
BRANCH  12  14
HETATM   14  C4  UNL     1      -1.261  44.012  26.577  1.00  0.00     0.160 C 
BRANCH  14  15
HETATM   15  C5  UNL     1      -1.665  42.947  25.608  1.00  0.00    -0.038 A 
HETATM   16  C6  UNL     1      -2.570  41.960  25.939  1.00  0.00     0.026 A 
HETATM   17  C7  UNL     1      -2.913  40.998  25.011  1.00  0.00     0.090 A 
HETATM   18  N3  UNL     1      -2.405  40.965  23.771  1.00  0.00    -0.371 N 
HETATM   19  C8  UNL     1      -2.806  39.922  22.830  1.00  0.00     0.154 C 
HETATM   20  C9  UNL     1      -1.523  41.923  23.437  1.00  0.00     0.090 A 
HETATM   21  C10 UNL     1      -1.145  42.909  24.326  1.00  0.00     0.026 A 
ENDBRANCH  14  15
ENDBRANCH  12  14
ENDBRANCH   5  12
TORSDOF 3
ENDMDL
MODEL 5
REMARK VINA RESULT: -4.755337516      2.230      7.027
REMARK  3 active torsions:
REMARK  status: ('A' for Active; 'I' for Inactive)
REMARK    1  A    between atoms: C3_5  and  N2_6 
REMARK    2  A    between atoms: N2_6  and  C4_8 
REMARK    3  A    between atoms: C4_8  and  C5_9 
ROOT
HETATM    1  C1  UNL     1       2.856  45.674  30.095  1.00  0.00     0.089 C 
HETATM    2  C2  UNL     1       2.430  44.811  28.942  1.00  0.00     0.079 A 
HETATM    3  N1  UNL     1       1.150  44.463  28.781  1.00  0.00    -0.333 N 
ATOM      4  H1  UNL     1       0.464  44.796  29.459  1.00  0.00     0.168 HD
HETATM    5  C3  UNL     1       0.728  43.695  27.766  1.00  0.00     0.105 A 
HETATM    6  C11 UNL     1       1.654  43.246  26.853  1.00  0.00     0.089 A 
HETATM    7  C12 UNL     1       2.968  43.598  27.010  1.00  0.00     0.118 A 
HETATM    8  C13 UNL     1       3.961  43.150  26.079  1.00  0.00     0.117 C 
HETATM    9  N4  UNL     1       4.774  42.775  25.337  1.00  0.00    -0.190 NA
HETATM   10  N5  UNL     1       3.324  44.362  28.037  1.00  0.00    -0.338 N 
ATOM     11  H5  UNL     1       4.305  44.618  28.145  1.00  0.00     0.168 HD
ENDROOT
BRANCH   5  12
HETATM   12  N2  UNL     1      -0.510  43.368  27.625  1.00  0.00    -0.372 N 
ATOM     13  H2  UNL     1      -0.945  42.674  28.232  1.00  0.00     0.161 HD
BRANCH  12  14
HETATM   14  C4  UNL     1      -1.262  44.021  26.574  1.00  0.00     0.160 C 
BRANCH  14  15
HETATM   15  C5  UNL     1      -1.661  42.966  25.594  1.00  0.00    -0.038 A 
HETATM   16  C6  UNL     1      -1.165  42.936  24.307  1.00  0.00     0.026 A 
HETATM   17  C7  UNL     1      -1.562  41.941  23.437  1.00  0.00     0.090 A 
HETATM   18  N3  UNL     1      -2.425  40.973  23.777  1.00  0.00    -0.371 N 
HETATM   19  C8  UNL     1      -2.808  39.945  22.813  1.00  0.00     0.154 C 
HETATM   20  C9  UNL     1      -2.913  40.992  25.030  1.00  0.00     0.090 A 
HETATM   21  C10 UNL     1      -2.551  41.963  25.940  1.00  0.00     0.026 A 
ENDBRANCH  14  15
ENDBRANCH  12  14
ENDBRANCH   5  12
TORSDOF 3
ENDMDL
