MODEL 1
REMARK VINA RESULT: -5.898923204      0.000      0.000
REMARK  4 active torsions:
REMARK  status: ('A' for Active; 'I' for Inactive)
REMARK    1  A    between atoms: C2_2  and  O1_3 
REMARK    2  A    between atoms: O1_3  and  C3_4 
REMARK    3  A    between atoms: C3_4  and  O2_5 
REMARK    4  A    between atoms: C7_11  and  O4_12 
ROOT
HETATM    1  C3  UNL     1      -2.603  51.990  11.853  1.00  0.00     0.247 C 
HETATM    2  C4  UNL     1      -3.269  52.842  12.914  1.00  0.00     0.101 C 
HETATM    3  C5  UNL     1      -4.469  52.155  13.532  1.00  0.00     0.026 C 
HETATM    4  C6  UNL     1      -5.265  53.190  14.281  1.00  0.00     0.176 C 
HETATM    5  O3  UNL     1      -6.061  53.976  13.477  1.00  0.00    -0.361 OA
HETATM    6  C7  UNL     1      -7.020  53.171  12.822  1.00  0.00     0.259 C 
HETATM    7  C9  UNL     1      -6.219  52.377  11.787  1.00  0.00     0.071 C 
HETATM    8  C10 UNL     1      -5.332  51.435  12.555  1.00  0.00     0.035 C 
HETATM    9  C11 UNL     1      -4.493  50.553  11.676  1.00  0.00     0.068 C 
HETATM   10  N1  UNL     1      -3.135  50.679  11.956  1.00  0.00    -0.344 N 
HETATM   11  C12 UNL     1      -2.460  49.720  12.689  1.00  0.00     0.154 C 
ENDROOT
BRANCH   1  12
HETATM   12  O1  UNL     1      -1.225  52.037  11.924  1.00  0.00    -0.339 OA
BRANCH  12  13
HETATM   13  C2  UNL     1      -0.752  52.218  10.625  1.00  0.00     0.169 C 
HETATM   14  C1  UNL     1       0.302  51.188  10.265  1.00  0.00     0.033 C 
ENDBRANCH  12  13
ENDBRANCH   1  12
BRANCH   1  15
HETATM   15  O2  UNL     1      -2.931  52.446  10.551  1.00  0.00    -0.348 OA
ATOM     16  H2  UNL     1      -3.239  51.679  10.083  1.00  0.00     0.215 HD
ENDBRANCH   1  15
BRANCH   6  17
HETATM   17  O4  UNL     1      -7.905  54.007  12.170  1.00  0.00    -0.366 OA
HETATM   18  C8  UNL     1      -7.724  55.313  12.616  1.00  0.00     0.204 C 
ENDBRANCH   6  17
TORSDOF 4
ENDMDL
MODEL 2
REMARK VINA RESULT: -5.651488522      1.869      2.500
REMARK  4 active torsions:
REMARK  status: ('A' for Active; 'I' for Inactive)
REMARK    1  A    between atoms: C2_2  and  O1_3 
REMARK    2  A    between atoms: O1_3  and  C3_4 
REMARK    3  A    between atoms: C3_4  and  O2_5 
REMARK    4  A    between atoms: C7_11  and  O4_12 
ROOT
HETATM    1  C3  UNL     1      -1.239  52.167   9.922  1.00  0.00     0.247 C 
HETATM    2  C4  UNL     1      -1.375  53.234  10.990  1.00  0.00     0.101 C 
HETATM    3  C5  UNL     1      -1.951  52.688  12.279  1.00  0.00     0.026 C 
HETATM    4  C6  UNL     1      -2.387  53.852  13.126  1.00  0.00     0.176 C 
HETATM    5  O3  UNL     1      -3.596  54.396  12.754  1.00  0.00    -0.361 OA
HETATM    6  C7  UNL     1      -4.618  53.430  12.894  1.00  0.00     0.259 C 
HETATM    7  C9  UNL     1      -4.365  52.428  11.764  1.00  0.00     0.071 C 
HETATM    8  C10 UNL     1      -3.073  51.727  12.088  1.00  0.00     0.035 C 
HETATM    9  C11 UNL     1      -2.692  50.680  11.082  1.00  0.00     0.068 C 
HETATM   10  N1  UNL     1      -1.427  50.907  10.547  1.00  0.00    -0.344 N 
HETATM   11  C12 UNL     1      -0.329  50.176  10.960  1.00  0.00     0.154 C 
ENDROOT
BRANCH   1  12
HETATM   12  O1  UNL     1      -0.054  52.268   9.220  1.00  0.00    -0.339 OA
BRANCH  12  13
HETATM   13  C2  UNL     1       0.141  53.617   8.935  1.00  0.00     0.169 C 
HETATM   14  C1  UNL     1       1.606  54.003   9.031  1.00  0.00     0.033 C 
ENDBRANCH  12  13
ENDBRANCH   1  12
BRANCH   1  15
HETATM   15  O2  UNL     1      -2.265  52.282   8.951  1.00  0.00    -0.348 OA
ATOM     16  H2  UNL     1      -2.695  51.435   8.934  1.00  0.00     0.215 HD
ENDBRANCH   1  15
BRANCH   6  17
HETATM   17  O4  UNL     1      -5.830  54.056  12.685  1.00  0.00    -0.366 OA
HETATM   18  C8  UNL     1      -5.966  55.115  13.577  1.00  0.00     0.204 C 
ENDBRANCH   6  17
TORSDOF 4
ENDMDL
MODEL 3
REMARK VINA RESULT: -5.603103189      1.066      1.097
REMARK  4 active torsions:
REMARK  status: ('A' for Active; 'I' for Inactive)
REMARK    1  A    between atoms: C2_2  and  O1_3 
REMARK    2  A    between atoms: O1_3  and  C3_4 
REMARK    3  A    between atoms: C3_4  and  O2_5 
REMARK    4  A    between atoms: C7_11  and  O4_12 
ROOT
HETATM    1  C3  UNL     1      -3.399  51.619  10.810  1.00  0.00     0.247 C 
HETATM    2  C4  UNL     1      -3.621  52.465  12.048  1.00  0.00     0.101 C 
HETATM    3  C5  UNL     1      -4.622  51.841  12.997  1.00  0.00     0.026 C 
HETATM    4  C6  UNL     1      -5.048  52.895  13.984  1.00  0.00     0.176 C 
HETATM    5  O3  UNL     1      -5.985  53.778  13.493  1.00  0.00    -0.361 OA
HETATM    6  C7  UNL     1      -7.168  53.082  13.156  1.00  0.00     0.259 C 
HETATM    7  C9  UNL     1      -6.805  52.282  11.902  1.00  0.00     0.071 C 
HETATM    8  C10 UNL     1      -5.808  51.238  12.327  1.00  0.00     0.035 C 
HETATM    9  C11 UNL     1      -5.367  50.340  11.208  1.00  0.00     0.068 C 
HETATM   10  N1  UNL     1      -3.984  50.349  11.046  1.00  0.00    -0.344 N 
HETATM   11  C12 UNL     1      -3.201  49.306  11.504  1.00  0.00     0.154 C 
ENDROOT
BRANCH   1  12
HETATM   12  O1  UNL     1      -2.070  51.558  10.442  1.00  0.00    -0.339 OA
BRANCH  12  13
HETATM   13  C2  UNL     1      -1.465  52.731  10.890  1.00  0.00     0.169 C 
HETATM   14  C1  UNL     1      -0.378  53.197   9.939  1.00  0.00     0.033 C 
ENDBRANCH  12  13
ENDBRANCH   1  12
BRANCH   1  15
HETATM   15  O2  UNL     1      -4.078  52.163   9.690  1.00  0.00    -0.348 OA
ATOM     16  H2  UNL     1      -4.980  52.271   9.968  1.00  0.00     0.215 HD
ENDBRANCH   1  15
BRANCH   6  17
HETATM   17  O4  UNL     1      -8.136  54.014  12.839  1.00  0.00    -0.366 OA
HETATM   18  C8  UNL     1      -7.528  55.223  12.516  1.00  0.00     0.204 C 
ENDBRANCH   6  17
TORSDOF 4
ENDMDL
MODEL 4
REMARK VINA RESULT: -5.363747559      1.989      5.410
REMARK  4 active torsions:
REMARK  status: ('A' for Active; 'I' for Inactive)
REMARK    1  A    between atoms: C2_2  and  O1_3 
REMARK    2  A    between atoms: O1_3  and  C3_4 
REMARK    3  A    between atoms: C3_4  and  O2_5 
REMARK    4  A    between atoms: C7_11  and  O4_12 
ROOT
HETATM    1  C3  UNL     1      -3.177  51.707  12.632  1.00  0.00     0.247 C 
HETATM    2  C4  UNL     1      -3.501  51.790  11.153  1.00  0.00     0.101 C 
HETATM    3  C5  UNL     1      -2.501  51.036  10.303  1.00  0.00     0.026 C 
HETATM    4  C6  UNL     1      -2.681  51.472   8.874  1.00  0.00     0.176 C 
HETATM    5  O3  UNL     1      -2.098  52.685   8.579  1.00  0.00    -0.361 OA
HETATM    6  C7  UNL     1      -0.700  52.602   8.770  1.00  0.00     0.259 C 
HETATM    7  C9  UNL     1      -0.519  52.528  10.288  1.00  0.00     0.071 C 
HETATM    8  C10 UNL     1      -1.084  51.206  10.729  1.00  0.00     0.035 C 
HETATM    9  C11 UNL     1      -0.956  50.962  12.205  1.00  0.00     0.068 C 
HETATM   10  N1  UNL     1      -2.188  50.703  12.799  1.00  0.00    -0.344 N 
HETATM   11  C12 UNL     1      -2.566  49.419  13.141  1.00  0.00     0.154 C 
ENDROOT
BRANCH   1  12
HETATM   12  O1  UNL     1      -4.301  51.516  13.411  1.00  0.00    -0.339 OA
BRANCH  12  13
HETATM   13  C2  UNL     1      -4.731  52.774  13.828  1.00  0.00     0.169 C 
HETATM   14  C1  UNL     1      -6.223  52.953  13.615  1.00  0.00     0.033 C 
ENDBRANCH  12  13
ENDBRANCH   1  12
BRANCH   1  15
HETATM   15  O2  UNL     1      -2.595  52.914  13.096  1.00  0.00    -0.348 OA
ATOM     16  H2  UNL     1      -2.624  52.862  14.044  1.00  0.00     0.215 HD
ENDBRANCH   1  15
BRANCH   6  17
HETATM   17  O4  UNL     1      -0.135  53.770   8.298  1.00  0.00    -0.366 OA
HETATM   18  C8  UNL     1       1.033  54.039   9.006  1.00  0.00     0.204 C 
ENDBRANCH   6  17
TORSDOF 4
ENDMDL
MODEL 5
REMARK VINA RESULT: -5.356356259      1.603      5.566
REMARK  4 active torsions:
REMARK  status: ('A' for Active; 'I' for Inactive)
REMARK    1  A    between atoms: C2_2  and  O1_3 
REMARK    2  A    between atoms: O1_3  and  C3_4 
REMARK    3  A    between atoms: C3_4  and  O2_5 
REMARK    4  A    between atoms: C7_11  and  O4_12 
ROOT
HETATM    1  C3  UNL     1      -5.151  51.906  12.030  1.00  0.00     0.247 C 
HETATM    2  C4  UNL     1      -4.459  50.558  12.075  1.00  0.00     0.101 C 
HETATM    3  C5  UNL     1      -3.156  50.607  12.846  1.00  0.00     0.026 C 
HETATM    4  C6  UNL     1      -2.380  49.357  12.529  1.00  0.00     0.176 C 
HETATM    5  O3  UNL     1      -1.726  49.395  11.317  1.00  0.00    -0.361 OA
HETATM    6  C7  UNL     1      -0.770  50.436  11.322  1.00  0.00     0.259 C 
HETATM    7  C9  UNL     1      -1.598  51.724  11.271  1.00  0.00     0.071 C 
HETATM    8  C10 UNL     1      -2.333  51.819  12.580  1.00  0.00     0.035 C 
HETATM    9  C11 UNL     1      -3.177  53.055  12.704  1.00  0.00     0.068 C 
HETATM   10  N1  UNL     1      -4.509  52.751  12.972  1.00  0.00    -0.344 N 
HETATM   11  C12 UNL     1      -5.035  52.886  14.243  1.00  0.00     0.154 C 
ENDROOT
BRANCH   1  12
HETATM   12  O1  UNL     1      -6.516  51.807  12.212  1.00  0.00    -0.339 OA
BRANCH  12  13
HETATM   13  C2  UNL     1      -7.114  52.705  11.330  1.00  0.00     0.169 C 
HETATM   14  C1  UNL     1      -8.098  53.615  12.042  1.00  0.00     0.033 C 
ENDBRANCH  12  13
ENDBRANCH   1  12
BRANCH   1  15
HETATM   15  O2  UNL     1      -4.981  52.526  10.766  1.00  0.00    -0.348 OA
ATOM     16  H2  UNL     1      -4.748  53.428  10.954  1.00  0.00     0.215 HD
ENDBRANCH   1  15
BRANCH   6  17
HETATM   17  O4  UNL     1      -0.018  50.331  10.169  1.00  0.00    -0.366 OA
HETATM   18  C8  UNL     1       0.516  51.576   9.848  1.00  0.00     0.204 C 
ENDBRANCH   6  17
TORSDOF 4
ENDMDL
