MODEL 1
REMARK VINA RESULT: -6.080434948      0.000      0.000
REMARK  3 active torsions:
REMARK  status: ('A' for Active; 'I' for Inactive)
REMARK    1  A    between atoms: O1_2  and  N1_3 
REMARK    2  A    between atoms: C2_5  and  N2_6 
REMARK    3  A    between atoms: N2_6  and  C3_8 
ROOT
HETATM    1  C3  UNL     1      -4.980  52.516  11.722  1.00  0.00     0.093 C 
HETATM    2  C4  UNL     1      -4.196  51.234  11.951  1.00  0.00     0.041 C 
HETATM    3  C5  UNL     1      -2.960  51.497  12.777  1.00  0.00     0.142 C 
HETATM    4  S1  UNL     1      -2.328  53.128  12.494  1.00  0.00     0.145 S 
HETATM    5  O2  UNL     1      -1.313  53.380  13.587  1.00  0.00    -0.228 OA
HETATM    6  O3  UNL     1      -1.709  53.256  11.135  1.00  0.00    -0.228 OA
HETATM    7  C6  UNL     1      -3.656  54.272  12.730  1.00  0.00     0.152 C 
HETATM    8  C7  UNL     1      -4.916  53.426  12.893  1.00  0.00    -0.003 A 
HETATM    9  C8  UNL     1      -5.148  52.955  14.278  1.00  0.00     0.018 A 
HETATM   10  C9  UNL     1      -6.087  53.903  13.602  1.00  0.00    -0.006 A 
HETATM   11  C10 UNL     1      -6.086  55.365  13.999  1.00  0.00     0.011 C 
ENDROOT
BRANCH   1  12
HETATM   12  N2  UNL     1      -6.301  52.244  11.224  1.00  0.00    -0.379 N 
ATOM     13  H2  UNL     1      -6.956  51.817  11.879  1.00  0.00     0.160 HD
BRANCH  12  14
HETATM   14  C2  UNL     1      -6.784  52.504   9.934  1.00  0.00     0.200 C 
HETATM   15  N1  UNL     1      -6.999  53.695   9.465  1.00  0.00    -0.263 N 
ATOM     16  H1  UNL     1      -7.353  53.791   8.513  1.00  0.00     0.195 HD
BRANCH  15  17
HETATM   17  O1  UNL     1      -6.769  54.833  10.202  1.00  0.00    -0.284 OA
HETATM   18  C1  UNL     1      -7.825  55.654  10.662  1.00  0.00     0.237 C 
ENDBRANCH  15  17
ENDBRANCH  12  14
ENDBRANCH   1  12
TORSDOF 3
ENDMDL
MODEL 2
REMARK VINA RESULT: -5.769006342      2.621      4.627
REMARK  3 active torsions:
REMARK  status: ('A' for Active; 'I' for Inactive)
REMARK    1  A    between atoms: O1_2  and  N1_3 
REMARK    2  A    between atoms: C2_5  and  N2_6 
REMARK    3  A    between atoms: N2_6  and  C3_8 
ROOT
HETATM    1  C3  UNL     1      -4.433  52.706  12.336  1.00  0.00     0.093 C 
HETATM    2  C4  UNL     1      -4.587  52.519  13.836  1.00  0.00     0.041 C 
HETATM    3  C5  UNL     1      -5.782  53.280  14.357  1.00  0.00     0.142 C 
HETATM    4  S1  UNL     1      -6.084  54.743  13.401  1.00  0.00     0.145 S 
HETATM    5  O2  UNL     1      -7.458  55.230  13.803  1.00  0.00    -0.228 OA
HETATM    6  O3  UNL     1      -5.040  55.789  13.644  1.00  0.00    -0.228 OA
HETATM    7  C6  UNL     1      -6.167  54.269  11.699  1.00  0.00     0.152 C 
HETATM    8  C7  UNL     1      -5.746  52.802  11.649  1.00  0.00    -0.003 A 
HETATM    9  C8  UNL     1      -6.851  51.851  11.912  1.00  0.00     0.018 A 
HETATM   10  C9  UNL     1      -6.162  51.909  10.585  1.00  0.00    -0.006 A 
HETATM   11  C10 UNL     1      -6.864  52.548   9.405  1.00  0.00     0.011 C 
ENDROOT
BRANCH   1  12
HETATM   12  N2  UNL     1      -3.515  51.752  11.777  1.00  0.00    -0.379 N 
ATOM     13  H2  UNL     1      -3.732  51.402  10.844  1.00  0.00     0.160 HD
BRANCH  12  14
HETATM   14  C2  UNL     1      -2.351  51.252  12.379  1.00  0.00     0.200 C 
HETATM   15  N1  UNL     1      -1.208  51.867  12.372  1.00  0.00    -0.263 N 
ATOM     16  H1  UNL     1      -0.412  51.428  12.835  1.00  0.00     0.195 HD
BRANCH  15  17
HETATM   17  O1  UNL     1      -1.028  53.087  11.765  1.00  0.00    -0.284 OA
HETATM   18  C1  UNL     1      -0.583  53.199  10.427  1.00  0.00     0.237 C 
ENDBRANCH  15  17
ENDBRANCH  12  14
ENDBRANCH   1  12
TORSDOF 3
ENDMDL
MODEL 3
REMARK VINA RESULT: -5.740343523      2.664      5.120
REMARK  3 active torsions:
REMARK  status: ('A' for Active; 'I' for Inactive)
REMARK    1  A    between atoms: O1_2  and  N1_3 
REMARK    2  A    between atoms: C2_5  and  N2_6 
REMARK    3  A    between atoms: N2_6  and  C3_8 
ROOT
HETATM    1  C3  UNL     1      -4.393  53.402  12.305  1.00  0.00     0.093 C 
HETATM    2  C4  UNL     1      -4.574  53.309  13.811  1.00  0.00     0.041 C 
HETATM    3  C5  UNL     1      -6.034  53.177  14.173  1.00  0.00     0.142 C 
HETATM    4  S1  UNL     1      -7.069  54.007  12.997  1.00  0.00     0.145 S 
HETATM    5  O2  UNL     1      -8.480  53.540  13.279  1.00  0.00    -0.228 OA
HETATM    6  O3  UNL     1      -6.954  55.496  13.109  1.00  0.00    -0.228 OA
HETATM    7  C6  UNL     1      -6.631  53.425  11.386  1.00  0.00     0.152 C 
HETATM    8  C7  UNL     1      -5.380  52.570  11.573  1.00  0.00    -0.003 A 
HETATM    9  C8  UNL     1      -5.664  51.164  11.943  1.00  0.00     0.018 A 
HETATM   10  C9  UNL     1      -5.011  51.518  10.645  1.00  0.00    -0.006 A 
HETATM   11  C10 UNL     1      -5.810  51.441   9.361  1.00  0.00     0.011 C 
ENDROOT
BRANCH   1  12
HETATM   12  N2  UNL     1      -3.020  53.206  11.926  1.00  0.00    -0.379 N 
ATOM     13  H2  UNL     1      -2.825  53.162  10.926  1.00  0.00     0.160 HD
BRANCH  12  14
HETATM   14  C2  UNL     1      -1.921  53.069  12.786  1.00  0.00     0.200 C 
HETATM   15  N1  UNL     1      -1.310  51.946  13.009  1.00  0.00    -0.263 N 
ATOM     16  H1  UNL     1      -0.518  51.938  13.652  1.00  0.00     0.195 HD
BRANCH  15  17
HETATM   17  O1  UNL     1      -1.688  50.766  12.413  1.00  0.00    -0.284 OA
HETATM   18  C1  UNL     1      -2.438  49.785  13.102  1.00  0.00     0.237 C 
ENDBRANCH  15  17
ENDBRANCH  12  14
ENDBRANCH   1  12
TORSDOF 3
ENDMDL
MODEL 4
REMARK VINA RESULT: -5.705591114      4.409      6.637
REMARK  3 active torsions:
REMARK  status: ('A' for Active; 'I' for Inactive)
REMARK    1  A    between atoms: O1_2  and  N1_3 
REMARK    2  A    between atoms: C2_5  and  N2_6 
REMARK    3  A    between atoms: N2_6  and  C3_8 
ROOT
HETATM    1  C3  UNL     1      -1.031  50.768  11.310  1.00  0.00     0.093 C 
HETATM    2  C4  UNL     1      -2.110  50.428  12.324  1.00  0.00     0.041 C 
HETATM    3  C5  UNL     1      -2.984  51.626  12.607  1.00  0.00     0.142 C 
HETATM    4  S1  UNL     1      -2.078  53.141  12.441  1.00  0.00     0.145 S 
HETATM    5  O2  UNL     1      -3.111  54.247  12.427  1.00  0.00    -0.228 OA
HETATM    6  O3  UNL     1      -1.095  53.325  13.556  1.00  0.00    -0.228 OA
HETATM    7  C6  UNL     1      -1.293  53.131  10.856  1.00  0.00     0.152 C 
HETATM    8  C7  UNL     1      -1.512  51.731  10.287  1.00  0.00    -0.003 A 
HETATM    9  C8  UNL     1      -2.807  51.565   9.586  1.00  0.00     0.018 A 
HETATM   10  C9  UNL     1      -1.501  51.460   8.862  1.00  0.00    -0.006 A 
HETATM   11  C10 UNL     1      -1.052  52.594   7.965  1.00  0.00     0.011 C 
ENDROOT
BRANCH   1  12
HETATM   12  N2  UNL     1      -0.402  49.584  10.792  1.00  0.00    -0.379 N 
ATOM     13  H2  UNL     1       0.461  49.719  10.265  1.00  0.00     0.160 HD
BRANCH  12  14
HETATM   14  C2  UNL     1      -0.849  48.263  10.936  1.00  0.00     0.200 C 
HETATM   15  N1  UNL     1      -0.172  47.222  10.556  1.00  0.00    -0.263 N 
ATOM     16  H1  UNL     1      -0.575  46.296  10.698  1.00  0.00     0.195 HD
BRANCH  15  17
HETATM   17  O1  UNL     1       1.068  47.319   9.969  1.00  0.00    -0.284 OA
HETATM   18  C1  UNL     1       1.957  46.221   9.909  1.00  0.00     0.237 C 
ENDBRANCH  15  17
ENDBRANCH  12  14
ENDBRANCH   1  12
TORSDOF 3
ENDMDL
MODEL 5
REMARK VINA RESULT: -5.670598189      2.474      4.014
REMARK  3 active torsions:
REMARK  status: ('A' for Active; 'I' for Inactive)
REMARK    1  A    between atoms: O1_2  and  N1_3 
REMARK    2  A    between atoms: C2_5  and  N2_6 
REMARK    3  A    between atoms: N2_6  and  C3_8 
ROOT
HETATM    1  C3  UNL     1      -4.880  52.444  11.995  1.00  0.00     0.093 C 
HETATM    2  C4  UNL     1      -4.652  52.211  13.479  1.00  0.00     0.041 C 
HETATM    3  C5  UNL     1      -5.427  53.207  14.308  1.00  0.00     0.142 C 
HETATM    4  S1  UNL     1      -5.608  54.753  13.459  1.00  0.00     0.145 S 
HETATM    5  O2  UNL     1      -6.651  55.533  14.229  1.00  0.00    -0.228 OA
HETATM    6  O3  UNL     1      -4.312  55.500  13.383  1.00  0.00    -0.228 OA
HETATM    7  C6  UNL     1      -6.277  54.415  11.857  1.00  0.00     0.152 C 
HETATM    8  C7  UNL     1      -6.265  52.895  11.708  1.00  0.00    -0.003 A 
HETATM    9  C8  UNL     1      -7.454  52.226  12.285  1.00  0.00     0.018 A 
HETATM   10  C9  UNL     1      -7.168  52.194  10.816  1.00  0.00    -0.006 A 
HETATM   11  C10 UNL     1      -7.989  53.053   9.877  1.00  0.00     0.011 C 
ENDROOT
BRANCH   1  12
HETATM   12  N2  UNL     1      -4.420  51.331  11.210  1.00  0.00    -0.379 N 
ATOM     13  H2  UNL     1      -4.541  50.404  11.617  1.00  0.00     0.160 HD
BRANCH  12  14
HETATM   14  C2  UNL     1      -3.822  51.385   9.943  1.00  0.00     0.200 C 
HETATM   15  N1  UNL     1      -2.727  52.033   9.684  1.00  0.00    -0.263 N 
ATOM     16  H1  UNL     1      -2.362  52.018   8.731  1.00  0.00     0.195 HD
BRANCH  15  17
HETATM   17  O1  UNL     1      -2.039  52.737  10.644  1.00  0.00    -0.284 OA
HETATM   18  C1  UNL     1      -0.708  53.172  10.444  1.00  0.00     0.237 C 
ENDBRANCH  15  17
ENDBRANCH  12  14
ENDBRANCH   1  12
TORSDOF 3
ENDMDL
