MODEL 1
REMARK VINA RESULT: -6.193143995      0.000      0.000
REMARK  3 active torsions:
REMARK  status: ('A' for Active; 'I' for Inactive)
REMARK    1  A    between atoms: C3_4  and  C4_5 
REMARK    2  A    between atoms: C4_5  and  N2_6 
REMARK    3  A    between atoms: N2_6  and  C5_8 
ROOT
HETATM    1  C1  UNL     1      -4.061  50.295  11.928  1.00  0.00     0.314 C 
HETATM    2  N1  UNL     1      -3.559  51.356  12.761  1.00  0.00     0.127 N 
HETATM    3  C2  UNL     1      -4.650  52.131  13.252  1.00  0.00     0.309 C 
HETATM    4  C3  UNL     1      -4.498  53.590  12.983  1.00  0.00     0.167 C 
HETATM    5  O1  UNL     1      -3.263  54.008  13.457  1.00  0.00    -0.378 OA
HETATM    6  C9  UNL     1      -2.279  53.449  12.687  1.00  0.00     0.243 C 
HETATM    7  C10 UNL     1      -2.599  52.132  12.065  1.00  0.00     0.314 C 
HETATM    8  C11 UNL     1      -1.258  51.396  11.906  1.00  0.00     0.106 C 
HETATM    9  C12 UNL     1      -0.708  52.226  10.736  1.00  0.00     0.215 C 
HETATM   10  O2  UNL     1      -1.827  52.841  10.181  1.00  0.00    -0.238 OA
HETATM   11  O3  UNL     1      -2.897  52.277  10.688  1.00  0.00    -0.194 OA
ENDROOT
BRANCH   4  12
HETATM   12  C4  UNL     1      -5.593  54.412  13.616  1.00  0.00     0.148 C 
BRANCH  12  13
HETATM   13  N2  UNL     1      -6.162  55.309  12.660  1.00  0.00    -0.411 N 
ATOM     14  H2  UNL     1      -5.744  56.213  12.442  1.00  0.00     0.154 HD
BRANCH  13  15
HETATM   15  C5  UNL     1      -7.359  54.845  12.031  1.00  0.00     0.014 C 
HETATM   16  C6  UNL     1      -7.168  54.480  10.574  1.00  0.00     0.037 C 
HETATM   17  C7  UNL     1      -7.996  53.665  12.727  1.00  0.00     0.037 C 
HETATM   18  C8  UNL     1      -8.411  55.961  12.034  1.00  0.00     0.037 C 
ENDBRANCH  13  15
ENDBRANCH  12  13
ENDBRANCH   4  12
TORSDOF 3
ENDMDL
MODEL 2
REMARK VINA RESULT: -6.192987615      1.846      5.571
REMARK  3 active torsions:
REMARK  status: ('A' for Active; 'I' for Inactive)
REMARK    1  A    between atoms: C3_4  and  C4_5 
REMARK    2  A    between atoms: C4_5  and  N2_6 
REMARK    3  A    between atoms: N2_6  and  C5_8 
ROOT
HETATM    1  C1  UNL     1      -6.119  51.475  12.027  1.00  0.00     0.314 C 
HETATM    2  N1  UNL     1      -5.180  52.510  11.678  1.00  0.00     0.127 N 
HETATM    3  C2  UNL     1      -3.899  51.931  11.450  1.00  0.00     0.309 C 
HETATM    4  C3  UNL     1      -2.816  52.573  12.250  1.00  0.00     0.167 C 
HETATM    5  O1  UNL     1      -2.852  53.943  12.035  1.00  0.00    -0.378 OA
HETATM    6  C9  UNL     1      -3.993  54.451  12.596  1.00  0.00     0.243 C 
HETATM    7  C10 UNL     1      -5.160  53.526  12.666  1.00  0.00     0.314 C 
HETATM    8  C11 UNL     1      -6.415  54.415  12.614  1.00  0.00     0.106 C 
HETATM    9  C12 UNL     1      -6.319  54.984  14.038  1.00  0.00     0.215 C 
HETATM   10  O2  UNL     1      -5.486  54.099  14.718  1.00  0.00    -0.238 OA
HETATM   11  O3  UNL     1      -5.339  53.026  13.978  1.00  0.00    -0.194 OA
ENDROOT
BRANCH   4  12
HETATM   12  C4  UNL     1      -1.448  52.038  11.907  1.00  0.00     0.148 C 
BRANCH  12  13
HETATM   13  N2  UNL     1      -0.705  53.004  11.162  1.00  0.00    -0.411 N 
ATOM     14  H2  UNL     1      -0.549  53.954  11.499  1.00  0.00     0.154 HD
BRANCH  13  15
HETATM   15  C5  UNL     1      -0.197  52.543   9.908  1.00  0.00     0.014 C 
HETATM   16  C6  UNL     1       0.640  51.287  10.025  1.00  0.00     0.037 C 
HETATM   17  C7  UNL     1      -1.268  52.293   8.871  1.00  0.00     0.037 C 
HETATM   18  C8  UNL     1       0.739  53.598   9.308  1.00  0.00     0.037 C 
ENDBRANCH  13  15
ENDBRANCH  12  13
ENDBRANCH   4  12
TORSDOF 3
ENDMDL
MODEL 3
REMARK VINA RESULT: -6.170911582      0.030      1.025
REMARK  3 active torsions:
REMARK  status: ('A' for Active; 'I' for Inactive)
REMARK    1  A    between atoms: C3_4  and  C4_5 
REMARK    2  A    between atoms: C4_5  and  N2_6 
REMARK    3  A    between atoms: N2_6  and  C5_8 
ROOT
HETATM    1  C1  UNL     1      -4.074  50.296  11.922  1.00  0.00     0.314 C 
HETATM    2  N1  UNL     1      -3.575  51.358  12.758  1.00  0.00     0.127 N 
HETATM    3  C2  UNL     1      -4.668  52.135  13.240  1.00  0.00     0.309 C 
HETATM    4  C3  UNL     1      -4.513  53.593  12.971  1.00  0.00     0.167 C 
HETATM    5  O1  UNL     1      -3.281  54.010  13.452  1.00  0.00    -0.378 OA
HETATM    6  C9  UNL     1      -2.293  53.448  12.689  1.00  0.00     0.243 C 
HETATM    7  C10 UNL     1      -2.610  52.132  12.066  1.00  0.00     0.314 C 
HETATM    8  C11 UNL     1      -1.269  51.394  11.917  1.00  0.00     0.106 C 
HETATM    9  C12 UNL     1      -0.711  52.222  10.748  1.00  0.00     0.215 C 
HETATM   10  O2  UNL     1      -1.826  52.837  10.186  1.00  0.00    -0.238 OA
HETATM   11  O3  UNL     1      -2.900  52.275  10.687  1.00  0.00    -0.194 OA
ENDROOT
BRANCH   4  12
HETATM   12  C4  UNL     1      -5.611  54.418  13.597  1.00  0.00     0.148 C 
BRANCH  12  13
HETATM   13  N2  UNL     1      -6.161  55.325  12.641  1.00  0.00    -0.411 N 
ATOM     14  H2  UNL     1      -5.705  56.203  12.395  1.00  0.00     0.154 HD
BRANCH  13  15
HETATM   15  C5  UNL     1      -7.398  54.913  12.054  1.00  0.00     0.014 C 
HETATM   16  C6  UNL     1      -8.006  53.700  12.726  1.00  0.00     0.037 C 
HETATM   17  C7  UNL     1      -8.447  56.000  12.017  1.00  0.00     0.037 C 
HETATM   18  C8  UNL     1      -7.166  54.494  10.598  1.00  0.00     0.037 C 
ENDBRANCH  13  15
ENDBRANCH  12  13
ENDBRANCH   4  12
TORSDOF 3
ENDMDL
MODEL 4
REMARK VINA RESULT: -6.132201100      0.041      1.016
REMARK  3 active torsions:
REMARK  status: ('A' for Active; 'I' for Inactive)
REMARK    1  A    between atoms: C3_4  and  C4_5 
REMARK    2  A    between atoms: C4_5  and  N2_6 
REMARK    3  A    between atoms: N2_6  and  C5_8 
ROOT
HETATM    1  C1  UNL     1      -4.049  50.286  11.953  1.00  0.00     0.314 C 
HETATM    2  N1  UNL     1      -3.562  51.361  12.779  1.00  0.00     0.127 N 
HETATM    3  C2  UNL     1      -4.663  52.129  13.256  1.00  0.00     0.309 C 
HETATM    4  C3  UNL     1      -4.526  53.586  12.974  1.00  0.00     0.167 C 
HETATM    5  O1  UNL     1      -3.298  54.023  13.451  1.00  0.00    -0.378 OA
HETATM    6  C9  UNL     1      -2.304  53.466  12.691  1.00  0.00     0.243 C 
HETATM    7  C10 UNL     1      -2.607  52.140  12.080  1.00  0.00     0.314 C 
HETATM    8  C11 UNL     1      -1.257  51.417  11.935  1.00  0.00     0.106 C 
HETATM    9  C12 UNL     1      -0.710  52.241  10.760  1.00  0.00     0.215 C 
HETATM   10  O2  UNL     1      -1.832  52.839  10.193  1.00  0.00    -0.238 OA
HETATM   11  O3  UNL     1      -2.899  52.268  10.700  1.00  0.00    -0.194 OA
ENDROOT
BRANCH   4  12
HETATM   12  C4  UNL     1      -5.633  54.404  13.594  1.00  0.00     0.148 C 
BRANCH  12  13
HETATM   13  N2  UNL     1      -6.157  55.336  12.646  1.00  0.00    -0.411 N 
ATOM     14  H2  UNL     1      -5.701  56.225  12.444  1.00  0.00     0.154 HD
BRANCH  13  15
HETATM   15  C5  UNL     1      -7.367  54.930  12.002  1.00  0.00     0.014 C 
HETATM   16  C6  UNL     1      -8.435  56.003  12.004  1.00  0.00     0.037 C 
HETATM   17  C7  UNL     1      -7.173  54.470  10.576  1.00  0.00     0.037 C 
HETATM   18  C8  UNL     1      -7.982  53.745  12.754  1.00  0.00     0.037 C 
ENDBRANCH  13  15
ENDBRANCH  12  13
ENDBRANCH   4  12
TORSDOF 3
ENDMDL
MODEL 5
REMARK VINA RESULT: -6.130169467      2.368      5.706
REMARK  3 active torsions:
REMARK  status: ('A' for Active; 'I' for Inactive)
REMARK    1  A    between atoms: C3_4  and  C4_5 
REMARK    2  A    between atoms: C4_5  and  N2_6 
REMARK    3  A    between atoms: N2_6  and  C5_8 
ROOT
HETATM    1  C1  UNL     1      -8.924  52.076  11.716  1.00  0.00     0.314 C 
HETATM    2  N1  UNL     1      -7.680  52.748  11.443  1.00  0.00     0.127 N 
HETATM    3  C2  UNL     1      -6.602  51.989  11.984  1.00  0.00     0.309 C 
HETATM    4  C3  UNL     1      -5.713  52.789  12.874  1.00  0.00     0.167 C 
HETATM    5  O1  UNL     1      -5.303  53.927  12.194  1.00  0.00    -0.378 OA
HETATM    6  C9  UNL     1      -6.383  54.750  12.015  1.00  0.00     0.243 C 
HETATM    7  C10 UNL     1      -7.711  54.082  11.921  1.00  0.00     0.314 C 
HETATM    8  C11 UNL     1      -8.589  54.994  11.046  1.00  0.00     0.106 C 
HETATM    9  C12 UNL     1      -8.816  56.108  12.080  1.00  0.00     0.215 C 
HETATM   10  O2  UNL     1      -8.527  55.517  13.307  1.00  0.00    -0.238 OA
HETATM   11  O3  UNL     1      -8.441  54.221  13.126  1.00  0.00    -0.194 OA
ENDROOT
BRANCH   4  12
HETATM   12  C4  UNL     1      -4.506  52.011  13.339  1.00  0.00     0.148 C 
BRANCH  12  13
HETATM   13  N2  UNL     1      -3.308  52.743  13.080  1.00  0.00    -0.411 N 
ATOM     14  H2  UNL     1      -3.114  53.646  13.513  1.00  0.00     0.154 HD
BRANCH  13  15
HETATM   15  C5  UNL     1      -2.400  52.118  12.170  1.00  0.00     0.014 C 
HETATM   16  C6  UNL     1      -1.531  51.063  12.820  1.00  0.00     0.037 C 
HETATM   17  C7  UNL     1      -3.072  51.493  10.970  1.00  0.00     0.037 C 
HETATM   18  C8  UNL     1      -1.422  53.161  11.615  1.00  0.00     0.037 C 
ENDBRANCH  13  15
ENDBRANCH  12  13
ENDBRANCH   4  12
TORSDOF 3
ENDMDL
