MODEL 1
REMARK VINA RESULT: -5.873390003      0.000      0.000
REMARK  5 active torsions:
REMARK  status: ('A' for Active; 'I' for Inactive)
REMARK    1  A    between atoms: O1_2  and  C2_3 
REMARK    2  A    between atoms: C2_3  and  C3_5 
REMARK    3  A    between atoms: C3_5  and  N1_7 
REMARK       I    between atoms: N1_7  and  C4_9 
REMARK    4  A    between atoms: C4_9  and  C5_11 
REMARK    5  A    between atoms: C7_13  and  O4_15 
ROOT
HETATM    1  N1  UNL     1      -4.262  53.617  12.354  1.00  0.00    -0.313 N 
ATOM      2  H1  UNL     1      -4.469  53.955  11.414  1.00  0.00     0.170 HD
HETATM    3  C4  UNL     1      -5.072  54.087  13.418  1.00  0.00     0.230 C 
HETATM    4  O3  UNL     1      -4.796  53.655  14.562  1.00  0.00    -0.273 OA
ENDROOT
BRANCH   1   5
HETATM    5  C3  UNL     1      -3.181  52.707  12.508  1.00  0.00     0.179 C 
HETATM    6  S1  UNL     1      -3.501  51.117  12.745  1.00  0.00    -0.054 SA
BRANCH   5   7
HETATM    7  C2  UNL     1      -1.827  53.213  12.449  1.00  0.00     0.321 C 
HETATM    8  O2  UNL     1      -1.156  53.276  13.503  1.00  0.00    -0.257 OA
BRANCH   7   9
HETATM    9  O1  UNL     1      -1.217  53.638  11.282  1.00  0.00    -0.321 OA
HETATM   10  C1  UNL     1      -0.684  52.692  10.368  1.00  0.00     0.213 C 
ENDBRANCH   7   9
ENDBRANCH   5   7
ENDBRANCH   1   5
BRANCH   3  11
HETATM   11  C5  UNL     1      -6.164  55.019  13.193  1.00  0.00     0.115 A 
HETATM   12  C6  UNL     1      -6.624  55.090  11.727  1.00  0.00     0.055 A 
HETATM   13  C7  UNL     1      -7.528  54.631  12.809  1.00  0.00     0.070 A 
HETATM   14  C8  UNL     1      -7.963  53.174  12.840  1.00  0.00     0.047 C 
BRANCH  13  15
HETATM   15  O4  UNL     1      -8.570  55.469  13.142  1.00  0.00    -0.384 OA
HETATM   16  C9  UNL     1      -8.967  56.206  12.055  1.00  0.00     0.202 C 
ENDBRANCH  13  15
ENDBRANCH   3  11
TORSDOF 5
ENDMDL
MODEL 2
REMARK VINA RESULT: -5.860523806      1.589      5.839
REMARK  5 active torsions:
REMARK  status: ('A' for Active; 'I' for Inactive)
REMARK    1  A    between atoms: O1_2  and  C2_3 
REMARK    2  A    between atoms: C2_3  and  C3_5 
REMARK    3  A    between atoms: C3_5  and  N1_7 
REMARK       I    between atoms: N1_7  and  C4_9 
REMARK    4  A    between atoms: C4_9  and  C5_11 
REMARK    5  A    between atoms: C7_13  and  O4_15 
ROOT
HETATM    1  N1  UNL     1      -4.746  54.265  12.360  1.00  0.00    -0.313 N 
ATOM      2  H1  UNL     1      -4.445  54.947  11.664  1.00  0.00     0.170 HD
HETATM    3  C4  UNL     1      -3.747  53.491  13.003  1.00  0.00     0.230 C 
HETATM    4  O3  UNL     1      -4.146  52.663  13.855  1.00  0.00    -0.273 OA
ENDROOT
BRANCH   1   5
HETATM    5  C3  UNL     1      -6.139  54.156  12.621  1.00  0.00     0.179 C 
HETATM    6  S1  UNL     1      -6.964  52.866  12.036  1.00  0.00    -0.054 SA
BRANCH   5   7
HETATM    7  C2  UNL     1      -6.788  55.189  13.398  1.00  0.00     0.321 C 
HETATM    8  O2  UNL     1      -6.161  55.727  14.339  1.00  0.00    -0.257 OA
BRANCH   7   9
HETATM    9  O1  UNL     1      -8.079  55.629  13.164  1.00  0.00    -0.321 OA
HETATM   10  C1  UNL     1      -8.436  56.155  11.896  1.00  0.00     0.213 C 
ENDBRANCH   7   9
ENDBRANCH   5   7
ENDBRANCH   1   5
BRANCH   3  11
HETATM   11  C5  UNL     1      -2.337  53.651  12.690  1.00  0.00     0.115 A 
HETATM   12  C6  UNL     1      -1.505  52.379  12.927  1.00  0.00     0.055 A 
HETATM   13  C7  UNL     1      -1.647  52.981  11.579  1.00  0.00     0.070 A 
HETATM   14  C8  UNL     1      -2.429  52.231  10.513  1.00  0.00     0.047 C 
BRANCH  13  15
HETATM   15  O4  UNL     1      -0.524  53.578  11.046  1.00  0.00    -0.384 OA
HETATM   16  C9  UNL     1      -0.303  53.136   9.766  1.00  0.00     0.202 C 
ENDBRANCH  13  15
ENDBRANCH   3  11
TORSDOF 5
ENDMDL
MODEL 3
REMARK VINA RESULT: -5.637072532      2.563      6.275
REMARK  5 active torsions:
REMARK  status: ('A' for Active; 'I' for Inactive)
REMARK    1  A    between atoms: O1_2  and  C2_3 
REMARK    2  A    between atoms: C2_3  and  C3_5 
REMARK    3  A    between atoms: C3_5  and  N1_7 
REMARK       I    between atoms: N1_7  and  C4_9 
REMARK    4  A    between atoms: C4_9  and  C5_11 
REMARK    5  A    between atoms: C7_13  and  O4_15 
ROOT
HETATM    1  N1  UNL     1      -7.056  55.369  11.758  1.00  0.00    -0.313 N 
ATOM      2  H1  UNL     1      -6.212  55.879  11.498  1.00  0.00     0.170 HD
HETATM    3  C4  UNL     1      -6.993  54.523  12.893  1.00  0.00     0.230 C 
HETATM    4  O3  UNL     1      -8.045  53.909  13.190  1.00  0.00    -0.273 OA
ENDROOT
BRANCH   1   5
HETATM    5  C3  UNL     1      -8.216  55.556  10.958  1.00  0.00     0.179 C 
HETATM    6  S1  UNL     1      -8.488  54.546   9.695  1.00  0.00    -0.054 SA
BRANCH   5   7
HETATM    7  C2  UNL     1      -9.125  56.633  11.284  1.00  0.00     0.321 C 
HETATM    8  O2  UNL     1      -9.615  56.688  12.434  1.00  0.00    -0.257 OA
BRANCH   7   9
HETATM    9  O1  UNL     1      -9.492  57.623  10.390  1.00  0.00    -0.321 OA
HETATM   10  C1  UNL     1     -10.707  58.335  10.570  1.00  0.00     0.213 C 
ENDBRANCH   7   9
ENDBRANCH   5   7
ENDBRANCH   1   5
BRANCH   3  11
HETATM   11  C5  UNL     1      -5.774  54.375  13.670  1.00  0.00     0.115 A 
HETATM   12  C6  UNL     1      -5.677  53.034  14.416  1.00  0.00     0.055 A 
HETATM   13  C7  UNL     1      -4.701  53.418  13.368  1.00  0.00     0.070 A 
HETATM   14  C8  UNL     1      -4.688  52.650  12.055  1.00  0.00     0.047 C 
BRANCH  13  15
HETATM   15  O4  UNL     1      -3.421  53.708  13.788  1.00  0.00    -0.384 OA
HETATM   16  C9  UNL     1      -2.541  53.647  12.739  1.00  0.00     0.202 C 
ENDBRANCH  13  15
ENDBRANCH   3  11
TORSDOF 5
ENDMDL
MODEL 4
REMARK VINA RESULT: -5.611697976      2.005      6.075
REMARK  5 active torsions:
REMARK  status: ('A' for Active; 'I' for Inactive)
REMARK    1  A    between atoms: O1_2  and  C2_3 
REMARK    2  A    between atoms: C2_3  and  C3_5 
REMARK    3  A    between atoms: C3_5  and  N1_7 
REMARK       I    between atoms: N1_7  and  C4_9 
REMARK    4  A    between atoms: C4_9  and  C5_11 
REMARK    5  A    between atoms: C7_13  and  O4_15 
ROOT
HETATM    1  N1  UNL     1      -3.069  53.088  11.541  1.00  0.00    -0.313 N 
ATOM      2  H1  UNL     1      -3.321  53.657  10.733  1.00  0.00     0.170 HD
HETATM    3  C4  UNL     1      -1.712  52.707  11.684  1.00  0.00     0.230 C 
HETATM    4  O3  UNL     1      -1.431  52.009  12.688  1.00  0.00    -0.273 OA
ENDROOT
BRANCH   1   5
HETATM    5  C3  UNL     1      -4.104  52.733  12.448  1.00  0.00     0.179 C 
HETATM    6  S1  UNL     1      -4.858  51.287  12.276  1.00  0.00    -0.054 SA
BRANCH   5   7
HETATM    7  C2  UNL     1      -4.461  53.659  13.500  1.00  0.00     0.321 C 
HETATM    8  O2  UNL     1      -4.460  53.261  14.687  1.00  0.00    -0.257 OA
BRANCH   7   9
HETATM    9  O1  UNL     1      -4.807  54.980  13.275  1.00  0.00    -0.321 OA
HETATM   10  C1  UNL     1      -6.025  55.498  13.788  1.00  0.00     0.213 C 
ENDBRANCH   7   9
ENDBRANCH   5   7
ENDBRANCH   1   5
BRANCH   3  11
HETATM   11  C5  UNL     1      -0.700  53.104  10.719  1.00  0.00     0.115 A 
HETATM   12  C6  UNL     1       0.120  51.926  10.166  1.00  0.00     0.055 A 
HETATM   13  C7  UNL     1      -0.731  52.766   9.290  1.00  0.00     0.070 A 
HETATM   14  C8  UNL     1      -1.972  52.154   8.659  1.00  0.00     0.047 C 
BRANCH  13  15
HETATM   15  O4  UNL     1      -0.079  53.595   8.403  1.00  0.00    -0.384 OA
HETATM   16  C9  UNL     1       1.081  54.077   8.953  1.00  0.00     0.202 C 
ENDBRANCH  13  15
ENDBRANCH   3  11
TORSDOF 5
ENDMDL
MODEL 5
REMARK VINA RESULT: -5.528897278      2.332      3.329
REMARK  5 active torsions:
REMARK  status: ('A' for Active; 'I' for Inactive)
REMARK    1  A    between atoms: O1_2  and  C2_3 
REMARK    2  A    between atoms: C2_3  and  C3_5 
REMARK    3  A    between atoms: C3_5  and  N1_7 
REMARK       I    between atoms: N1_7  and  C4_9 
REMARK    4  A    between atoms: C4_9  and  C5_11 
REMARK    5  A    between atoms: C7_13  and  O4_15 
ROOT
HETATM    1  N1  UNL     1      -2.276  53.180  11.255  1.00  0.00    -0.313 N 
ATOM      2  H1  UNL     1      -3.062  53.357  10.629  1.00  0.00     0.170 HD
HETATM    3  C4  UNL     1      -2.391  53.618  12.599  1.00  0.00     0.230 C 
HETATM    4  O3  UNL     1      -1.411  53.387  13.346  1.00  0.00    -0.273 OA
ENDROOT
BRANCH   1   5
HETATM    5  C3  UNL     1      -1.141  52.512  10.722  1.00  0.00     0.179 C 
HETATM    6  S1  UNL     1      -0.116  53.333   9.741  1.00  0.00    -0.054 SA
BRANCH   5   7
HETATM    7  C2  UNL     1      -0.923  51.123  11.063  1.00  0.00     0.321 C 
HETATM    8  O2  UNL     1       0.250  50.706  11.193  1.00  0.00    -0.257 OA
BRANCH   7   9
HETATM    9  O1  UNL     1      -1.945  50.211  11.258  1.00  0.00    -0.321 OA
HETATM   10  C1  UNL     1      -2.251  49.747  12.564  1.00  0.00     0.213 C 
ENDBRANCH   7   9
ENDBRANCH   5   7
ENDBRANCH   1   5
BRANCH   3  11
HETATM   11  C5  UNL     1      -3.580  54.298  13.083  1.00  0.00     0.115 A 
HETATM   12  C6  UNL     1      -4.820  54.077  12.199  1.00  0.00     0.055 A 
HETATM   13  C7  UNL     1      -4.774  53.621  13.609  1.00  0.00     0.070 A 
HETATM   14  C8  UNL     1      -4.758  52.129  13.902  1.00  0.00     0.047 C 
BRANCH  13  15
HETATM   15  O4  UNL     1      -5.573  54.296  14.505  1.00  0.00    -0.384 OA
HETATM   16  C9  UNL     1      -6.139  55.398  13.915  1.00  0.00     0.202 C 
ENDBRANCH  13  15
ENDBRANCH   3  11
TORSDOF 5
ENDMDL
