MODEL 1
REMARK VINA RESULT: -6.418217693      0.000      0.000
REMARK  5 active torsions:
REMARK  status: ('A' for Active; 'I' for Inactive)
REMARK    1  A    between atoms: C2_2  and  C3_3 
REMARK    2  A    between atoms: C3_3  and  O2_5 
REMARK    3  A    between atoms: O2_5  and  C4_6 
REMARK    4  A    between atoms: C5_7  and  O3_8 
REMARK    5  A    between atoms: C5_7  and  C6_10 
ROOT
HETATM    1  C4  UNL     1      -3.575  52.511  12.525  1.00  0.00     0.319 C 
HETATM    2  C5  UNL     1      -4.032  51.563  11.441  1.00  0.00     0.119 C 
HETATM    3  C8  UNL     1      -2.928  50.594  11.167  1.00  0.00     0.073 C 
HETATM    4  C9  UNL     1      -2.043  50.346  12.372  1.00  0.00     0.193 C 
HETATM    5  O4  UNL     1      -1.051  51.330  12.489  1.00  0.00    -0.274 OA
HETATM    6  S1  UNL     1      -1.814  52.820  12.388  1.00  0.00     0.296 S 
HETATM    7  O5  UNL     1      -1.547  53.486  11.058  1.00  0.00    -0.196 OA
HETATM    8  O6  UNL     1      -1.444  53.723  13.516  1.00  0.00    -0.196 OA
ENDROOT
BRANCH   1   9
HETATM    9  O2  UNL     1      -4.253  53.722  12.521  1.00  0.00    -0.291 OA
BRANCH   9  10
HETATM   10  C3  UNL     1      -4.979  54.114  13.632  1.00  0.00     0.283 C 
HETATM   11  O1  UNL     1      -4.731  53.545  14.722  1.00  0.00    -0.260 OA
BRANCH  10  12
HETATM   12  C2  UNL     1      -6.001  55.137  13.594  1.00  0.00     0.072 C 
HETATM   13  C1  UNL     1      -7.075  54.970  12.856  1.00  0.00     0.017 C 
ENDBRANCH  10  12
ENDBRANCH   9  10
ENDBRANCH   1   9
BRANCH   2  14
HETATM   14  O3  UNL     1      -4.342  52.216  10.261  1.00  0.00    -0.382 OA
ATOM     15  H3  UNL     1      -3.583  52.627   9.861  1.00  0.00     0.211 HD
ENDBRANCH   2  14
BRANCH   2  16
HETATM   16  C6  UNL     1      -5.281  50.908  11.928  1.00  0.00     0.004 C 
HETATM   17  C7  UNL     1      -6.484  51.273  11.546  1.00  0.00     0.010 C 
ENDBRANCH   2  16
TORSDOF 5
ENDMDL
MODEL 2
REMARK VINA RESULT: -6.183472555      2.454      3.510
REMARK  5 active torsions:
REMARK  status: ('A' for Active; 'I' for Inactive)
REMARK    1  A    between atoms: C2_2  and  C3_3 
REMARK    2  A    between atoms: C3_3  and  O2_5 
REMARK    3  A    between atoms: O2_5  and  C4_6 
REMARK    4  A    between atoms: C5_7  and  O3_8 
REMARK    5  A    between atoms: C5_7  and  C6_10 
ROOT
HETATM    1  C4  UNL     1      -6.443  54.068  12.649  1.00  0.00     0.319 C 
HETATM    2  C5  UNL     1      -6.193  52.722  12.009  1.00  0.00     0.119 C 
HETATM    3  C8  UNL     1      -5.216  51.973  12.856  1.00  0.00     0.073 C 
HETATM    4  C9  UNL     1      -5.276  52.363  14.319  1.00  0.00     0.193 C 
HETATM    5  O4  UNL     1      -4.508  53.508  14.575  1.00  0.00    -0.274 OA
HETATM    6  S1  UNL     1      -4.955  54.669  13.449  1.00  0.00     0.296 S 
HETATM    7  O5  UNL     1      -3.887  54.855  12.398  1.00  0.00    -0.196 OA
HETATM    8  O6  UNL     1      -5.303  55.971  14.088  1.00  0.00    -0.196 OA
ENDROOT
BRANCH   1   9
HETATM    9  O2  UNL     1      -6.899  55.027  11.756  1.00  0.00    -0.291 OA
BRANCH   9  10
HETATM   10  C3  UNL     1      -8.064  55.725  12.023  1.00  0.00     0.283 C 
HETATM   11  O1  UNL     1      -8.557  55.621  13.172  1.00  0.00    -0.260 OA
BRANCH  10  12
HETATM   12  C2  UNL     1      -8.732  56.560  11.050  1.00  0.00     0.072 C 
HETATM   13  C1  UNL     1      -9.959  56.977  11.270  1.00  0.00     0.017 C 
ENDBRANCH  10  12
ENDBRANCH   9  10
ENDBRANCH   1   9
BRANCH   2  14
HETATM   14  O3  UNL     1      -5.671  52.829  10.733  1.00  0.00    -0.382 OA
ATOM     15  H3  UNL     1      -6.345  52.937  10.071  1.00  0.00     0.211 HD
ENDBRANCH   2  14
BRANCH   2  16
HETATM   16  C6  UNL     1      -7.515  52.039  11.895  1.00  0.00     0.004 C 
HETATM   17  C7  UNL     1      -7.821  51.219  10.914  1.00  0.00     0.010 C 
ENDBRANCH   2  16
TORSDOF 5
ENDMDL
MODEL 3
REMARK VINA RESULT: -6.031306750      1.189      1.190
REMARK  5 active torsions:
REMARK  status: ('A' for Active; 'I' for Inactive)
REMARK    1  A    between atoms: C2_2  and  C3_3 
REMARK    2  A    between atoms: C3_3  and  O2_5 
REMARK    3  A    between atoms: O2_5  and  C4_6 
REMARK    4  A    between atoms: C5_7  and  O3_8 
REMARK    5  A    between atoms: C5_7  and  C6_10 
ROOT
HETATM    1  C4  UNL     1      -3.235  52.245  11.965  1.00  0.00     0.319 C 
HETATM    2  C5  UNL     1      -3.744  51.211  10.988  1.00  0.00     0.119 C 
HETATM    3  C8  UNL     1      -2.635  50.251  10.699  1.00  0.00     0.073 C 
HETATM    4  C9  UNL     1      -1.656  50.112  11.847  1.00  0.00     0.193 C 
HETATM    5  O4  UNL     1      -0.687  51.125  11.818  1.00  0.00    -0.274 OA
HETATM    6  S1  UNL     1      -1.499  52.586  11.672  1.00  0.00     0.296 S 
HETATM    7  O5  UNL     1      -1.351  53.160  10.283  1.00  0.00    -0.196 OA
HETATM    8  O6  UNL     1      -1.073  53.576  12.703  1.00  0.00    -0.196 OA
ENDROOT
BRANCH   1   9
HETATM    9  O2  UNL     1      -3.946  53.436  11.928  1.00  0.00    -0.291 OA
BRANCH   9  10
HETATM   10  C3  UNL     1      -4.334  54.048  13.107  1.00  0.00     0.283 C 
HETATM   11  O1  UNL     1      -4.008  55.248  13.276  1.00  0.00    -0.260 OA
BRANCH  10  12
HETATM   12  C2  UNL     1      -5.091  53.378  14.141  1.00  0.00     0.072 C 
HETATM   13  C1  UNL     1      -6.343  53.038  13.927  1.00  0.00     0.017 C 
ENDBRANCH  10  12
ENDBRANCH   9  10
ENDBRANCH   1   9
BRANCH   2  14
HETATM   14  O3  UNL     1      -4.159  51.770   9.792  1.00  0.00    -0.382 OA
ATOM     15  H3  UNL     1      -3.813  52.645   9.658  1.00  0.00     0.211 HD
ENDBRANCH   2  14
BRANCH   2  16
HETATM   16  C6  UNL     1      -4.933  50.563  11.614  1.00  0.00     0.004 C 
HETATM   17  C7  UNL     1      -6.132  50.585  11.079  1.00  0.00     0.010 C 
ENDBRANCH   2  16
TORSDOF 5
ENDMDL
MODEL 4
REMARK VINA RESULT: -5.943257863      0.982      1.117
REMARK  5 active torsions:
REMARK  status: ('A' for Active; 'I' for Inactive)
REMARK    1  A    between atoms: C2_2  and  C3_3 
REMARK    2  A    between atoms: C3_3  and  O2_5 
REMARK    3  A    between atoms: O2_5  and  C4_6 
REMARK    4  A    between atoms: C5_7  and  O3_8 
REMARK    5  A    between atoms: C5_7  and  C6_10 
ROOT
HETATM    1  C4  UNL     1      -4.430  52.952  12.550  1.00  0.00     0.319 C 
HETATM    2  C5  UNL     1      -4.825  51.869  11.573  1.00  0.00     0.119 C 
HETATM    3  C8  UNL     1      -3.793  50.789  11.625  1.00  0.00     0.073 C 
HETATM    4  C9  UNL     1      -3.109  50.686  12.973  1.00  0.00     0.193 C 
HETATM    5  O4  UNL     1      -2.051  51.600  13.081  1.00  0.00    -0.274 OA
HETATM    6  S1  UNL     1      -2.645  53.104  12.632  1.00  0.00     0.296 S 
HETATM    7  O5  UNL     1      -2.136  53.511  11.270  1.00  0.00    -0.196 OA
HETATM    8  O6  UNL     1      -2.347  54.156  13.646  1.00  0.00    -0.196 OA
ENDROOT
BRANCH   1   9
HETATM    9  O2  UNL     1      -4.980  54.190  12.253  1.00  0.00    -0.291 OA
BRANCH   9  10
HETATM   10  C3  UNL     1      -5.905  54.762  13.108  1.00  0.00     0.283 C 
HETATM   11  O1  UNL     1      -5.558  54.960  14.297  1.00  0.00    -0.260 OA
BRANCH  10  12
HETATM   12  C2  UNL     1      -7.241  55.138  12.699  1.00  0.00     0.072 C 
HETATM   13  C1  UNL     1      -7.553  55.182  11.423  1.00  0.00     0.017 C 
ENDBRANCH  10  12
ENDBRANCH   9  10
ENDBRANCH   1   9
BRANCH   2  14
HETATM   14  O3  UNL     1      -4.905  52.332  10.271  1.00  0.00    -0.382 OA
ATOM     15  H3  UNL     1      -5.100  51.640   9.649  1.00  0.00     0.211 HD
ENDBRANCH   2  14
BRANCH   2  16
HETATM   16  C6  UNL     1      -6.186  51.400  11.964  1.00  0.00     0.004 C 
HETATM   17  C7  UNL     1      -7.220  51.429  11.154  1.00  0.00     0.010 C 
ENDBRANCH   2  16
TORSDOF 5
ENDMDL
MODEL 5
REMARK VINA RESULT: -5.857356659      2.369      3.424
REMARK  5 active torsions:
REMARK  status: ('A' for Active; 'I' for Inactive)
REMARK    1  A    between atoms: C2_2  and  C3_3 
REMARK    2  A    between atoms: C3_3  and  O2_5 
REMARK    3  A    between atoms: O2_5  and  C4_6 
REMARK    4  A    between atoms: C5_7  and  O3_8 
REMARK    5  A    between atoms: C5_7  and  C6_10 
ROOT
HETATM    1  C4  UNL     1      -6.202  53.934  12.416  1.00  0.00     0.319 C 
HETATM    2  C5  UNL     1      -5.891  52.542  11.916  1.00  0.00     0.119 C 
HETATM    3  C8  UNL     1      -5.016  51.865  12.921  1.00  0.00     0.073 C 
HETATM    4  C9  UNL     1      -5.233  52.371  14.333  1.00  0.00     0.193 C 
HETATM    5  O4  UNL     1      -4.491  53.535  14.580  1.00  0.00    -0.274 OA
HETATM    6  S1  UNL     1      -4.807  54.601  13.324  1.00  0.00     0.296 S 
HETATM    7  O5  UNL     1      -3.629  54.707  12.383  1.00  0.00    -0.196 OA
HETATM    8  O6  UNL     1      -5.215  55.949  13.815  1.00  0.00    -0.196 OA
ENDROOT
BRANCH   1   9
HETATM    9  O2  UNL     1      -6.553  54.817  11.406  1.00  0.00    -0.291 OA
BRANCH   9  10
HETATM   10  C3  UNL     1      -7.807  55.402  11.401  1.00  0.00     0.283 C 
HETATM   11  O1  UNL     1      -8.157  56.043  12.421  1.00  0.00    -0.260 OA
BRANCH  10  12
HETATM   12  C2  UNL     1      -8.724  55.311  10.286  1.00  0.00     0.072 C 
HETATM   13  C1  UNL     1      -8.548  54.395   9.360  1.00  0.00     0.017 C 
ENDBRANCH  10  12
ENDBRANCH   9  10
ENDBRANCH   1   9
BRANCH   2  14
HETATM   14  O3  UNL     1      -5.233  52.550  10.699  1.00  0.00    -0.382 OA
ATOM     15  H3  UNL     1      -4.968  51.679  10.422  1.00  0.00     0.211 HD
ENDBRANCH   2  14
BRANCH   2  16
HETATM   16  C6  UNL     1      -7.197  51.848  11.713  1.00  0.00     0.004 C 
HETATM   17  C7  UNL     1      -7.389  50.928  10.794  1.00  0.00     0.010 C 
ENDBRANCH   2  16
TORSDOF 5
ENDMDL
