MODEL 1
REMARK VINA RESULT: -6.970866480      0.000      0.000
REMARK  5 active torsions:
REMARK  status: ('A' for Active; 'I' for Inactive)
REMARK    1  A    between atoms: C2_2  and  O2_4 
REMARK    2  A    between atoms: O2_4  and  C3_5 
REMARK    3  A    between atoms: C9_13  and  C10_14 
REMARK    4  A    between atoms: C10_14  and  C11_16 
REMARK    5  A    between atoms: C11_16  and  O6_17 
ROOT
HETATM    1  C3  UNL     1      -4.028  51.991  12.828  1.00  0.00     0.272 C 
HETATM    2  C4  UNL     1      -5.061  51.150  12.172  1.00  0.00     0.097 C 
HETATM    3  C5  UNL     1      -6.470  51.654  12.205  1.00  0.00     0.174 C 
HETATM    4  O3  UNL     1      -7.028  51.294  10.958  1.00  0.00    -0.347 OA
HETATM    5  C6  UNL     1      -6.747  52.321  10.095  1.00  0.00     0.159 C 
HETATM    6  C7  UNL     1      -8.071  52.654   9.389  1.00  0.00     0.078 C 
HETATM    7  C8  UNL     1      -5.801  51.945   8.964  1.00  0.00     0.078 C 
HETATM    8  O4  UNL     1      -6.255  53.395  10.828  1.00  0.00    -0.332 OA
HETATM    9  C9  UNL     1      -6.546  53.107  12.199  1.00  0.00     0.178 C 
HETATM   10  C12 UNL     1      -5.402  53.740  12.991  1.00  0.00     0.165 C 
HETATM   11  C13 UNL     1      -5.452  53.378  14.424  1.00  0.00     0.043 C 
HETATM   12  O7  UNL     1      -4.182  53.308  12.479  1.00  0.00    -0.352 OA
ENDROOT
BRANCH   9  13
HETATM   13  C10 UNL     1      -7.763  53.802  12.532  1.00  0.00     0.189 C 
HETATM   14  O5  UNL     1      -8.706  53.087  12.945  1.00  0.00    -0.292 OA
BRANCH  13  15
HETATM   15  C11 UNL     1      -8.163  55.204  12.497  1.00  0.00     0.245 C 
BRANCH  15  16
HETATM   16  O6  UNL     1      -8.804  55.750  13.549  1.00  0.00    -0.393 OA
ATOM     17  H6  UNL     1      -8.576  56.624  13.844  1.00  0.00     0.209 HD
ENDBRANCH  15  16
ENDBRANCH  13  15
ENDBRANCH   9  13
BRANCH   1  18
HETATM   18  O2  UNL     1      -2.757  51.591  12.281  1.00  0.00    -0.290 OA
BRANCH  18  19
HETATM   19  C2  UNL     1      -1.673  52.430  12.192  1.00  0.00     0.257 C 
HETATM   20  C1  UNL     1      -1.077  52.866  10.904  1.00  0.00     0.126 C 
HETATM   21  O1  UNL     1      -1.182  52.834  13.300  1.00  0.00    -0.266 OA
ENDBRANCH  18  19
ENDBRANCH   1  18
TORSDOF 5
ENDMDL
MODEL 2
REMARK VINA RESULT: -6.676918094      1.196      1.382
REMARK  5 active torsions:
REMARK  status: ('A' for Active; 'I' for Inactive)
REMARK    1  A    between atoms: C2_2  and  O2_4 
REMARK    2  A    between atoms: O2_4  and  C3_5 
REMARK    3  A    between atoms: C9_13  and  C10_14 
REMARK    4  A    between atoms: C10_14  and  C11_16 
REMARK    5  A    between atoms: C11_16  and  O6_17 
ROOT
HETATM    1  C3  UNL     1      -4.392  51.688  12.528  1.00  0.00     0.272 C 
HETATM    2  C4  UNL     1      -5.555  51.075  11.839  1.00  0.00     0.097 C 
HETATM    3  C5  UNL     1      -6.870  51.777  11.970  1.00  0.00     0.174 C 
HETATM    4  O3  UNL     1      -7.505  51.623  10.716  1.00  0.00    -0.347 OA
HETATM    5  C6  UNL     1      -7.093  52.673   9.939  1.00  0.00     0.159 C 
HETATM    6  C7  UNL     1      -8.367  53.263   9.315  1.00  0.00     0.078 C 
HETATM    7  C8  UNL     1      -6.241  52.268   8.745  1.00  0.00     0.078 C 
HETATM    8  O4  UNL     1      -6.427  53.588  10.745  1.00  0.00    -0.332 OA
HETATM    9  C9  UNL     1      -6.726  53.220  12.095  1.00  0.00     0.178 C 
HETATM   10  C12 UNL     1      -5.481  53.599  12.898  1.00  0.00     0.165 C 
HETATM   11  C13 UNL     1      -5.552  53.116  14.293  1.00  0.00     0.043 C 
HETATM   12  O7  UNL     1      -4.352  53.041  12.304  1.00  0.00    -0.352 OA
ENDROOT
BRANCH   9  13
HETATM   13  C10 UNL     1      -7.816  54.053  12.534  1.00  0.00     0.189 C 
HETATM   14  O5  UNL     1      -8.756  53.463  13.116  1.00  0.00    -0.292 OA
BRANCH  13  15
HETATM   15  C11 UNL     1      -8.083  55.484  12.454  1.00  0.00     0.245 C 
BRANCH  15  16
HETATM   16  O6  UNL     1      -7.560  56.215  11.449  1.00  0.00    -0.393 OA
ATOM     17  H6  UNL     1      -6.714  56.634  11.555  1.00  0.00     0.209 HD
ENDBRANCH  15  16
ENDBRANCH  13  15
ENDBRANCH   9  13
BRANCH   1  18
HETATM   18  O2  UNL     1      -3.209  51.157  11.901  1.00  0.00    -0.290 OA
BRANCH  18  19
HETATM   19  C2  UNL     1      -2.240  50.458  12.580  1.00  0.00     0.257 C 
HETATM   20  C1  UNL     1      -2.399  49.048  13.016  1.00  0.00     0.126 C 
HETATM   21  O1  UNL     1      -1.159  51.093  12.828  1.00  0.00    -0.266 OA
ENDBRANCH  18  19
ENDBRANCH   1  18
TORSDOF 5
ENDMDL
MODEL 3
REMARK VINA RESULT: -6.543899870      1.311      1.500
REMARK  5 active torsions:
REMARK  status: ('A' for Active; 'I' for Inactive)
REMARK    1  A    between atoms: C2_2  and  O2_4 
REMARK    2  A    between atoms: O2_4  and  C3_5 
REMARK    3  A    between atoms: C9_13  and  C10_14 
REMARK    4  A    between atoms: C10_14  and  C11_16 
REMARK    5  A    between atoms: C11_16  and  O6_17 
ROOT
HETATM    1  C3  UNL     1      -4.407  53.176  13.478  1.00  0.00     0.272 C 
HETATM    2  C4  UNL     1      -5.572  52.280  13.265  1.00  0.00     0.097 C 
HETATM    3  C5  UNL     1      -6.908  52.932  13.091  1.00  0.00     0.174 C 
HETATM    4  O3  UNL     1      -7.586  52.148  12.130  1.00  0.00    -0.347 OA
HETATM    5  C6  UNL     1      -7.248  52.657  10.904  1.00  0.00     0.159 C 
HETATM    6  C7  UNL     1      -8.569  52.826  10.138  1.00  0.00     0.078 C 
HETATM    7  C8  UNL     1      -6.431  51.709  10.039  1.00  0.00     0.078 C 
HETATM    8  O4  UNL     1      -6.588  53.865  11.090  1.00  0.00    -0.332 OA
HETATM    9  C9  UNL     1      -6.816  54.237  12.453  1.00  0.00     0.178 C 
HETATM   10  C12 UNL     1      -5.556  54.991  12.878  1.00  0.00     0.165 C 
HETATM   11  C13 UNL     1      -5.551  55.291  14.326  1.00  0.00     0.043 C 
HETATM   12  O7  UNL     1      -4.431  54.222  12.592  1.00  0.00    -0.352 OA
ENDROOT
BRANCH   9  13
HETATM   13  C10 UNL     1      -7.920  55.162  12.463  1.00  0.00     0.189 C 
HETATM   14  O5  UNL     1      -8.623  55.164  13.501  1.00  0.00    -0.292 OA
BRANCH  13  15
HETATM   15  C11 UNL     1      -8.424  56.138  11.504  1.00  0.00     0.245 C 
BRANCH  15  16
HETATM   16  O6  UNL     1      -7.783  56.329  10.334  1.00  0.00    -0.393 OA
ATOM     17  H6  UNL     1      -8.240  56.721   9.599  1.00  0.00     0.209 HD
ENDBRANCH  15  16
ENDBRANCH  13  15
ENDBRANCH   9  13
BRANCH   1  18
HETATM   18  O2  UNL     1      -3.231  52.414  13.146  1.00  0.00    -0.290 OA
BRANCH  18  19
HETATM   19  C2  UNL     1      -2.040  52.986  12.767  1.00  0.00     0.257 C 
HETATM   20  C1  UNL     1      -1.486  52.894  11.392  1.00  0.00     0.126 C 
HETATM   21  O1  UNL     1      -1.407  53.622  13.677  1.00  0.00    -0.266 OA
ENDBRANCH  18  19
ENDBRANCH   1  18
TORSDOF 5
ENDMDL
MODEL 4
REMARK VINA RESULT: -6.515098838      2.766      6.560
REMARK  5 active torsions:
REMARK  status: ('A' for Active; 'I' for Inactive)
REMARK    1  A    between atoms: C2_2  and  O2_4 
REMARK    2  A    between atoms: O2_4  and  C3_5 
REMARK    3  A    between atoms: C9_13  and  C10_14 
REMARK    4  A    between atoms: C10_14  and  C11_16 
REMARK    5  A    between atoms: C11_16  and  O6_17 
ROOT
HETATM    1  C3  UNL     1      -3.849  51.583  12.097  1.00  0.00     0.272 C 
HETATM    2  C4  UNL     1      -2.413  51.635  12.470  1.00  0.00     0.097 C 
HETATM    3  C5  UNL     1      -1.512  50.611  11.852  1.00  0.00     0.174 C 
HETATM    4  O3  UNL     1      -0.292  51.281  11.609  1.00  0.00    -0.347 OA
HETATM    5  C6  UNL     1      -0.399  51.845  10.366  1.00  0.00     0.159 C 
HETATM    6  C7  UNL     1       0.889  51.467   9.618  1.00  0.00     0.078 C 
HETATM    7  C8  UNL     1      -0.398  53.367  10.370  1.00  0.00     0.078 C 
HETATM    8  O4  UNL     1      -1.537  51.343   9.746  1.00  0.00    -0.332 OA
HETATM    9  C9  UNL     1      -1.946  50.213  10.522  1.00  0.00     0.178 C 
HETATM   10  C12 UNL     1      -3.470  50.179  10.406  1.00  0.00     0.165 C 
HETATM   11  C13 UNL     1      -4.073  49.171  11.303  1.00  0.00     0.043 C 
HETATM   12  O7  UNL     1      -3.993  51.425  10.742  1.00  0.00    -0.352 OA
ENDROOT
BRANCH   9  13
HETATM   13  C10 UNL     1      -1.419  49.039   9.875  1.00  0.00     0.189 C 
HETATM   14  O5  UNL     1      -1.701  48.910   8.660  1.00  0.00    -0.292 OA
BRANCH  13  15
HETATM   15  C11 UNL     1      -0.598  47.922  10.329  1.00  0.00     0.245 C 
BRANCH  15  16
HETATM   16  O6  UNL     1       0.728  47.916  10.089  1.00  0.00    -0.393 OA
ATOM     17  H6  UNL     1       1.162  47.112   9.829  1.00  0.00     0.209 HD
ENDBRANCH  15  16
ENDBRANCH  13  15
ENDBRANCH   9  13
BRANCH   1  18
HETATM   18  O2  UNL     1      -4.404  52.877  12.397  1.00  0.00    -0.290 OA
BRANCH  18  19
HETATM   19  C2  UNL     1      -5.303  53.100  13.412  1.00  0.00     0.257 C 
HETATM   20  C1  UNL     1      -6.773  52.976  13.248  1.00  0.00     0.126 C 
HETATM   21  O1  UNL     1      -4.804  53.428  14.542  1.00  0.00    -0.266 OA
ENDBRANCH  18  19
ENDBRANCH   1  18
TORSDOF 5
ENDMDL
MODEL 5
REMARK VINA RESULT: -6.419363997      1.922      5.245
REMARK  5 active torsions:
REMARK  status: ('A' for Active; 'I' for Inactive)
REMARK    1  A    between atoms: C2_2  and  O2_4 
REMARK    2  A    between atoms: O2_4  and  C3_5 
REMARK    3  A    between atoms: C9_13  and  C10_14 
REMARK    4  A    between atoms: C10_14  and  C11_16 
REMARK    5  A    between atoms: C11_16  and  O6_17 
ROOT
HETATM    1  C3  UNL     1      -5.602  52.978  12.844  1.00  0.00     0.272 C 
HETATM    2  C4  UNL     1      -4.430  52.204  13.327  1.00  0.00     0.097 C 
HETATM    3  C5  UNL     1      -4.120  50.925  12.615  1.00  0.00     0.174 C 
HETATM    4  O3  UNL     1      -2.709  50.847  12.582  1.00  0.00    -0.347 OA
HETATM    5  C6  UNL     1      -2.310  51.502  11.447  1.00  0.00     0.159 C 
HETATM    6  C7  UNL     1      -1.316  50.564  10.744  1.00  0.00     0.078 C 
HETATM    7  C8  UNL     1      -1.511  52.770  11.707  1.00  0.00     0.078 C 
HETATM    8  O4  UNL     1      -3.430  51.763  10.667  1.00  0.00    -0.332 OA
HETATM    9  C9  UNL     1      -4.486  50.963  11.208  1.00  0.00     0.178 C 
HETATM   10  C12 UNL     1      -5.761  51.773  10.973  1.00  0.00     0.165 C 
HETATM   11  C13 UNL     1      -6.934  51.168  11.640  1.00  0.00     0.043 C 
HETATM   12  O7  UNL     1      -5.597  53.061  11.475  1.00  0.00    -0.352 OA
ENDROOT
BRANCH   9  13
HETATM   13  C10 UNL     1      -4.562  49.764  10.414  1.00  0.00     0.189 C 
HETATM   14  O5  UNL     1      -4.727  49.932   9.183  1.00  0.00    -0.292 OA
BRANCH  13  15
HETATM   15  C11 UNL     1      -4.486  48.342  10.729  1.00  0.00     0.245 C 
BRANCH  15  16
HETATM   16  O6  UNL     1      -3.461  47.866  11.463  1.00  0.00    -0.393 OA
ATOM     17  H6  UNL     1      -2.991  48.441  12.055  1.00  0.00     0.209 HD
ENDBRANCH  15  16
ENDBRANCH  13  15
ENDBRANCH   9  13
BRANCH   1  18
HETATM   18  O2  UNL     1      -5.433  54.328  13.315  1.00  0.00    -0.290 OA
BRANCH  18  19
HETATM   19  C2  UNL     1      -6.482  55.168  13.600  1.00  0.00     0.257 C 
HETATM   20  C1  UNL     1      -7.683  55.304  12.738  1.00  0.00     0.126 C 
HETATM   21  O1  UNL     1      -6.378  55.851  14.675  1.00  0.00    -0.266 OA
ENDBRANCH  18  19
ENDBRANCH   1  18
TORSDOF 5
ENDMDL
