MODEL 1
REMARK VINA RESULT: -6.931222682      0.000      0.000
REMARK  5 active torsions:
REMARK  status: ('A' for Active; 'I' for Inactive)
REMARK    1  A    between atoms: O1_2  and  C2_3 
REMARK    2  A    between atoms: C2_3  and  C3_5 
REMARK    3  A    between atoms: C4_7  and  O4_8 
REMARK    4  A    between atoms: C6_11  and  O5_12 
REMARK    5  A    between atoms: O5_12  and  C7_13 
ROOT
HETATM    1  C3  UNL     1      -5.509  53.311  12.929  1.00  0.00     0.372 C 
HETATM    2  O3  UNL     1      -6.086  53.893  14.077  1.00  0.00    -0.289 OA
HETATM    3  C4  UNL     1      -6.551  55.199  14.003  1.00  0.00     0.181 C 
HETATM    4  C5  UNL     1      -7.072  55.567  12.831  1.00  0.00     0.096 C 
HETATM    5  C6  UNL     1      -7.088  54.543  11.766  1.00  0.00     0.296 C 
HETATM    6  O7  UNL     1      -5.853  53.923  11.754  1.00  0.00    -0.318 OA
ENDROOT
BRANCH   5   7
HETATM    7  O5  UNL     1      -8.060  53.572  11.993  1.00  0.00    -0.324 OA
BRANCH   7   8
HETATM    8  C7  UNL     1      -8.590  53.089  10.778  1.00  0.00     0.299 A 
HETATM    9  O6  UNL     1      -9.812  53.702  10.610  1.00  0.00    -0.328 OA
HETATM   10  C8  UNL     1     -11.009  53.049  10.588  1.00  0.00     0.139 A 
HETATM   11  C9  UNL     1     -11.112  51.739  10.727  1.00  0.00     0.031 A 
HETATM   12  C10 UNL     1      -9.857  51.028  10.908  1.00  0.00    -0.053 A 
HETATM   13  C11 UNL     1      -9.832  49.534  11.080  1.00  0.00     0.048 C 
HETATM   14  C12 UNL     1      -8.699  51.632  10.934  1.00  0.00    -0.023 A 
HETATM   15  C13 UNL     1      -7.445  50.800  11.129  1.00  0.00     0.049 C 
ENDBRANCH   7   8
ENDBRANCH   5   7
BRANCH   3  16
HETATM   16  O4  UNL     1      -6.486  56.082  15.074  1.00  0.00    -0.341 OA
ATOM     17  H4  UNL     1      -5.805  56.738  15.158  1.00  0.00     0.220 HD
ENDBRANCH   3  16
BRANCH   1  18
HETATM   18  C2  UNL     1      -4.019  53.406  13.063  1.00  0.00     0.314 C 
HETATM   19  O2  UNL     1      -3.419  54.515  13.011  1.00  0.00    -0.260 OA
BRANCH  18  20
HETATM   20  O1  UNL     1      -3.240  52.271  13.249  1.00  0.00    -0.323 OA
HETATM   21  C1  UNL     1      -3.681  51.027  12.761  1.00  0.00     0.213 C 
ENDBRANCH  18  20
ENDBRANCH   1  18
TORSDOF 5
ENDMDL
MODEL 2
REMARK VINA RESULT: -6.914180371      2.037      5.918
REMARK  5 active torsions:
REMARK  status: ('A' for Active; 'I' for Inactive)
REMARK    1  A    between atoms: O1_2  and  C2_3 
REMARK    2  A    between atoms: C2_3  and  C3_5 
REMARK    3  A    between atoms: C4_7  and  O4_8 
REMARK    4  A    between atoms: C6_11  and  O5_12 
REMARK    5  A    between atoms: O5_12  and  C7_13 
ROOT
HETATM    1  C3  UNL     1      -6.715  53.167  11.900  1.00  0.00     0.372 C 
HETATM    2  O3  UNL     1      -6.075  54.415  12.056  1.00  0.00    -0.289 OA
HETATM    3  C4  UNL     1      -5.463  54.707  13.267  1.00  0.00     0.181 C 
HETATM    4  C5  UNL     1      -4.903  53.675  13.901  1.00  0.00     0.096 C 
HETATM    5  C6  UNL     1      -5.004  52.360  13.237  1.00  0.00     0.296 C 
HETATM    6  O7  UNL     1      -6.302  52.209  12.787  1.00  0.00    -0.318 OA
ENDROOT
BRANCH   5   7
HETATM    7  O5  UNL     1      -4.150  52.263  12.142  1.00  0.00    -0.324 OA
BRANCH   7   8
HETATM    8  C7  UNL     1      -2.807  52.143  12.553  1.00  0.00     0.299 A 
HETATM    9  O6  UNL     1      -2.122  53.186  11.969  1.00  0.00    -0.328 OA
HETATM   10  C8  UNL     1      -1.126  53.040  11.048  1.00  0.00     0.139 A 
HETATM   11  C9  UNL     1      -0.715  51.858  10.621  1.00  0.00     0.031 A 
HETATM   12  C10 UNL     1      -1.397  50.711  11.198  1.00  0.00    -0.053 A 
HETATM   13  C11 UNL     1      -1.027  49.310  10.798  1.00  0.00     0.048 C 
HETATM   14  C12 UNL     1      -2.354  50.827  12.081  1.00  0.00    -0.023 A 
HETATM   15  C13 UNL     1      -3.003  49.568  12.623  1.00  0.00     0.049 C 
ENDBRANCH   7   8
ENDBRANCH   5   7
BRANCH   3  16
HETATM   16  O4  UNL     1      -5.426  55.989  13.801  1.00  0.00    -0.341 OA
ATOM     17  H4  UNL     1      -4.669  56.332  14.261  1.00  0.00     0.220 HD
ENDBRANCH   3  16
BRANCH   1  18
HETATM   18  C2  UNL     1      -8.184  53.373  12.115  1.00  0.00     0.314 C 
HETATM   19  O2  UNL     1      -8.701  53.304  13.264  1.00  0.00    -0.260 OA
BRANCH  18  20
HETATM   20  O1  UNL     1      -9.034  53.648  11.052  1.00  0.00    -0.323 OA
HETATM   21  C1  UNL     1      -8.645  53.325   9.738  1.00  0.00     0.213 C 
ENDBRANCH  18  20
ENDBRANCH   1  18
TORSDOF 5
ENDMDL
MODEL 3
REMARK VINA RESULT: -6.813739311      2.344      5.741
REMARK  5 active torsions:
REMARK  status: ('A' for Active; 'I' for Inactive)
REMARK    1  A    between atoms: O1_2  and  C2_3 
REMARK    2  A    between atoms: C2_3  and  C3_5 
REMARK    3  A    between atoms: C4_7  and  O4_8 
REMARK    4  A    between atoms: C6_11  and  O5_12 
REMARK    5  A    between atoms: O5_12  and  C7_13 
ROOT
HETATM    1  C3  UNL     1      -7.126  54.335  11.702  1.00  0.00     0.372 C 
HETATM    2  O3  UNL     1      -6.484  55.294  12.513  1.00  0.00    -0.289 OA
HETATM    3  C4  UNL     1      -6.248  54.991  13.848  1.00  0.00     0.181 C 
HETATM    4  C5  UNL     1      -5.972  53.713  14.115  1.00  0.00     0.096 C 
HETATM    5  C6  UNL     1      -5.953  52.788  12.965  1.00  0.00     0.296 C 
HETATM    6  O7  UNL     1      -7.062  53.055  12.185  1.00  0.00    -0.318 OA
ENDROOT
BRANCH   5   7
HETATM    7  O5  UNL     1      -4.817  52.959  12.178  1.00  0.00    -0.324 OA
BRANCH   7   8
HETATM    8  C7  UNL     1      -3.690  52.353  12.772  1.00  0.00     0.299 A 
HETATM    9  O6  UNL     1      -2.709  53.318  12.832  1.00  0.00    -0.328 OA
HETATM   10  C8  UNL     1      -1.521  53.258  12.163  1.00  0.00     0.139 A 
HETATM   11  C9  UNL     1      -1.193  52.245  11.379  1.00  0.00     0.031 A 
HETATM   12  C10 UNL     1      -2.185  51.189  11.271  1.00  0.00    -0.053 A 
HETATM   13  C11 UNL     1      -1.938  49.980  10.412  1.00  0.00     0.048 C 
HETATM   14  C12 UNL     1      -3.330  51.226  11.902  1.00  0.00    -0.023 A 
HETATM   15  C13 UNL     1      -4.299  50.072  11.723  1.00  0.00     0.049 C 
ENDBRANCH   7   8
ENDBRANCH   5   7
BRANCH   3  16
HETATM   16  O4  UNL     1      -6.291  55.947  14.855  1.00  0.00    -0.341 OA
ATOM     17  H4  UNL     1      -6.093  55.748  15.762  1.00  0.00     0.220 HD
ENDBRANCH   3  16
BRANCH   1  18
HETATM   18  C2  UNL     1      -8.575  54.706  11.609  1.00  0.00     0.314 C 
HETATM   19  O2  UNL     1      -9.436  53.905  11.149  1.00  0.00    -0.260 OA
BRANCH  18  20
HETATM   20  O1  UNL     1      -9.026  55.952  12.026  1.00  0.00    -0.323 OA
HETATM   21  C1  UNL     1      -9.724  56.784  11.130  1.00  0.00     0.213 C 
ENDBRANCH  18  20
ENDBRANCH   1  18
TORSDOF 5
ENDMDL
MODEL 4
REMARK VINA RESULT: -6.773669756      2.601      5.917
REMARK  5 active torsions:
REMARK  status: ('A' for Active; 'I' for Inactive)
REMARK    1  A    between atoms: O1_2  and  C2_3 
REMARK    2  A    between atoms: C2_3  and  C3_5 
REMARK    3  A    between atoms: C4_7  and  O4_8 
REMARK    4  A    between atoms: C6_11  and  O5_12 
REMARK    5  A    between atoms: O5_12  and  C7_13 
ROOT
HETATM    1  C3  UNL     1      -6.622  53.628  12.134  1.00  0.00     0.372 C 
HETATM    2  O3  UNL     1      -5.740  54.058  13.148  1.00  0.00    -0.289 OA
HETATM    3  C4  UNL     1      -5.257  53.124  14.055  1.00  0.00     0.181 C 
HETATM    4  C5  UNL     1      -5.047  51.898  13.572  1.00  0.00     0.096 C 
HETATM    5  C6  UNL     1      -5.354  51.690  12.143  1.00  0.00     0.296 C 
HETATM    6  O7  UNL     1      -6.573  52.284  11.878  1.00  0.00    -0.318 OA
ENDROOT
BRANCH   5   7
HETATM    7  O5  UNL     1      -4.398  52.273  11.316  1.00  0.00    -0.324 OA
BRANCH   7   8
HETATM    8  C7  UNL     1      -3.153  51.621  11.437  1.00  0.00     0.299 A 
HETATM    9  O6  UNL     1      -2.275  52.541  11.962  1.00  0.00    -0.328 OA
HETATM   10  C8  UNL     1      -1.175  53.021  11.313  1.00  0.00     0.139 A 
HETATM   11  C9  UNL     1      -0.841  52.637  10.093  1.00  0.00     0.031 A 
HETATM   12  C10 UNL     1      -1.728  51.664   9.478  1.00  0.00    -0.053 A 
HETATM   13  C11 UNL     1      -1.464  51.144   8.092  1.00  0.00     0.048 C 
HETATM   14  C12 UNL     1      -2.787  51.191  10.080  1.00  0.00    -0.023 A 
HETATM   15  C13 UNL     1      -3.649  50.177   9.352  1.00  0.00     0.049 C 
ENDBRANCH   7   8
ENDBRANCH   5   7
BRANCH   3  16
HETATM   16  O4  UNL     1      -5.002  53.430  15.386  1.00  0.00    -0.341 OA
ATOM     17  H4  UNL     1      -4.150  53.311  15.786  1.00  0.00     0.220 HD
ENDBRANCH   3  16
BRANCH   1  18
HETATM   18  C2  UNL     1      -8.019  53.950  12.571  1.00  0.00     0.314 C 
HETATM   19  O2  UNL     1      -8.823  53.048  12.938  1.00  0.00    -0.260 OA
BRANCH  18  20
HETATM   20  O1  UNL     1      -8.483  55.259  12.589  1.00  0.00    -0.323 OA
HETATM   21  C1  UNL     1      -8.350  56.069  11.444  1.00  0.00     0.213 C 
ENDBRANCH  18  20
ENDBRANCH   1  18
TORSDOF 5
ENDMDL
MODEL 5
REMARK VINA RESULT: -6.475442037      1.004      1.692
REMARK  5 active torsions:
REMARK  status: ('A' for Active; 'I' for Inactive)
REMARK    1  A    between atoms: O1_2  and  C2_3 
REMARK    2  A    between atoms: C2_3  and  C3_5 
REMARK    3  A    between atoms: C4_7  and  O4_8 
REMARK    4  A    between atoms: C6_11  and  O5_12 
REMARK    5  A    between atoms: O5_12  and  C7_13 
ROOT
HETATM    1  C3  UNL     1      -5.962  53.003  13.001  1.00  0.00     0.372 C 
HETATM    2  O3  UNL     1      -6.491  53.763  14.065  1.00  0.00    -0.289 OA
HETATM    3  C4  UNL     1      -6.558  55.144  13.933  1.00  0.00     0.181 C 
HETATM    4  C5  UNL     1      -6.804  55.600  12.703  1.00  0.00     0.096 C 
HETATM    5  C6  UNL     1      -6.973  54.585  11.644  1.00  0.00     0.296 C 
HETATM    6  O7  UNL     1      -5.970  53.645  11.792  1.00  0.00    -0.318 OA
ENDROOT
BRANCH   5   7
HETATM    7  O5  UNL     1      -8.198  53.931  11.741  1.00  0.00    -0.324 OA
BRANCH   7   8
HETATM    8  C7  UNL     1      -8.664  53.530  10.472  1.00  0.00     0.299 A 
HETATM    9  O6  UNL     1      -9.099  54.670   9.833  1.00  0.00    -0.328 OA
HETATM   10  C8  UNL     1     -10.391  54.905   9.462  1.00  0.00     0.139 A 
HETATM   11  C9  UNL     1     -11.367  54.042   9.685  1.00  0.00     0.031 A 
HETATM   12  C10 UNL     1     -10.976  52.813  10.357  1.00  0.00    -0.053 A 
HETATM   13  C11 UNL     1     -11.988  51.747  10.670  1.00  0.00     0.048 C 
HETATM   14  C12 UNL     1      -9.745  52.567  10.722  1.00  0.00    -0.023 A 
HETATM   15  C13 UNL     1      -9.439  51.254  11.417  1.00  0.00     0.049 C 
ENDBRANCH   7   8
ENDBRANCH   5   7
BRANCH   3  16
HETATM   16  O4  UNL     1      -6.382  56.011  15.004  1.00  0.00    -0.341 OA
ATOM     17  H4  UNL     1      -7.076  56.214  15.620  1.00  0.00     0.220 HD
ENDBRANCH   3  16
BRANCH   1  18
HETATM   18  C2  UNL     1      -4.534  52.684  13.329  1.00  0.00     0.314 C 
HETATM   19  O2  UNL     1      -4.120  51.493  13.392  1.00  0.00    -0.260 OA
BRANCH  18  20
HETATM   20  O1  UNL     1      -3.611  53.692  13.578  1.00  0.00    -0.323 OA
HETATM   21  C1  UNL     1      -2.361  53.677  12.931  1.00  0.00     0.213 C 
ENDBRANCH  18  20
ENDBRANCH   1  18
TORSDOF 5
ENDMDL
