MODEL 1
REMARK VINA RESULT: -6.085504712      0.000      0.000
REMARK  4 active torsions:
REMARK  status: ('A' for Active; 'I' for Inactive)
REMARK    1  A    between atoms: C2_2  and  C3_3 
REMARK    2  A    between atoms: N1_5  and  C5_6 
REMARK    3  A    between atoms: N2_7  and  N3_9 
REMARK    4  A    between atoms: C6_10  and  O1_11 
ROOT
HETATM    1  C5  UNL     1      -2.340  52.655  12.482  1.00  0.00     0.196 C 
HETATM    2  N2  UNL     1      -2.254  52.223  11.283  1.00  0.00    -0.285 N 
ATOM      3  H2  UNL     1      -3.100  52.229  10.713  1.00  0.00     0.188 HD
ENDROOT
BRANCH   2   4
HETATM    4  N3  UNL     1      -1.086  51.744  10.706  1.00  0.00    -0.205 N 
HETATM    5  C6  UNL     1      -0.184  52.544  10.089  1.00  0.00     0.179 A 
HETATM    6  C7  UNL     1       0.839  51.731   9.641  1.00  0.00     0.148 A 
HETATM    7  N4  UNL     1       0.510  50.480  10.007  1.00  0.00    -0.337 N 
HETATM    8  C8  UNL     1      -0.666  50.466  10.661  1.00  0.00     0.199 A 
ATOM      9  H4  UNL     1       1.074  49.653   9.815  1.00  0.00     0.167 HD
HETATM   10  S1  UNL     1      -1.425  49.146  11.275  1.00  0.00    -0.039 SA
BRANCH   5  11
HETATM   11  O1  UNL     1      -0.267  53.930   9.932  1.00  0.00    -0.344 OA
ATOM     12  H1  UNL     1       0.129  54.588  10.490  1.00  0.00     0.219 HD
ENDBRANCH   5  11
ENDBRANCH   2   4
BRANCH   1  13
HETATM   13  N1  UNL     1      -3.578  53.122  12.978  1.00  0.00    -0.376 N 
HETATM   14  C4  UNL     1      -4.503  52.195  13.597  1.00  0.00     0.129 C 
HETATM   15  C3  UNL     1      -5.932  52.413  13.122  1.00  0.00     0.022 C 
HETATM   16  C11 UNL     1      -6.194  53.889  13.168  1.00  0.00     0.089 C 
HETATM   17  C10 UNL     1      -5.268  54.624  12.234  1.00  0.00     0.040 C 
HETATM   18 CL1  UNL     1      -7.880  54.341  12.996  1.00  0.00    -0.124 Cl
HETATM   19  C9  UNL     1      -3.873  54.540  12.843  1.00  0.00     0.125 C 
BRANCH  15  20
HETATM   20  C2  UNL     1      -6.153  51.788  11.772  1.00  0.00     0.003 C 
HETATM   21  C1  UNL     1      -5.390  50.504  11.594  1.00  0.00     0.005 C 
ENDBRANCH  15  20
ENDBRANCH   1  13
TORSDOF 4
ENDMDL
MODEL 2
REMARK VINA RESULT: -6.064902979      4.566      6.911
REMARK  4 active torsions:
REMARK  status: ('A' for Active; 'I' for Inactive)
REMARK    1  A    between atoms: C2_2  and  C3_3 
REMARK    2  A    between atoms: N1_5  and  C5_6 
REMARK    3  A    between atoms: N2_7  and  N3_9 
REMARK    4  A    between atoms: C6_10  and  O1_11 
ROOT
HETATM    1  C5  UNL     1      -5.930  54.658  12.340  1.00  0.00     0.196 C 
HETATM    2  N2  UNL     1      -7.143  54.524  11.962  1.00  0.00    -0.285 N 
ATOM      3  H2  UNL     1      -7.565  53.598  12.033  1.00  0.00     0.188 HD
ENDROOT
BRANCH   2   4
HETATM    4  N3  UNL     1      -7.924  55.556  11.459  1.00  0.00    -0.205 N 
HETATM    5  C6  UNL     1      -8.763  56.291  12.226  1.00  0.00     0.179 A 
HETATM    6  C7  UNL     1      -9.367  57.215  11.397  1.00  0.00     0.148 A 
HETATM    7  N4  UNL     1      -8.866  56.997  10.168  1.00  0.00    -0.337 N 
HETATM    8  C8  UNL     1      -7.980  55.985  10.185  1.00  0.00     0.199 A 
ATOM      9  H4  UNL     1      -9.123  57.528   9.336  1.00  0.00     0.167 HD
HETATM   10  S1  UNL     1      -7.143  55.401   8.898  1.00  0.00    -0.039 SA
BRANCH   5  11
HETATM   11  O1  UNL     1      -8.981  56.145  13.599  1.00  0.00    -0.344 OA
ATOM     12  H1  UNL     1      -9.813  56.215  14.051  1.00  0.00     0.219 HD
ENDBRANCH   5  11
ENDBRANCH   2   4
BRANCH   1  13
HETATM   13  N1  UNL     1      -5.218  53.543  12.838  1.00  0.00    -0.376 N 
HETATM   14  C4  UNL     1      -3.842  53.697  13.262  1.00  0.00     0.129 C 
HETATM   15  C3  UNL     1      -2.959  52.567  12.754  1.00  0.00     0.022 C 
HETATM   16  C11 UNL     1      -3.692  51.283  13.009  1.00  0.00     0.089 C 
HETATM   17  C10 UNL     1      -4.990  51.249  12.245  1.00  0.00     0.040 C 
HETATM   18 CL1  UNL     1      -2.722  49.834  12.823  1.00  0.00    -0.124 Cl
HETATM   19  C9  UNL     1      -5.914  52.267  12.904  1.00  0.00     0.125 C 
BRANCH  15  20
HETATM   20  C2  UNL     1      -2.577  52.785  11.317  1.00  0.00     0.003 C 
HETATM   21  C1  UNL     1      -1.190  53.343  11.161  1.00  0.00     0.005 C 
ENDBRANCH  15  20
ENDBRANCH   1  13
TORSDOF 4
ENDMDL
MODEL 3
REMARK VINA RESULT: -5.887899195      4.638      6.918
REMARK  4 active torsions:
REMARK  status: ('A' for Active; 'I' for Inactive)
REMARK    1  A    between atoms: C2_2  and  C3_3 
REMARK    2  A    between atoms: N1_5  and  C5_6 
REMARK    3  A    between atoms: N2_7  and  N3_9 
REMARK    4  A    between atoms: C6_10  and  O1_11 
ROOT
HETATM    1  C5  UNL     1      -7.185  53.289  12.053  1.00  0.00     0.196 C 
HETATM    2  N2  UNL     1      -6.880  54.518  11.887  1.00  0.00    -0.285 N 
ATOM      3  H2  UNL     1      -5.918  54.801  12.076  1.00  0.00     0.188 HD
ENDROOT
BRANCH   2   4
HETATM    4  N3  UNL     1      -7.772  55.495  11.467  1.00  0.00    -0.205 N 
HETATM    5  C6  UNL     1      -8.617  56.137  12.309  1.00  0.00     0.179 A 
HETATM    6  C7  UNL     1      -9.346  57.031  11.550  1.00  0.00     0.148 A 
HETATM    7  N4  UNL     1      -8.909  56.890  10.285  1.00  0.00    -0.337 N 
HETATM    8  C8  UNL     1      -7.945  55.954  10.214  1.00  0.00     0.199 A 
ATOM      9  H4  UNL     1      -9.261  57.420   9.489  1.00  0.00     0.167 HD
HETATM   10  S1  UNL     1      -7.148  55.477   8.859  1.00  0.00    -0.039 SA
BRANCH   5  11
HETATM   11  O1  UNL     1      -8.734  55.936  13.687  1.00  0.00    -0.344 OA
ATOM     12  H1  UNL     1      -8.852  56.605  14.350  1.00  0.00     0.219 HD
ENDBRANCH   5  11
ENDBRANCH   2   4
BRANCH   1  13
HETATM   13  N1  UNL     1      -6.202  52.369  12.485  1.00  0.00    -0.376 N 
HETATM   14  C4  UNL     1      -5.298  52.731  13.557  1.00  0.00     0.129 C 
HETATM   15  C3  UNL     1      -3.860  52.342  13.246  1.00  0.00     0.022 C 
HETATM   16  C11 UNL     1      -3.886  50.939  12.716  1.00  0.00     0.089 C 
HETATM   17  C10 UNL     1      -4.682  50.865  11.440  1.00  0.00     0.040 C 
HETATM   18 CL1  UNL     1      -2.316  50.163  12.617  1.00  0.00    -0.124 Cl
HETATM   19  C9  UNL     1      -6.143  51.076  11.821  1.00  0.00     0.125 C 
BRANCH  15  20
HETATM   20  C2  UNL     1      -3.220  53.340  12.321  1.00  0.00     0.003 C 
HETATM   21  C1  UNL     1      -1.852  53.764  12.779  1.00  0.00     0.005 C 
ENDBRANCH  15  20
ENDBRANCH   1  13
TORSDOF 4
ENDMDL
MODEL 4
REMARK VINA RESULT: -5.869703330      5.272      7.615
REMARK  4 active torsions:
REMARK  status: ('A' for Active; 'I' for Inactive)
REMARK    1  A    between atoms: C2_2  and  C3_3 
REMARK    2  A    between atoms: N1_5  and  C5_6 
REMARK    3  A    between atoms: N2_7  and  N3_9 
REMARK    4  A    between atoms: C6_10  and  O1_11 
ROOT
HETATM    1  C5  UNL     1      -7.312  55.431  12.516  1.00  0.00     0.196 C 
HETATM    2  N2  UNL     1      -8.280  55.320  11.689  1.00  0.00    -0.285 N 
ATOM      3  H2  UNL     1      -8.559  54.381  11.406  1.00  0.00     0.188 HD
ENDROOT
BRANCH   2   4
HETATM    4  N3  UNL     1      -8.976  56.393  11.150  1.00  0.00    -0.205 N 
HETATM    5  C6  UNL     1      -9.728  57.237  11.896  1.00  0.00     0.179 A 
HETATM    6  C7  UNL     1     -10.265  58.172  11.034  1.00  0.00     0.148 A 
HETATM    7  N4  UNL     1      -9.814  57.852   9.808  1.00  0.00    -0.337 N 
HETATM    8  C8  UNL     1      -9.022  56.766   9.858  1.00  0.00     0.199 A 
ATOM      9  H4  UNL     1     -10.041  58.364   8.956  1.00  0.00     0.167 HD
HETATM   10  S1  UNL     1      -8.270  56.048   8.586  1.00  0.00    -0.039 SA
BRANCH   5  11
HETATM   11  O1  UNL     1      -9.927  57.177  13.278  1.00  0.00    -0.344 OA
ATOM     12  H1  UNL     1      -9.306  57.427  13.952  1.00  0.00     0.219 HD
ENDBRANCH   5  11
ENDBRANCH   2   4
BRANCH   1  13
HETATM   13  N1  UNL     1      -6.666  54.274  13.007  1.00  0.00    -0.376 N 
HETATM   14  C4  UNL     1      -5.610  54.401  13.989  1.00  0.00     0.129 C 
HETATM   15  C3  UNL     1      -4.417  53.514  13.662  1.00  0.00     0.022 C 
HETATM   16  C11 UNL     1      -4.956  52.163  13.298  1.00  0.00     0.089 C 
HETATM   17  C10 UNL     1      -5.831  52.250  12.074  1.00  0.00     0.040 C 
HETATM   18 CL1  UNL     1      -3.753  50.889  13.220  1.00  0.00    -0.124 Cl
HETATM   19  C9  UNL     1      -7.099  52.985  12.492  1.00  0.00     0.125 C 
BRANCH  15  20
HETATM   20  C2  UNL     1      -3.554  54.142  12.603  1.00  0.00     0.003 C 
HETATM   21  C1  UNL     1      -2.087  53.901  12.830  1.00  0.00     0.005 C 
ENDBRANCH  15  20
ENDBRANCH   1  13
TORSDOF 4
ENDMDL
MODEL 5
REMARK VINA RESULT: -5.681088248      3.563      6.209
REMARK  4 active torsions:
REMARK  status: ('A' for Active; 'I' for Inactive)
REMARK    1  A    between atoms: C2_2  and  C3_3 
REMARK    2  A    between atoms: N1_5  and  C5_6 
REMARK    3  A    between atoms: N2_7  and  N3_9 
REMARK    4  A    between atoms: C6_10  and  O1_11 
ROOT
HETATM    1  C5  UNL     1      -3.360  53.038  12.775  1.00  0.00     0.196 C 
HETATM    2  N2  UNL     1      -4.156  53.748  12.072  1.00  0.00    -0.285 N 
ATOM      3  H2  UNL     1      -3.846  54.033  11.143  1.00  0.00     0.188 HD
ENDROOT
BRANCH   2   4
HETATM    4  N3  UNL     1      -5.415  54.157  12.489  1.00  0.00    -0.205 N 
HETATM    5  C6  UNL     1      -5.647  55.356  13.075  1.00  0.00     0.179 A 
HETATM    6  C7  UNL     1      -6.999  55.418  13.351  1.00  0.00     0.148 A 
HETATM    7  N4  UNL     1      -7.522  54.256  12.920  1.00  0.00    -0.337 N 
HETATM    8  C8  UNL     1      -6.568  53.470  12.388  1.00  0.00     0.199 A 
ATOM      9  H4  UNL     1      -8.508  54.005  12.988  1.00  0.00     0.167 HD
HETATM   10  S1  UNL     1      -6.783  51.973  11.749  1.00  0.00    -0.039 SA
BRANCH   5  11
HETATM   11  O1  UNL     1      -4.701  56.347  13.351  1.00  0.00    -0.344 OA
ATOM     12  H1  UNL     1      -4.215  56.859  12.715  1.00  0.00     0.219 HD
ENDBRANCH   5  11
ENDBRANCH   2   4
BRANCH   1  13
HETATM   13  N1  UNL     1      -2.096  52.674  12.260  1.00  0.00    -0.376 N 
HETATM   14  C4  UNL     1      -1.424  53.542  11.315  1.00  0.00     0.129 C 
HETATM   15  C3  UNL     1      -0.830  52.766  10.149  1.00  0.00     0.022 C 
HETATM   16  C11 UNL     1      -0.118  51.577  10.725  1.00  0.00     0.089 C 
HETATM   17  C10 UNL     1      -1.085  50.677  11.450  1.00  0.00     0.040 C 
HETATM   18 CL1  UNL     1       0.930  50.733   9.601  1.00  0.00    -0.124 Cl
HETATM   19  C9  UNL     1      -1.515  51.418  12.711  1.00  0.00     0.125 C 
BRANCH  15  20
HETATM   20  C2  UNL     1      -1.886  52.422   9.136  1.00  0.00     0.003 C 
HETATM   21  C1  UNL     1      -1.472  52.751   7.729  1.00  0.00     0.005 C 
ENDBRANCH  15  20
ENDBRANCH   1  13
TORSDOF 4
ENDMDL
