MODEL 1
REMARK VINA RESULT: -6.539541710      0.000      0.000
REMARK  5 active torsions:
REMARK  status: ('A' for Active; 'I' for Inactive)
REMARK    1  A    between atoms: C2_3  and  O1_4 
REMARK    2  A    between atoms: C2_3  and  C3_6 
REMARK    3  A    between atoms: C5_10  and  C6_11 
REMARK    4  A    between atoms: C6_11  and  C7_12 
REMARK    5  A    between atoms: C7_12  and  C8_13 
ROOT
HETATM    1  C3  UNL     1      -5.454  53.641  12.383  1.00  0.00     0.115 C 
HETATM    2  C4  UNL     1      -4.177  53.185  11.754  1.00  0.00     0.095 A 
HETATM    3  N2  UNL     1      -2.992  53.822  11.759  1.00  0.00    -0.344 N 
ATOM      4  H2  UNL     1      -2.820  54.723  12.207  1.00  0.00     0.167 HD
HETATM    5  C5  UNL     1      -2.066  53.112  11.092  1.00  0.00     0.049 A 
HETATM    6  C9  UNL     1      -2.756  51.974  10.664  1.00  0.00     0.122 A 
HETATM    7  N3  UNL     1      -4.033  52.053  11.083  1.00  0.00    -0.339 N 
HETATM    8  C10 UNL     1      -5.159  51.147  10.912  1.00  0.00     0.091 C 
HETATM    9  C11 UNL     1      -6.192  51.755   9.972  1.00  0.00     0.026 C 
HETATM   10  C12 UNL     1      -7.044  52.672  10.804  1.00  0.00     0.008 C 
HETATM   11  C13 UNL     1      -6.495  52.561  12.222  1.00  0.00     0.005 C 
HETATM   12  C14 UNL     1      -5.913  51.173  12.244  1.00  0.00     0.031 C 
ENDROOT
BRANCH   1  13
HETATM   13  C2  UNL     1      -5.243  54.012  13.796  1.00  0.00     0.068 C 
HETATM   14  C1  UNL     1      -5.948  54.953  14.385  1.00  0.00     0.132 C 
HETATM   15  N1  UNL     1      -6.964  55.666  13.672  1.00  0.00    -0.113 NA
BRANCH  13  16
HETATM   16  O1  UNL     1      -4.273  53.350  14.523  1.00  0.00    -0.363 OA
ATOM     17  H1  UNL     1      -3.756  52.678  14.095  1.00  0.00     0.217 HD
ENDBRANCH  13  16
ENDBRANCH   1  13
BRANCH   5  18
HETATM   18  C6  UNL     1      -0.669  53.441  10.864  1.00  0.00     0.038 C 
BRANCH  18  19
HETATM   19  C7  UNL     1      -0.010  52.937   9.847  1.00  0.00     0.086 C 
BRANCH  19  20
HETATM   20  C8  UNL     1       0.476  53.786   8.766  1.00  0.00     0.198 C 
HETATM   21  O2  UNL     1      -0.252  53.981   7.735  1.00  0.00    -0.645 OA
HETATM   22  O3  UNL     1       1.696  54.404   8.790  1.00  0.00    -0.645 OA
ENDBRANCH  19  20
ENDBRANCH  18  19
ENDBRANCH   5  18
TORSDOF 5
ENDMDL
MODEL 2
REMARK VINA RESULT: -6.494896943      2.018      5.651
REMARK  5 active torsions:
REMARK  status: ('A' for Active; 'I' for Inactive)
REMARK    1  A    between atoms: C2_3  and  O1_4 
REMARK    2  A    between atoms: C2_3  and  C3_6 
REMARK    3  A    between atoms: C5_10  and  C6_11 
REMARK    4  A    between atoms: C6_11  and  C7_12 
REMARK    5  A    between atoms: C7_12  and  C8_13 
ROOT
HETATM    1  C3  UNL     1      -2.111  51.271  11.262  1.00  0.00     0.115 C 
HETATM    2  C4  UNL     1      -3.585  51.303  11.509  1.00  0.00     0.095 A 
HETATM    3  N2  UNL     1      -4.273  52.212  12.224  1.00  0.00    -0.344 N 
ATOM      4  H2  UNL     1      -3.855  53.013  12.698  1.00  0.00     0.167 HD
HETATM    5  C5  UNL     1      -5.585  51.920  12.229  1.00  0.00     0.049 A 
HETATM    6  C9  UNL     1      -5.675  50.755  11.462  1.00  0.00     0.122 A 
HETATM    7  N3  UNL     1      -4.443  50.410  11.042  1.00  0.00    -0.339 N 
HETATM    8  C10 UNL     1      -3.982  49.298  10.226  1.00  0.00     0.091 C 
HETATM    9  C11 UNL     1      -3.179  48.316  11.069  1.00  0.00     0.026 C 
HETATM   10  C12 UNL     1      -1.779  48.855  11.142  1.00  0.00     0.008 C 
HETATM   11  C13 UNL     1      -1.794  50.137  10.318  1.00  0.00     0.005 C 
HETATM   12  C14 UNL     1      -2.891  49.877   9.320  1.00  0.00     0.031 C 
ENDROOT
BRANCH   1  13
HETATM   13  C2  UNL     1      -1.632  52.573  10.758  1.00  0.00     0.068 C 
HETATM   14  C1  UNL     1      -1.190  53.515  11.562  1.00  0.00     0.132 C 
HETATM   15  N1  UNL     1      -1.152  53.315  12.978  1.00  0.00    -0.113 NA
BRANCH  13  16
HETATM   16  O1  UNL     1      -1.650  52.810   9.398  1.00  0.00    -0.363 OA
ATOM     17  H1  UNL     1      -1.092  52.289   8.833  1.00  0.00     0.217 HD
ENDBRANCH  13  16
ENDBRANCH   1  13
BRANCH   5  18
HETATM   18  C6  UNL     1      -6.665  52.642  12.879  1.00  0.00     0.038 C 
BRANCH  18  19
HETATM   19  C7  UNL     1      -6.550  53.071  14.114  1.00  0.00     0.086 C 
BRANCH  19  20
HETATM   20  C8  UNL     1      -5.673  54.188  14.445  1.00  0.00     0.198 C 
HETATM   21  O2  UNL     1      -4.445  53.972  14.724  1.00  0.00    -0.645 OA
HETATM   22  O3  UNL     1      -6.096  55.489  14.477  1.00  0.00    -0.645 OA
ENDBRANCH  19  20
ENDBRANCH  18  19
ENDBRANCH   5  18
TORSDOF 5
ENDMDL
MODEL 3
REMARK VINA RESULT: -6.432872192      1.816      2.207
REMARK  5 active torsions:
REMARK  status: ('A' for Active; 'I' for Inactive)
REMARK    1  A    between atoms: C2_3  and  O1_4 
REMARK    2  A    between atoms: C2_3  and  C3_6 
REMARK    3  A    between atoms: C5_10  and  C6_11 
REMARK    4  A    between atoms: C6_11  and  C7_12 
REMARK    5  A    between atoms: C7_12  and  C8_13 
ROOT
HETATM    1  C3  UNL     1      -4.159  52.822  12.060  1.00  0.00     0.115 C 
HETATM    2  C4  UNL     1      -2.893  52.475  11.347  1.00  0.00     0.095 A 
HETATM    3  N2  UNL     1      -2.091  53.305  10.655  1.00  0.00    -0.344 N 
ATOM      4  H2  UNL     1      -2.260  54.303  10.531  1.00  0.00     0.167 HD
HETATM    5  C5  UNL     1      -1.038  52.640  10.149  1.00  0.00     0.049 A 
HETATM    6  C9  UNL     1      -1.235  51.322  10.574  1.00  0.00     0.122 A 
HETATM    7  N3  UNL     1      -2.369  51.260  11.298  1.00  0.00    -0.339 N 
HETATM    8  C10 UNL     1      -3.024  50.144  11.963  1.00  0.00     0.091 C 
HETATM    9  C11 UNL     1      -4.320  49.785  11.248  1.00  0.00     0.026 C 
HETATM   10  C12 UNL     1      -5.372  50.724  11.764  1.00  0.00     0.008 C 
HETATM   11  C13 UNL     1      -4.665  51.602  12.790  1.00  0.00     0.005 C 
HETATM   12  C14 UNL     1      -3.557  50.710  13.283  1.00  0.00     0.031 C 
ENDROOT
BRANCH   1  13
HETATM   13  C2  UNL     1      -3.958  53.974  12.962  1.00  0.00     0.068 C 
HETATM   14  C1  UNL     1      -4.866  54.914  13.108  1.00  0.00     0.132 C 
HETATM   15  N1  UNL     1      -6.104  54.860  12.393  1.00  0.00    -0.113 NA
BRANCH  13  16
HETATM   16  O1  UNL     1      -2.779  54.067  13.673  1.00  0.00    -0.363 OA
ATOM     17  H1  UNL     1      -2.248  53.287  13.788  1.00  0.00     0.217 HD
ENDBRANCH  13  16
ENDBRANCH   1  13
BRANCH   5  18
HETATM   18  C6  UNL     1       0.054  53.160   9.346  1.00  0.00     0.038 C 
BRANCH  18  19
HETATM   19  C7  UNL     1      -0.135  53.537   8.103  1.00  0.00     0.086 C 
BRANCH  19  20
HETATM   20  C8  UNL     1      -1.142  52.895   7.265  1.00  0.00     0.198 C 
HETATM   21  O2  UNL     1      -2.215  53.522   6.969  1.00  0.00    -0.645 OA
HETATM   22  O3  UNL     1      -1.003  51.631   6.763  1.00  0.00    -0.645 OA
ENDBRANCH  19  20
ENDBRANCH  18  19
ENDBRANCH   5  18
TORSDOF 5
ENDMDL
MODEL 4
REMARK VINA RESULT: -6.380775870      3.278      4.412
REMARK  5 active torsions:
REMARK  status: ('A' for Active; 'I' for Inactive)
REMARK    1  A    between atoms: C2_3  and  O1_4 
REMARK    2  A    between atoms: C2_3  and  C3_6 
REMARK    3  A    between atoms: C5_10  and  C6_11 
REMARK    4  A    between atoms: C6_11  and  C7_12 
REMARK    5  A    between atoms: C7_12  and  C8_13 
ROOT
HETATM    1  C3  UNL     1      -8.630  56.003  10.994  1.00  0.00     0.115 C 
HETATM    2  C4  UNL     1      -7.406  55.221  11.348  1.00  0.00     0.095 A 
HETATM    3  N2  UNL     1      -6.362  55.631  12.090  1.00  0.00    -0.344 N 
ATOM      4  H2  UNL     1      -6.279  56.556  12.512  1.00  0.00     0.167 HD
HETATM    5  C5  UNL     1      -5.442  54.657  12.199  1.00  0.00     0.049 A 
HETATM    6  C9  UNL     1      -5.984  53.596  11.467  1.00  0.00     0.122 A 
HETATM    7  N3  UNL     1      -7.176  53.974  10.966  1.00  0.00    -0.339 N 
HETATM    8  C10 UNL     1      -8.142  53.262  10.143  1.00  0.00     0.091 C 
HETATM    9  C11 UNL     1      -8.181  53.851   8.739  1.00  0.00     0.026 C 
HETATM   10  C12 UNL     1      -9.094  55.043   8.797  1.00  0.00     0.008 C 
HETATM   11  C13 UNL     1      -9.584  55.110  10.239  1.00  0.00     0.005 C 
HETATM   12  C14 UNL     1      -9.517  53.672  10.679  1.00  0.00     0.031 C 
ENDROOT
BRANCH   1  13
HETATM   13  C2  UNL     1      -9.245  56.593  12.198  1.00  0.00     0.068 C 
HETATM   14  C1  UNL     1     -10.031  57.646  12.138  1.00  0.00     0.132 C 
HETATM   15  N1  UNL     1     -10.329  58.271  10.885  1.00  0.00    -0.113 NA
BRANCH  13  16
HETATM   16  O1  UNL     1      -8.987  56.023  13.429  1.00  0.00    -0.363 OA
ATOM     17  H1  UNL     1      -8.463  56.505  14.058  1.00  0.00     0.217 HD
ENDBRANCH  13  16
ENDBRANCH   1  13
BRANCH   5  18
HETATM   18  C6  UNL     1      -4.175  54.689  12.909  1.00  0.00     0.038 C 
BRANCH  18  19
HETATM   19  C7  UNL     1      -3.412  53.623  12.986  1.00  0.00     0.086 C 
BRANCH  19  20
HETATM   20  C8  UNL     1      -2.038  53.642  12.499  1.00  0.00     0.198 C 
HETATM   21  O2  UNL     1      -1.071  53.466  13.315  1.00  0.00    -0.645 OA
HETATM   22  O3  UNL     1      -1.711  53.842  11.186  1.00  0.00    -0.645 OA
ENDBRANCH  19  20
ENDBRANCH  18  19
ENDBRANCH   5  18
TORSDOF 5
ENDMDL
MODEL 5
REMARK VINA RESULT: -6.348503378      2.947      4.047
REMARK  5 active torsions:
REMARK  status: ('A' for Active; 'I' for Inactive)
REMARK    1  A    between atoms: C2_3  and  O1_4 
REMARK    2  A    between atoms: C2_3  and  C3_6 
REMARK    3  A    between atoms: C5_10  and  C6_11 
REMARK    4  A    between atoms: C6_11  and  C7_12 
REMARK    5  A    between atoms: C7_12  and  C8_13 
ROOT
HETATM    1  C3  UNL     1      -6.660  54.158  12.300  1.00  0.00     0.115 C 
HETATM    2  C4  UNL     1      -6.011  53.212  11.342  1.00  0.00     0.095 A 
HETATM    3  N2  UNL     1      -6.519  52.743  10.188  1.00  0.00    -0.344 N 
ATOM      4  H2  UNL     1      -7.438  52.986   9.819  1.00  0.00     0.167 HD
HETATM    5  C5  UNL     1      -5.650  51.912   9.588  1.00  0.00     0.049 A 
HETATM    6  C9  UNL     1      -4.551  51.889  10.452  1.00  0.00     0.122 A 
HETATM    7  N3  UNL     1      -4.806  52.689  11.505  1.00  0.00    -0.339 N 
HETATM    8  C10 UNL     1      -4.009  53.019  12.677  1.00  0.00     0.091 C 
HETATM    9  C11 UNL     1      -4.619  52.397  13.927  1.00  0.00     0.026 C 
HETATM   10  C12 UNL     1      -5.702  53.331  14.388  1.00  0.00     0.008 C 
HETATM   11  C13 UNL     1      -5.684  54.492  13.401  1.00  0.00     0.005 C 
HETATM   12  C14 UNL     1      -4.253  54.509  12.934  1.00  0.00     0.031 C 
ENDROOT
BRANCH   1  13
HETATM   13  C2  UNL     1      -7.154  55.360  11.602  1.00  0.00     0.068 C 
HETATM   14  C1  UNL     1      -8.102  56.121  12.104  1.00  0.00     0.132 C 
HETATM   15  N1  UNL     1      -8.702  55.813  13.366  1.00  0.00    -0.113 NA
BRANCH  13  16
HETATM   16  O1  UNL     1      -6.605  55.697  10.381  1.00  0.00    -0.363 OA
ATOM     17  H1  UNL     1      -6.596  55.049   9.686  1.00  0.00     0.217 HD
ENDBRANCH  13  16
ENDBRANCH   1  13
BRANCH   5  18
HETATM   18  C6  UNL     1      -5.806  51.197   8.333  1.00  0.00     0.038 C 
BRANCH  18  19
HETATM   19  C7  UNL     1      -5.732  51.823   7.181  1.00  0.00     0.086 C 
BRANCH  19  20
HETATM   20  C8  UNL     1      -4.870  52.987   7.008  1.00  0.00     0.198 C 
HETATM   21  O2  UNL     1      -5.389  54.143   6.843  1.00  0.00    -0.645 OA
HETATM   22  O3  UNL     1      -3.504  52.914   7.013  1.00  0.00    -0.645 OA
ENDBRANCH  19  20
ENDBRANCH  18  19
ENDBRANCH   5  18
TORSDOF 5
ENDMDL
