MODEL 1
REMARK VINA RESULT: -6.464481979      0.000      0.000
REMARK  4 active torsions:
REMARK  status: ('A' for Active; 'I' for Inactive)
REMARK    1  A    between atoms: C2_2  and  N1_5 
REMARK    2  A    between atoms: N1_5  and  C4_7 
REMARK    3  A    between atoms: C5_8  and  N2_9 
REMARK    4  A    between atoms: N2_9  and  C6_11 
ROOT
HETATM    1  C4  UNL     1      -6.154  52.912  13.241  1.00  0.00     0.115 A 
HETATM    2  C5  UNL     1      -5.120  53.736  13.713  1.00  0.00     0.114 A 
HETATM    3  C11 UNL     1      -6.099  54.654  14.044  1.00  0.00     0.252 A 
HETATM    4  O2  UNL     1      -6.100  55.817  14.576  1.00  0.00    -0.281 OA
HETATM    5  C12 UNL     1      -7.111  53.841  13.579  1.00  0.00     0.252 A 
HETATM    6  O3  UNL     1      -8.355  53.998  13.538  1.00  0.00    -0.281 OA
ENDROOT
BRANCH   2   7
HETATM    7  N2  UNL     1      -3.702  53.633  13.780  1.00  0.00    -0.380 N 
ATOM      8  H2  UNL     1      -3.218  53.908  14.634  1.00  0.00     0.160 HD
BRANCH   7   9
HETATM    9  C6  UNL     1      -2.949  53.150  12.670  1.00  0.00     0.085 C 
HETATM   10  C7  UNL     1      -2.642  51.665  12.774  1.00  0.00     0.051 C 
HETATM   11  C8  UNL     1      -2.048  51.292  11.407  1.00  0.00     0.169 C 
HETATM   12  O1  UNL     1      -0.842  51.978  11.301  1.00  0.00    -0.391 OA
HETATM   13  C9  UNL     1      -1.003  53.363  11.251  1.00  0.00     0.169 C 
HETATM   14  C10 UNL     1      -1.563  53.809  12.590  1.00  0.00     0.051 C 
ENDBRANCH   7   9
ENDBRANCH   2   7
BRANCH   1  15
HETATM   15  N1  UNL     1      -6.169  51.622  12.649  1.00  0.00    -0.363 N 
ATOM     16  H1  UNL     1      -5.943  50.814  13.228  1.00  0.00     0.161 HD
BRANCH  15  17
HETATM   17  C2  UNL     1      -6.496  51.413  11.248  1.00  0.00     0.100 C 
HETATM   18  C1  UNL     1      -7.979  51.274  11.036  1.00  0.00     0.056 C 
HETATM   19  C3  UNL     1      -5.835  50.169  10.708  1.00  0.00     0.056 C 
HETATM   20 CL1  UNL     1      -5.929  52.794  10.286  1.00  0.00    -0.097 Cl
ENDBRANCH  15  17
ENDBRANCH   1  15
TORSDOF 4
ENDMDL
MODEL 2
REMARK VINA RESULT: -6.400995604      1.735      1.974
REMARK  4 active torsions:
REMARK  status: ('A' for Active; 'I' for Inactive)
REMARK    1  A    between atoms: C2_2  and  N1_5 
REMARK    2  A    between atoms: N1_5  and  C4_7 
REMARK    3  A    between atoms: C5_8  and  N2_9 
REMARK    4  A    between atoms: N2_9  and  C6_11 
ROOT
HETATM    1  C4  UNL     1      -6.705  54.724  11.990  1.00  0.00     0.115 A 
HETATM    2  C5  UNL     1      -5.499  54.971  12.665  1.00  0.00     0.114 A 
HETATM    3  C11 UNL     1      -6.267  55.445  13.713  1.00  0.00     0.252 A 
HETATM    4  O2  UNL     1      -6.011  55.930  14.868  1.00  0.00    -0.281 OA
HETATM    5  C12 UNL     1      -7.448  55.199  13.045  1.00  0.00     0.252 A 
HETATM    6  O3  UNL     1      -8.645  55.379  13.374  1.00  0.00    -0.281 OA
ENDROOT
BRANCH   2   7
HETATM    7  N2  UNL     1      -4.120  54.808  12.355  1.00  0.00    -0.380 N 
ATOM      8  H2  UNL     1      -3.532  55.632  12.232  1.00  0.00     0.160 HD
BRANCH   7   9
HETATM    9  C6  UNL     1      -3.549  53.510  12.213  1.00  0.00     0.085 C 
HETATM   10  C7  UNL     1      -3.984  52.556  13.313  1.00  0.00     0.051 C 
HETATM   11  C8  UNL     1      -3.470  51.180  12.865  1.00  0.00     0.169 C 
HETATM   12  O1  UNL     1      -2.080  51.255  12.880  1.00  0.00    -0.391 OA
HETATM   13  C9  UNL     1      -1.569  52.148  11.939  1.00  0.00     0.169 C 
HETATM   14  C10 UNL     1      -2.018  53.542  12.338  1.00  0.00     0.051 C 
ENDBRANCH   7   9
ENDBRANCH   2   7
BRANCH   1  15
HETATM   15  N1  UNL     1      -7.004  54.188  10.710  1.00  0.00    -0.363 N 
ATOM     16  H1  UNL     1      -7.169  54.829   9.935  1.00  0.00     0.161 HD
BRANCH  15  17
HETATM   17  C2  UNL     1      -7.084  52.757  10.465  1.00  0.00     0.100 C 
HETATM   18  C1  UNL     1      -5.850  52.240   9.777  1.00  0.00     0.056 C 
HETATM   19  C3  UNL     1      -8.271  52.411   9.602  1.00  0.00     0.056 C 
HETATM   20 CL1  UNL     1      -7.259  51.892  12.006  1.00  0.00    -0.097 Cl
ENDBRANCH  15  17
ENDBRANCH   1  15
TORSDOF 4
ENDMDL
MODEL 3
REMARK VINA RESULT: -6.345309903      2.384      2.892
REMARK  4 active torsions:
REMARK  status: ('A' for Active; 'I' for Inactive)
REMARK    1  A    between atoms: C2_2  and  N1_5 
REMARK    2  A    between atoms: N1_5  and  C4_7 
REMARK    3  A    between atoms: C5_8  and  N2_9 
REMARK    4  A    between atoms: N2_9  and  C6_11 
ROOT
HETATM    1  C4  UNL     1      -6.014  54.873  12.501  1.00  0.00     0.115 A 
HETATM    2  C5  UNL     1      -5.273  53.689  12.646  1.00  0.00     0.114 A 
HETATM    3  C11 UNL     1      -5.187  53.992  13.991  1.00  0.00     0.252 A 
HETATM    4  O2  UNL     1      -4.647  53.433  15.007  1.00  0.00    -0.281 OA
HETATM    5  C12 UNL     1      -5.916  55.154  13.844  1.00  0.00     0.252 A 
HETATM    6  O3  UNL     1      -6.274  56.025  14.673  1.00  0.00    -0.281 OA
ENDROOT
BRANCH   2   7
HETATM    7  N2  UNL     1      -4.821  52.671  11.760  1.00  0.00    -0.380 N 
ATOM      8  H2  UNL     1      -5.499  52.158  11.195  1.00  0.00     0.160 HD
BRANCH   7   9
HETATM    9  C6  UNL     1      -3.435  52.357  11.650  1.00  0.00     0.085 C 
HETATM   10  C7  UNL     1      -2.983  51.334  12.679  1.00  0.00     0.051 C 
HETATM   11  C8  UNL     1      -1.555  50.958  12.257  1.00  0.00     0.169 C 
HETATM   12  O1  UNL     1      -0.782  52.104  12.414  1.00  0.00    -0.391 OA
HETATM   13  C9  UNL     1      -1.147  53.136  11.549  1.00  0.00     0.169 C 
HETATM   14  C10 UNL     1      -2.548  53.580  11.930  1.00  0.00     0.051 C 
ENDBRANCH   7   9
ENDBRANCH   2   7
BRANCH   1  15
HETATM   15  N1  UNL     1      -6.618  55.506  11.383  1.00  0.00    -0.363 N 
ATOM     16  H1  UNL     1      -6.027  56.027  10.735  1.00  0.00     0.161 HD
BRANCH  15  17
HETATM   17  C2  UNL     1      -8.048  55.438  11.128  1.00  0.00     0.100 C 
HETATM   18  C1  UNL     1      -8.573  54.036  11.274  1.00  0.00     0.056 C 
HETATM   19  C3  UNL     1      -8.384  55.913   9.737  1.00  0.00     0.056 C 
HETATM   20 CL1  UNL     1      -8.914  56.473  12.283  1.00  0.00    -0.097 Cl
ENDBRANCH  15  17
ENDBRANCH   1  15
TORSDOF 4
ENDMDL
MODEL 4
REMARK VINA RESULT: -6.288973385      1.658      4.964
REMARK  4 active torsions:
REMARK  status: ('A' for Active; 'I' for Inactive)
REMARK    1  A    between atoms: C2_2  and  N1_5 
REMARK    2  A    between atoms: N1_5  and  C4_7 
REMARK    3  A    between atoms: C5_8  and  N2_9 
REMARK    4  A    between atoms: N2_9  and  C6_11 
ROOT
HETATM    1  C4  UNL     1      -3.012  52.901  11.608  1.00  0.00     0.115 A 
HETATM    2  C5  UNL     1      -3.051  53.474  12.890  1.00  0.00     0.114 A 
HETATM    3  C11 UNL     1      -1.676  53.342  12.912  1.00  0.00     0.252 A 
HETATM    4  O2  UNL     1      -0.758  53.622  13.759  1.00  0.00    -0.281 OA
HETATM    5  C12 UNL     1      -1.642  52.781  11.653  1.00  0.00     0.252 A 
HETATM    6  O3  UNL     1      -0.690  52.370  10.948  1.00  0.00    -0.281 OA
ENDROOT
BRANCH   2   7
HETATM    7  N2  UNL     1      -4.082  53.945  13.750  1.00  0.00    -0.380 N 
ATOM      8  H2  UNL     1      -3.863  54.174  14.719  1.00  0.00     0.160 HD
BRANCH   7   9
HETATM    9  C6  UNL     1      -5.417  54.103  13.276  1.00  0.00     0.085 C 
HETATM   10  C7  UNL     1      -6.104  55.328  13.859  1.00  0.00     0.051 C 
HETATM   11  C8  UNL     1      -7.413  55.458  13.066  1.00  0.00     0.169 C 
HETATM   12  O1  UNL     1      -8.178  54.339  13.383  1.00  0.00    -0.391 OA
HETATM   13  C9  UNL     1      -7.611  53.144  12.939  1.00  0.00     0.169 C 
HETATM   14  C10 UNL     1      -6.318  52.936  13.707  1.00  0.00     0.051 C 
ENDBRANCH   7   9
ENDBRANCH   2   7
BRANCH   1  15
HETATM   15  N1  UNL     1      -4.019  52.584  10.659  1.00  0.00    -0.363 N 
ATOM     16  H1  UNL     1      -4.420  53.335  10.099  1.00  0.00     0.161 HD
BRANCH  15  17
HETATM   17  C2  UNL     1      -4.498  51.226  10.458  1.00  0.00     0.100 C 
HETATM   18  C1  UNL     1      -3.790  50.548   9.317  1.00  0.00     0.056 C 
HETATM   19  C3  UNL     1      -5.977  51.202  10.162  1.00  0.00     0.056 C 
HETATM   20 CL1  UNL     1      -4.219  50.266  11.927  1.00  0.00    -0.097 Cl
ENDBRANCH  15  17
ENDBRANCH   1  15
TORSDOF 4
ENDMDL
MODEL 5
REMARK VINA RESULT: -6.274349546      2.583      5.209
REMARK  4 active torsions:
REMARK  status: ('A' for Active; 'I' for Inactive)
REMARK    1  A    between atoms: C2_2  and  N1_5 
REMARK    2  A    between atoms: N1_5  and  C4_7 
REMARK    3  A    between atoms: C5_8  and  N2_9 
REMARK    4  A    between atoms: N2_9  and  C6_11 
ROOT
HETATM    1  C4  UNL     1      -4.819  53.817  12.462  1.00  0.00     0.115 A 
HETATM    2  C5  UNL     1      -5.780  54.787  12.136  1.00  0.00     0.114 A 
HETATM    3  C11 UNL     1      -5.947  54.976  13.494  1.00  0.00     0.252 A 
HETATM    4  O2  UNL     1      -6.685  55.734  14.213  1.00  0.00    -0.281 OA
HETATM    5  C12 UNL     1      -5.002  54.024  13.810  1.00  0.00     0.252 A 
HETATM    6  O3  UNL     1      -4.574  53.606  14.913  1.00  0.00    -0.281 OA
ENDROOT
BRANCH   2   7
HETATM    7  N2  UNL     1      -6.322  55.298  10.922  1.00  0.00    -0.380 N 
ATOM      8  H2  UNL     1      -5.720  55.816  10.282  1.00  0.00     0.160 HD
BRANCH   7   9
HETATM    9  C6  UNL     1      -7.692  55.096  10.589  1.00  0.00     0.085 C 
HETATM   10  C7  UNL     1      -8.610  56.119  11.240  1.00  0.00     0.051 C 
HETATM   11  C8  UNL     1      -9.981  55.888  10.586  1.00  0.00     0.169 C 
HETATM   12  O1  UNL     1     -10.396  54.619  10.979  1.00  0.00    -0.391 OA
HETATM   13  C9  UNL     1      -9.588  53.598  10.478  1.00  0.00     0.169 C 
HETATM   14  C10 UNL     1      -8.215  53.748  11.108  1.00  0.00     0.051 C 
ENDBRANCH   7   9
ENDBRANCH   2   7
BRANCH   1  15
HETATM   15  N1  UNL     1      -3.995  52.970  11.677  1.00  0.00    -0.363 N 
ATOM     16  H1  UNL     1      -3.278  53.391  11.086  1.00  0.00     0.161 HD
BRANCH  15  17
HETATM   17  C2  UNL     1      -4.135  51.523  11.686  1.00  0.00     0.100 C 
HETATM   18  C1  UNL     1      -3.312  50.890  12.775  1.00  0.00     0.056 C 
HETATM   19  C3  UNL     1      -3.703  50.919  10.373  1.00  0.00     0.056 C 
HETATM   20 CL1  UNL     1      -5.835  51.085  11.955  1.00  0.00    -0.097 Cl
ENDBRANCH  15  17
ENDBRANCH   1  15
TORSDOF 4
ENDMDL
