MODEL 1
REMARK VINA RESULT: -6.739644551      0.000      0.000
REMARK  6 active torsions:
REMARK  status: ('A' for Active; 'I' for Inactive)
REMARK    1  A    between atoms: C6_6  and  N1_7 
REMARK    2  A    between atoms: N1_7  and  C7_9 
REMARK    3  A    between atoms: N3_13  and  C9_14 
REMARK    4  A    between atoms: C9_14  and  C10_15 
REMARK    5  A    between atoms: C10_15  and  C13_18 
REMARK    6  A    between atoms: C13_18  and  O1_20 
ROOT
HETATM    1  C7  UNL     1      -1.950  53.274  11.803  1.00  0.00     0.694 A 
HETATM    2  N2  UNL     1      -1.942  53.803  13.035  1.00  0.00    -0.185 N 
ATOM      3  H2  UNL     1      -1.118  53.886  13.629  1.00  0.00     0.185 HD
HETATM    4  C8  UNL     1      -3.176  54.206  13.372  1.00  0.00     0.218 A 
HETATM    5  N3  UNL     1      -3.977  53.926  12.333  1.00  0.00    -0.272 N 
HETATM    6  N4  UNL     1      -3.225  53.368  11.400  1.00  0.00    -0.129 N 
ATOM      7  H4  UNL     1      -3.569  53.050  10.494  1.00  0.00     0.206 HD
ENDROOT
BRANCH   5   8
HETATM    8  C9  UNL     1      -5.399  54.164  12.194  1.00  0.00     0.164 C 
BRANCH   8   9
HETATM    9  C10 UNL     1      -6.215  53.098  12.894  1.00  0.00     0.031 C 
HETATM   10  C11 UNL     1      -6.009  53.195  14.378  1.00  0.00     0.022 C 
HETATM   11  C12 UNL     1      -5.721  51.720  12.459  1.00  0.00     0.022 C 
BRANCH   9  12
HETATM   12  C13 UNL     1      -7.664  53.177  12.560  1.00  0.00     0.207 C 
HETATM   13  C14 UNL     1      -7.979  54.033  11.381  1.00  0.00     0.085 C 
HETATM   14  F1  UNL     1      -8.090  51.882  12.258  1.00  0.00    -0.211 F 
BRANCH  12  15
HETATM   15  O1  UNL     1      -8.451  53.600  13.627  1.00  0.00    -0.361 OA
ATOM     16  H1  UNL     1      -9.329  53.853  13.367  1.00  0.00     0.213 HD
ENDBRANCH  12  15
ENDBRANCH   9  12
ENDBRANCH   8   9
ENDBRANCH   5   8
BRANCH   1  17
HETATM   17  N1  UNL     1      -0.964  52.782  11.137  1.00  0.00    -0.220 N 
ATOM     18  H1  UNL     1      -0.092  52.542  11.610  1.00  0.00     0.178 HD
BRANCH  17  19
HETATM   19  C6  UNL     1      -1.103  52.572   9.709  1.00  0.00     0.103 C 
HETATM   20  C2  UNL     1      -0.202  53.530   8.969  1.00  0.00     0.005 C 
HETATM   21  C1  UNL     1      -0.696  53.611   7.546  1.00  0.00     0.012 C 
HETATM   22  C3  UNL     1       1.167  52.906   9.030  1.00  0.00     0.006 C 
HETATM   23  C4  UNL     1       1.010  51.546   9.664  1.00  0.00     0.002 C 
HETATM   24  C5  UNL     1      -0.442  51.231   9.401  1.00  0.00     0.026 C 
ENDBRANCH  17  19
ENDBRANCH   1  17
TORSDOF 6
ENDMDL
MODEL 2
REMARK VINA RESULT: -6.690742755      1.418      1.750
REMARK  6 active torsions:
REMARK  status: ('A' for Active; 'I' for Inactive)
REMARK    1  A    between atoms: C6_6  and  N1_7 
REMARK    2  A    between atoms: N1_7  and  C7_9 
REMARK    3  A    between atoms: N3_13  and  C9_14 
REMARK    4  A    between atoms: C9_14  and  C10_15 
REMARK    5  A    between atoms: C10_15  and  C13_18 
REMARK    6  A    between atoms: C13_18  and  O1_20 
ROOT
HETATM    1  C7  UNL     1      -1.334  52.989  11.564  1.00  0.00     0.694 A 
HETATM    2  N2  UNL     1      -1.302  53.770  12.653  1.00  0.00    -0.185 N 
ATOM      3  H2  UNL     1      -0.456  54.031  13.160  1.00  0.00     0.185 HD
HETATM    4  C8  UNL     1      -2.543  54.159  12.979  1.00  0.00     0.218 A 
HETATM    5  N3  UNL     1      -3.374  53.613  12.079  1.00  0.00    -0.272 N 
HETATM    6  N4  UNL     1      -2.632  52.914  11.237  1.00  0.00    -0.129 N 
ATOM      7  H4  UNL     1      -2.998  52.387  10.444  1.00  0.00     0.206 HD
ENDROOT
BRANCH   5   8
HETATM    8  C9  UNL     1      -4.815  53.726  11.987  1.00  0.00     0.164 C 
BRANCH   8   9
HETATM    9  C10 UNL     1      -5.510  52.851  13.008  1.00  0.00     0.031 C 
HETATM   10  C11 UNL     1      -4.643  51.672  13.341  1.00  0.00     0.022 C 
HETATM   11  C12 UNL     1      -6.803  52.304  12.405  1.00  0.00     0.022 C 
BRANCH   9  12
HETATM   12  C13 UNL     1      -5.878  53.596  14.244  1.00  0.00     0.207 C 
HETATM   13  C14 UNL     1      -6.174  55.041  14.027  1.00  0.00     0.085 C 
HETATM   14  F1  UNL     1      -7.036  53.007  14.754  1.00  0.00    -0.211 F 
BRANCH  12  15
HETATM   15  O1  UNL     1      -4.922  53.496  15.250  1.00  0.00    -0.361 OA
ATOM     16  H1  UNL     1      -4.445  54.305  15.396  1.00  0.00     0.213 HD
ENDBRANCH  12  15
ENDBRANCH   9  12
ENDBRANCH   8   9
ENDBRANCH   5   8
BRANCH   1  17
HETATM   17  N1  UNL     1      -0.349  52.426  10.953  1.00  0.00    -0.220 N 
ATOM     18  H1  UNL     1       0.521  52.234  11.448  1.00  0.00     0.178 HD
BRANCH  17  19
HETATM   19  C6  UNL     1      -0.490  52.068   9.556  1.00  0.00     0.103 C 
HETATM   20  C2  UNL     1      -0.778  53.308   8.744  1.00  0.00     0.005 C 
HETATM   21  C1  UNL     1      -1.362  52.864   7.426  1.00  0.00     0.012 C 
HETATM   22  C3  UNL     1       0.563  53.965   8.546  1.00  0.00     0.006 C 
HETATM   23  C4  UNL     1       1.605  53.030   9.109  1.00  0.00     0.002 C 
HETATM   24  C5  UNL     1       0.905  51.695   9.060  1.00  0.00     0.026 C 
ENDBRANCH  17  19
ENDBRANCH   1  17
TORSDOF 6
ENDMDL
MODEL 3
REMARK VINA RESULT: -6.667872192      2.783      6.552
REMARK  6 active torsions:
REMARK  status: ('A' for Active; 'I' for Inactive)
REMARK    1  A    between atoms: C6_6  and  N1_7 
REMARK    2  A    between atoms: N1_7  and  C7_9 
REMARK    3  A    between atoms: N3_13  and  C9_14 
REMARK    4  A    between atoms: C9_14  and  C10_15 
REMARK    5  A    between atoms: C10_15  and  C13_18 
REMARK    6  A    between atoms: C13_18  and  O1_20 
ROOT
HETATM    1  C7  UNL     1      -3.255  54.095  12.281  1.00  0.00     0.694 A 
HETATM    2  N2  UNL     1      -2.278  53.949  13.188  1.00  0.00    -0.185 N 
ATOM      3  H2  UNL     1      -2.219  54.459  14.069  1.00  0.00     0.185 HD
HETATM    4  C8  UNL     1      -1.392  53.035  12.769  1.00  0.00     0.218 A 
HETATM    5  N3  UNL     1      -1.817  52.596  11.575  1.00  0.00    -0.272 N 
HETATM    6  N4  UNL     1      -2.936  53.242  11.297  1.00  0.00    -0.129 N 
ATOM      7  H4  UNL     1      -3.484  53.110  10.448  1.00  0.00     0.206 HD
ENDROOT
BRANCH   5   8
HETATM    8  C9  UNL     1      -1.214  51.606  10.704  1.00  0.00     0.164 C 
BRANCH   8   9
HETATM    9  C10 UNL     1      -0.445  52.252   9.572  1.00  0.00     0.031 C 
HETATM   10  C11 UNL     1       0.875  51.561   9.395  1.00  0.00     0.022 C 
HETATM   11  C12 UNL     1      -0.148  53.707   9.932  1.00  0.00     0.022 C 
BRANCH   9  12
HETATM   12  C13 UNL     1      -1.209  52.259   8.294  1.00  0.00     0.207 C 
HETATM   13  C14 UNL     1      -0.836  53.358   7.358  1.00  0.00     0.085 C 
HETATM   14  F1  UNL     1      -0.940  51.053   7.644  1.00  0.00    -0.211 F 
BRANCH  12  15
HETATM   15  O1  UNL     1      -2.587  52.296   8.478  1.00  0.00    -0.361 OA
ATOM     16  H1  UNL     1      -2.988  51.434   8.478  1.00  0.00     0.213 HD
ENDBRANCH  12  15
ENDBRANCH   9  12
ENDBRANCH   8   9
ENDBRANCH   5   8
BRANCH   1  17
HETATM   17  N1  UNL     1      -4.279  54.875  12.326  1.00  0.00    -0.220 N 
ATOM     18  H1  UNL     1      -4.161  55.868  12.523  1.00  0.00     0.178 HD
BRANCH  17  19
HETATM   19  C6  UNL     1      -5.601  54.327  12.095  1.00  0.00     0.103 C 
HETATM   20  C2  UNL     1      -5.804  53.114  12.969  1.00  0.00     0.005 C 
HETATM   21  C1  UNL     1      -6.951  52.323  12.391  1.00  0.00     0.012 C 
HETATM   22  C3  UNL     1      -6.159  53.666  14.326  1.00  0.00     0.006 C 
HETATM   23  C4  UNL     1      -6.300  55.160  14.176  1.00  0.00     0.002 C 
HETATM   24  C5  UNL     1      -6.593  55.314  12.705  1.00  0.00     0.026 C 
ENDBRANCH  17  19
ENDBRANCH   1  17
TORSDOF 6
ENDMDL
MODEL 4
REMARK VINA RESULT: -6.616355996      2.547      6.305
REMARK  6 active torsions:
REMARK  status: ('A' for Active; 'I' for Inactive)
REMARK    1  A    between atoms: C6_6  and  N1_7 
REMARK    2  A    between atoms: N1_7  and  C7_9 
REMARK    3  A    between atoms: N3_13  and  C9_14 
REMARK    4  A    between atoms: C9_14  and  C10_15 
REMARK    5  A    between atoms: C10_15  and  C13_18 
REMARK    6  A    between atoms: C13_18  and  O1_20 
ROOT
HETATM    1  C7  UNL     1      -3.704  53.862  12.694  1.00  0.00     0.694 A 
HETATM    2  N2  UNL     1      -2.725  53.937  13.608  1.00  0.00    -0.185 N 
ATOM      3  H2  UNL     1      -2.868  54.110  14.602  1.00  0.00     0.185 HD
HETATM    4  C8  UNL     1      -1.533  53.752  13.023  1.00  0.00     0.218 A 
HETATM    5  N3  UNL     1      -1.764  53.556  11.716  1.00  0.00    -0.272 N 
HETATM    6  N4  UNL     1      -3.071  53.625  11.536  1.00  0.00    -0.129 N 
ATOM      7  H4  UNL     1      -3.538  53.514  10.636  1.00  0.00     0.206 HD
ENDROOT
BRANCH   5   8
HETATM    8  C9  UNL     1      -0.811  53.310  10.653  1.00  0.00     0.164 C 
BRANCH   8   9
HETATM    9  C10 UNL     1      -0.774  51.848  10.263  1.00  0.00     0.031 C 
HETATM   10  C11 UNL     1      -0.897  50.992  11.490  1.00  0.00     0.022 C 
HETATM   11  C12 UNL     1       0.578  51.531   9.625  1.00  0.00     0.022 C 
BRANCH   9  12
HETATM   12  C13 UNL     1      -1.826  51.495   9.270  1.00  0.00     0.207 C 
HETATM   13  C14 UNL     1      -1.370  50.574   8.190  1.00  0.00     0.085 C 
HETATM   14  F1  UNL     1      -2.849  50.845   9.964  1.00  0.00    -0.211 F 
BRANCH  12  15
HETATM   15  O1  UNL     1      -2.413  52.606   8.674  1.00  0.00    -0.361 OA
ATOM     16  H1  UNL     1      -1.949  53.416   8.852  1.00  0.00     0.213 HD
ENDBRANCH  12  15
ENDBRANCH   9  12
ENDBRANCH   8   9
ENDBRANCH   5   8
BRANCH   1  17
HETATM   17  N1  UNL     1      -4.974  53.987  12.870  1.00  0.00    -0.220 N 
ATOM     18  H1  UNL     1      -5.335  54.472  13.691  1.00  0.00     0.178 HD
BRANCH  17  19
HETATM   19  C6  UNL     1      -5.886  53.431  11.889  1.00  0.00     0.103 C 
HETATM   20  C2  UNL     1      -6.876  52.524  12.579  1.00  0.00     0.005 C 
HETATM   21  C1  UNL     1      -7.485  51.631  11.527  1.00  0.00     0.012 C 
HETATM   22  C3  UNL     1      -7.910  53.450  13.165  1.00  0.00     0.006 C 
HETATM   23  C4  UNL     1      -7.586  54.842  12.684  1.00  0.00     0.002 C 
HETATM   24  C5  UNL     1      -6.785  54.577  11.434  1.00  0.00     0.026 C 
ENDBRANCH  17  19
ENDBRANCH   1  17
TORSDOF 6
ENDMDL
MODEL 5
REMARK VINA RESULT: -6.576928131      1.848      2.185
REMARK  6 active torsions:
REMARK  status: ('A' for Active; 'I' for Inactive)
REMARK    1  A    between atoms: C6_6  and  N1_7 
REMARK    2  A    between atoms: N1_7  and  C7_9 
REMARK    3  A    between atoms: N3_13  and  C9_14 
REMARK    4  A    between atoms: C9_14  and  C10_15 
REMARK    5  A    between atoms: C10_15  and  C13_18 
REMARK    6  A    between atoms: C13_18  and  O1_20 
ROOT
HETATM    1  C7  UNL     1      -1.999  52.987  11.384  1.00  0.00     0.694 A 
HETATM    2  N2  UNL     1      -2.053  51.774  11.954  1.00  0.00    -0.185 N 
ATOM      3  H2  UNL     1      -1.473  50.979  11.688  1.00  0.00     0.185 HD
HETATM    4  C8  UNL     1      -2.980  51.759  12.922  1.00  0.00     0.218 A 
HETATM    5  N3  UNL     1      -3.522  52.986  12.965  1.00  0.00    -0.272 N 
HETATM    6  N4  UNL     1      -2.922  53.710  12.036  1.00  0.00    -0.129 N 
ATOM      7  H4  UNL     1      -3.132  54.688  11.840  1.00  0.00     0.206 HD
ENDROOT
BRANCH   5   8
HETATM    8  C9  UNL     1      -4.565  53.488  13.837  1.00  0.00     0.164 C 
BRANCH   8   9
HETATM    9  C10 UNL     1      -5.893  53.589  13.117  1.00  0.00     0.031 C 
HETATM   10  C11 UNL     1      -7.006  53.205  14.048  1.00  0.00     0.022 C 
HETATM   11  C12 UNL     1      -5.913  52.595  11.956  1.00  0.00     0.022 C 
BRANCH   9  12
HETATM   12  C13 UNL     1      -6.131  54.944  12.546  1.00  0.00     0.207 C 
HETATM   13  C14 UNL     1      -7.555  55.383  12.576  1.00  0.00     0.085 C 
HETATM   14  F1  UNL     1      -5.402  55.852  13.315  1.00  0.00    -0.211 F 
BRANCH  12  15
HETATM   15  O1  UNL     1      -5.662  55.080  11.244  1.00  0.00    -0.361 OA
ATOM     16  H1  UNL     1      -5.265  55.927  11.076  1.00  0.00     0.213 HD
ENDBRANCH  12  15
ENDBRANCH   9  12
ENDBRANCH   8   9
ENDBRANCH   5   8
BRANCH   1  17
HETATM   17  N1  UNL     1      -1.240  53.389  10.425  1.00  0.00    -0.220 N 
ATOM     18  H1  UNL     1      -0.971  54.370  10.358  1.00  0.00     0.178 HD
BRANCH  17  19
HETATM   19  C6  UNL     1      -0.769  52.433   9.442  1.00  0.00     0.103 C 
HETATM   20  C2  UNL     1      -1.383  52.748   8.100  1.00  0.00     0.005 C 
HETATM   21  C1  UNL     1      -1.256  51.515   7.240  1.00  0.00     0.012 C 
HETATM   22  C3  UNL     1      -0.554  53.878   7.547  1.00  0.00     0.006 C 
HETATM   23  C4  UNL     1       0.597  54.093   8.497  1.00  0.00     0.002 C 
HETATM   24  C5  UNL     1       0.701  52.757   9.190  1.00  0.00     0.026 C 
ENDBRANCH  17  19
ENDBRANCH   1  17
TORSDOF 6
ENDMDL
