MODEL 1
REMARK VINA RESULT: -5.827269209      0.000      0.000
REMARK  4 active torsions:
REMARK  status: ('A' for Active; 'I' for Inactive)
REMARK    1  A    between atoms: C2_3  and  N2_4 
REMARK    2  A    between atoms: N2_4  and  C3_6 
REMARK    3  A    between atoms: N4_13  and  C7_15 
REMARK    4  A    between atoms: C7_15  and  C8_16 
ROOT
HETATM    1  N1  UNL     1      -1.037  53.259  13.263  1.00  0.00    -0.195 NA
HETATM    2  C1  UNL     1      -1.899  52.831  12.614  1.00  0.00     0.091 C 
HETATM    3  C2  UNL     1      -2.996  52.286  11.818  1.00  0.00     0.128 C 
HETATM    4  C4  UNL     1      -3.411  50.962  12.442  1.00  0.00     0.057 C 
HETATM    5  C5  UNL     1      -2.250  50.072  12.755  1.00  0.00     0.084 C 
HETATM    6  S2  UNL     1      -1.473  49.655  11.150  1.00  0.00    -0.117 SA
HETATM    7  C6  UNL     1      -1.453  51.170  10.200  1.00  0.00     0.045 C 
HETATM    8  N4  UNL     1      -0.482  51.368   9.391  1.00  0.00    -0.387 N 
ATOM      9  H4  UNL     1       0.261  50.676   9.293  1.00  0.00     0.159 HD
HETATM   10  C9  UNL     1      -2.573  52.132  10.400  1.00  0.00     0.111 C 
ENDROOT
BRANCH   3  11
HETATM   11  N2  UNL     1      -4.115  53.180  11.904  1.00  0.00    -0.347 N 
ATOM     12  H2  UNL     1      -4.731  53.212  11.092  1.00  0.00     0.163 HD
BRANCH  11  13
HETATM   13  C3  UNL     1      -4.459  54.012  12.976  1.00  0.00     0.182 C 
HETATM   14  N3  UNL     1      -4.003  55.380  12.978  1.00  0.00    -0.070 NA
HETATM   15  S1  UNL     1      -5.364  53.580  14.263  1.00  0.00    -0.044 SA
ENDBRANCH  11  13
ENDBRANCH   3  11
BRANCH   8  16
HETATM   16  C7  UNL     1      -0.457  52.571   8.632  1.00  0.00     0.135 C 
BRANCH  16  17
HETATM   17  C8  UNL     1       0.190  53.658   9.473  1.00  0.00     0.134 C 
HETATM   18 CL1  UNL     1       1.629  54.309   8.663  1.00  0.00    -0.129 Cl
ENDBRANCH  16  17
ENDBRANCH   8  16
TORSDOF 4
ENDMDL
MODEL 2
REMARK VINA RESULT: -5.566572720      1.189      1.249
REMARK  4 active torsions:
REMARK  status: ('A' for Active; 'I' for Inactive)
REMARK    1  A    between atoms: C2_3  and  N2_4 
REMARK    2  A    between atoms: N2_4  and  C3_6 
REMARK    3  A    between atoms: N4_13  and  C7_15 
REMARK    4  A    between atoms: C7_15  and  C8_16 
ROOT
HETATM    1  N1  UNL     1      -1.111  53.184  12.962  1.00  0.00    -0.195 NA
HETATM    2  C1  UNL     1      -2.146  52.817  12.585  1.00  0.00     0.091 C 
HETATM    3  C2  UNL     1      -3.454  52.352  12.135  1.00  0.00     0.128 C 
HETATM    4  C4  UNL     1      -3.811  51.112  12.941  1.00  0.00     0.057 C 
HETATM    5  C5  UNL     1      -2.693  50.122  13.018  1.00  0.00     0.084 C 
HETATM    6  S2  UNL     1      -2.396  49.545  11.305  1.00  0.00    -0.117 SA
HETATM    7  C6  UNL     1      -2.487  50.999  10.269  1.00  0.00     0.045 C 
HETATM    8  N4  UNL     1      -1.744  51.053   9.230  1.00  0.00    -0.387 N 
ATOM      9  H4  UNL     1      -1.116  50.283   9.000  1.00  0.00     0.159 HD
HETATM   10  C9  UNL     1      -3.427  52.083  10.671  1.00  0.00     0.111 C 
ENDROOT
BRANCH   3  11
HETATM   11  N2  UNL     1      -4.430  53.362  12.431  1.00  0.00    -0.347 N 
ATOM     12  H2  UNL     1      -4.556  54.089  11.728  1.00  0.00     0.163 HD
BRANCH  11  13
HETATM   13  C3  UNL     1      -5.228  53.462  13.577  1.00  0.00     0.182 C 
HETATM   14  N3  UNL     1      -4.613  53.809  14.834  1.00  0.00    -0.070 NA
HETATM   15  S1  UNL     1      -6.843  53.230  13.635  1.00  0.00    -0.044 SA
ENDBRANCH  11  13
ENDBRANCH   3  11
BRANCH   8  16
HETATM   16  C7  UNL     1      -1.809  52.207   8.400  1.00  0.00     0.135 C 
BRANCH  16  17
HETATM   17  C8  UNL     1      -0.412  52.794   8.280  1.00  0.00     0.134 C 
HETATM   18 CL1  UNL     1      -0.008  53.760   9.713  1.00  0.00    -0.129 Cl
ENDBRANCH  16  17
ENDBRANCH   8  16
TORSDOF 4
ENDMDL
MODEL 3
REMARK VINA RESULT: -5.538614971      2.750      3.632
REMARK  4 active torsions:
REMARK  status: ('A' for Active; 'I' for Inactive)
REMARK    1  A    between atoms: C2_3  and  N2_4 
REMARK    2  A    between atoms: N2_4  and  C3_6 
REMARK    3  A    between atoms: N4_13  and  C7_15 
REMARK    4  A    between atoms: C7_15  and  C8_16 
ROOT
HETATM    1  N1  UNL     1      -4.974  53.572  15.043  1.00  0.00    -0.195 NA
HETATM    2  C1  UNL     1      -5.210  53.811  13.932  1.00  0.00     0.091 C 
HETATM    3  C2  UNL     1      -5.532  54.110  12.539  1.00  0.00     0.128 C 
HETATM    4  C4  UNL     1      -6.640  53.164  12.103  1.00  0.00     0.057 C 
HETATM    5  C5  UNL     1      -6.377  51.741  12.482  1.00  0.00     0.084 C 
HETATM    6  S2  UNL     1      -4.881  51.229  11.558  1.00  0.00    -0.117 SA
HETATM    7  C6  UNL     1      -3.743  52.604  11.657  1.00  0.00     0.045 C 
HETATM    8  N4  UNL     1      -2.489  52.355  11.694  1.00  0.00    -0.387 N 
ATOM      9  H4  UNL     1      -2.150  51.393  11.667  1.00  0.00     0.159 HD
HETATM   10  C9  UNL     1      -4.315  53.980  11.693  1.00  0.00     0.111 C 
ENDROOT
BRANCH   3  11
HETATM   11  N2  UNL     1      -6.044  55.449  12.462  1.00  0.00    -0.347 N 
ATOM     12  H2  UNL     1      -5.354  56.199  12.490  1.00  0.00     0.163 HD
BRANCH  11  13
HETATM   13  C3  UNL     1      -7.383  55.841  12.351  1.00  0.00     0.182 C 
HETATM   14  N3  UNL     1      -8.245  55.732  13.502  1.00  0.00    -0.070 NA
HETATM   15  S1  UNL     1      -8.091  56.442  11.009  1.00  0.00    -0.044 SA
ENDBRANCH  11  13
ENDBRANCH   3  11
BRANCH   8  16
HETATM   16  C7  UNL     1      -1.576  53.443  11.774  1.00  0.00     0.135 C 
BRANCH  16  17
HETATM   17  C8  UNL     1      -0.734  53.459  10.509  1.00  0.00     0.134 C 
HETATM   18 CL1  UNL     1      -0.017  51.864  10.208  1.00  0.00    -0.129 Cl
ENDBRANCH  16  17
ENDBRANCH   8  16
TORSDOF 4
ENDMDL
MODEL 4
REMARK VINA RESULT: -5.524082072      2.706      3.748
REMARK  4 active torsions:
REMARK  status: ('A' for Active; 'I' for Inactive)
REMARK    1  A    between atoms: C2_3  and  N2_4 
REMARK    2  A    between atoms: N2_4  and  C3_6 
REMARK    3  A    between atoms: N4_13  and  C7_15 
REMARK    4  A    between atoms: C7_15  and  C8_16 
ROOT
HETATM    1  N1  UNL     1      -3.831  52.126  10.004  1.00  0.00    -0.195 NA
HETATM    2  C1  UNL     1      -2.956  52.235  10.758  1.00  0.00     0.091 C 
HETATM    3  C2  UNL     1      -1.857  52.397  11.706  1.00  0.00     0.128 C 
HETATM    4  C4  UNL     1      -0.911  53.451  11.148  1.00  0.00     0.057 C 
HETATM    5  C5  UNL     1      -0.580  53.234   9.706  1.00  0.00     0.084 C 
HETATM    6  S2  UNL     1       0.324  51.644   9.617  1.00  0.00    -0.117 SA
HETATM    7  C6  UNL     1      -0.538  50.522  10.711  1.00  0.00     0.045 C 
HETATM    8  N4  UNL     1      -0.573  49.281  10.405  1.00  0.00    -0.387 N 
ATOM      9  H4  UNL     1      -0.118  48.942   9.557  1.00  0.00     0.159 HD
HETATM   10  C9  UNL     1      -1.177  51.092  11.930  1.00  0.00     0.111 C 
ENDROOT
BRANCH   3  11
HETATM   11  N2  UNL     1      -2.385  52.895  12.944  1.00  0.00    -0.347 N 
ATOM     12  H2  UNL     1      -1.865  52.654  13.787  1.00  0.00     0.163 HD
BRANCH  11  13
HETATM   13  C3  UNL     1      -3.534  53.675  13.125  1.00  0.00     0.182 C 
HETATM   14  N3  UNL     1      -3.531  55.046  12.679  1.00  0.00    -0.070 NA
HETATM   15  S1  UNL     1      -4.930  53.168  13.802  1.00  0.00    -0.044 SA
ENDBRANCH  11  13
ENDBRANCH   3  11
BRANCH   8  16
HETATM   16  C7  UNL     1      -1.257  48.381  11.269  1.00  0.00     0.135 C 
BRANCH  16  17
HETATM   17  C8  UNL     1      -2.444  47.800  10.519  1.00  0.00     0.134 C 
HETATM   18 CL1  UNL     1      -3.925  48.709  10.881  1.00  0.00    -0.129 Cl
ENDBRANCH  16  17
ENDBRANCH   8  16
TORSDOF 4
ENDMDL
MODEL 5
REMARK VINA RESULT: -5.493679313      1.530      1.689
REMARK  4 active torsions:
REMARK  status: ('A' for Active; 'I' for Inactive)
REMARK    1  A    between atoms: C2_3  and  N2_4 
REMARK    2  A    between atoms: N2_4  and  C3_6 
REMARK    3  A    between atoms: N4_13  and  C7_15 
REMARK    4  A    between atoms: C7_15  and  C8_16 
ROOT
HETATM    1  N1  UNL     1      -3.468  53.803  13.608  1.00  0.00    -0.195 NA
HETATM    2  C1  UNL     1      -3.682  53.139  12.681  1.00  0.00     0.091 C 
HETATM    3  C2  UNL     1      -3.971  52.292  11.526  1.00  0.00     0.128 C 
HETATM    4  C4  UNL     1      -4.210  50.877  12.034  1.00  0.00     0.057 C 
HETATM    5  C5  UNL     1      -3.170  50.421  13.007  1.00  0.00     0.084 C 
HETATM    6  S2  UNL     1      -1.588  50.369  12.085  1.00  0.00    -0.117 SA
HETATM    7  C6  UNL     1      -1.554  51.843  11.075  1.00  0.00     0.045 C 
HETATM    8  N4  UNL     1      -0.424  52.397  10.845  1.00  0.00    -0.387 N 
ATOM      9  H4  UNL     1       0.434  52.004  11.230  1.00  0.00     0.159 HD
HETATM   10  C9  UNL     1      -2.850  52.358  10.549  1.00  0.00     0.111 C 
ENDROOT
BRANCH   3  11
HETATM   11  N2  UNL     1      -5.185  52.748  10.913  1.00  0.00    -0.347 N 
ATOM     12  H2  UNL     1      -5.336  52.466   9.944  1.00  0.00     0.163 HD
BRANCH  11  13
HETATM   13  C3  UNL     1      -6.187  53.535  11.493  1.00  0.00     0.182 C 
HETATM   14  N3  UNL     1      -6.298  54.923  11.117  1.00  0.00    -0.070 NA
HETATM   15  S1  UNL     1      -7.291  53.020  12.580  1.00  0.00    -0.044 SA
ENDBRANCH  11  13
ENDBRANCH   3  11
BRANCH   8  16
HETATM   16  C7  UNL     1      -0.387  53.572  10.043  1.00  0.00     0.135 C 
BRANCH  16  17
HETATM   17  C8  UNL     1       0.456  53.288   8.811  1.00  0.00     0.134 C 
HETATM   18 CL1  UNL     1       1.827  54.411   8.713  1.00  0.00    -0.129 Cl
ENDBRANCH  16  17
ENDBRANCH   8  16
TORSDOF 4
ENDMDL
