MODEL 1
REMARK VINA RESULT: -6.709074317      0.000      0.000
REMARK  6 active torsions:
REMARK  status: ('A' for Active; 'I' for Inactive)
REMARK    1  A    between atoms: C5_5  and  C6_6 
REMARK    2  A    between atoms: C6_6  and  C7_7 
REMARK    3  A    between atoms: N1_8  and  N2_10 
REMARK    4  A    between atoms: N2_10  and  C8_12 
REMARK    5  A    between atoms: C8_12  and  N3_14 
REMARK    6  A    between atoms: N3_14  and  C9_16 
ROOT
HETATM    1  C1  UNL     1     -12.809  59.531  12.341  1.00  0.00     0.017 C 
HETATM    2  C2  UNL     1     -11.866  58.954  11.849  1.00  0.00    -0.083 C 
HETATM    3  C3  UNL     1     -10.732  58.291  11.268  1.00  0.00    -0.013 C 
HETATM    4  C4  UNL     1     -10.197  58.792   9.974  1.00  0.00     0.057 C 
HETATM    5  C5  UNL     1     -10.189  57.271  11.867  1.00  0.00    -0.006 C 
ENDROOT
BRANCH   5   6
HETATM    6  C6  UNL     1      -9.020  56.556  11.305  1.00  0.00     0.074 C 
BRANCH   6   7
HETATM    7  C7  UNL     1      -8.090  56.143  12.413  1.00  0.00     0.084 C 
HETATM    8  N1  UNL     1      -6.830  56.146  12.143  1.00  0.00    -0.313 N 
ATOM      9  H1  UNL     1      -6.485  56.415  11.221  1.00  0.00     0.185 HD
BRANCH   8  10
HETATM   10  N2  UNL     1      -5.959  55.765  13.163  1.00  0.00    -0.277 N 
ATOM     11  H2  UNL     1      -5.826  56.377  13.967  1.00  0.00     0.189 HD
BRANCH  10  12
HETATM   12  C8  UNL     1      -5.254  54.533  13.093  1.00  0.00     0.192 C 
HETATM   13  S1  UNL     1      -5.676  53.310  14.091  1.00  0.00    -0.039 SA
BRANCH  12  14
HETATM   14  N3  UNL     1      -4.199  54.322  12.195  1.00  0.00    -0.314 N 
ATOM     15  H3  UNL     1      -4.373  54.549  11.215  1.00  0.00     0.170 HD
BRANCH  14  16
HETATM   16  C9  UNL     1      -3.042  53.871  12.488  1.00  0.00     0.170 A 
HETATM   17  N4  UNL     1      -2.148  54.239  13.412  1.00  0.00    -0.222 N 
HETATM   18  O1  UNL     1      -1.091  53.482  13.345  1.00  0.00    -0.154 OA
ATOM     19  H4  UNL     1      -2.276  55.003  14.075  1.00  0.00     0.198 HD
HETATM   20  N5  UNL     1      -1.258  52.613  12.390  1.00  0.00    -0.226 N 
HETATM   21  C10 UNL     1      -2.460  52.804  11.816  1.00  0.00     0.171 A 
ATOM     22  H5  UNL     1      -0.583  51.898  12.119  1.00  0.00     0.198 HD
HETATM   23 CL1  UNL     1      -3.173  51.900  10.481  1.00  0.00    -0.058 Cl
ENDBRANCH  14  16
ENDBRANCH  12  14
ENDBRANCH  10  12
ENDBRANCH   8  10
ENDBRANCH   6   7
ENDBRANCH   5   6
TORSDOF 6
ENDMDL
MODEL 2
REMARK VINA RESULT: -6.671507629      5.346      8.342
REMARK  6 active torsions:
REMARK  status: ('A' for Active; 'I' for Inactive)
REMARK    1  A    between atoms: C5_5  and  C6_6 
REMARK    2  A    between atoms: C6_6  and  C7_7 
REMARK    3  A    between atoms: N1_8  and  N2_10 
REMARK    4  A    between atoms: N2_10  and  C8_12 
REMARK    5  A    between atoms: C8_12  and  N3_14 
REMARK    6  A    between atoms: N3_14  and  C9_16 
ROOT
HETATM    1  C1  UNL     1       1.687  54.430   8.809  1.00  0.00     0.017 C 
HETATM    2  C2  UNL     1       0.925  53.510   9.000  1.00  0.00    -0.083 C 
HETATM    3  C3  UNL     1       0.022  52.411   9.201  1.00  0.00    -0.013 C 
HETATM    4  C4  UNL     1      -1.286  52.423   8.494  1.00  0.00     0.057 C 
HETATM    5  C5  UNL     1       0.348  51.428   9.989  1.00  0.00    -0.006 C 
ENDROOT
BRANCH   5   6
HETATM    6  C6  UNL     1      -0.551  50.275  10.227  1.00  0.00     0.074 C 
BRANCH   6   7
HETATM    7  C7  UNL     1      -1.214  50.412  11.571  1.00  0.00     0.084 C 
HETATM    8  N1  UNL     1      -2.500  50.337  11.592  1.00  0.00    -0.313 N 
ATOM      9  H1  UNL     1      -3.038  50.192  10.737  1.00  0.00     0.185 HD
BRANCH   8  10
HETATM   10  N2  UNL     1      -3.125  50.462  12.831  1.00  0.00    -0.277 N 
ATOM     11  H2  UNL     1      -2.792  49.912  13.623  1.00  0.00     0.189 HD
BRANCH  10  12
HETATM   12  C8  UNL     1      -4.224  51.348  13.005  1.00  0.00     0.192 C 
HETATM   13  S1  UNL     1      -5.524  51.212  12.026  1.00  0.00    -0.039 SA
BRANCH  12  14
HETATM   14  N3  UNL     1      -4.236  52.343  13.992  1.00  0.00    -0.314 N 
ATOM     15  H3  UNL     1      -4.045  52.047  14.949  1.00  0.00     0.170 HD
BRANCH  14  16
HETATM   16  C9  UNL     1      -4.465  53.584  13.803  1.00  0.00     0.170 A 
HETATM   17  N4  UNL     1      -5.417  54.399  14.270  1.00  0.00    -0.222 N 
HETATM   18  O1  UNL     1      -5.251  55.602  13.803  1.00  0.00    -0.154 OA
ATOM     19  H4  UNL     1      -6.167  54.117  14.901  1.00  0.00     0.198 HD
HETATM   20  N5  UNL     1      -4.204  55.611  13.030  1.00  0.00    -0.226 N 
HETATM   21  C10 UNL     1      -3.667  54.377  12.989  1.00  0.00     0.171 A 
ATOM     22  H5  UNL     1      -3.846  56.426  12.532  1.00  0.00     0.198 HD
HETATM   23 CL1  UNL     1      -2.243  53.851  12.092  1.00  0.00    -0.058 Cl
ENDBRANCH  14  16
ENDBRANCH  12  14
ENDBRANCH  10  12
ENDBRANCH   8  10
ENDBRANCH   6   7
ENDBRANCH   5   6
TORSDOF 6
ENDMDL
MODEL 3
REMARK VINA RESULT: -6.626958913      4.779      8.411
REMARK  6 active torsions:
REMARK  status: ('A' for Active; 'I' for Inactive)
REMARK    1  A    between atoms: C5_5  and  C6_6 
REMARK    2  A    between atoms: C6_6  and  C7_7 
REMARK    3  A    between atoms: N1_8  and  N2_10 
REMARK    4  A    between atoms: N2_10  and  C8_12 
REMARK    5  A    between atoms: C8_12  and  N3_14 
REMARK    6  A    between atoms: N3_14  and  C9_16 
ROOT
HETATM    1  C1  UNL     1       1.841  54.658   8.617  1.00  0.00     0.017 C 
HETATM    2  C2  UNL     1       1.081  53.746   8.850  1.00  0.00    -0.083 C 
HETATM    3  C3  UNL     1       0.181  52.655   9.102  1.00  0.00    -0.013 C 
HETATM    4  C4  UNL     1      -1.127  52.630   8.396  1.00  0.00     0.057 C 
HETATM    5  C5  UNL     1       0.510  51.711   9.936  1.00  0.00    -0.006 C 
ENDROOT
BRANCH   5   6
HETATM    6  C6  UNL     1      -0.386  50.569  10.228  1.00  0.00     0.074 C 
BRANCH   6   7
HETATM    7  C7  UNL     1      -1.169  50.840  11.484  1.00  0.00     0.084 C 
HETATM    8  N1  UNL     1      -2.142  50.036  11.744  1.00  0.00    -0.313 N 
ATOM      9  H1  UNL     1      -2.366  49.255  11.126  1.00  0.00     0.185 HD
BRANCH   8  10
HETATM   10  N2  UNL     1      -2.875  50.277  12.904  1.00  0.00    -0.277 N 
ATOM     11  H2  UNL     1      -2.594  49.836  13.780  1.00  0.00     0.189 HD
BRANCH  10  12
HETATM   12  C8  UNL     1      -4.011  51.131  12.882  1.00  0.00     0.192 C 
HETATM   13  S1  UNL     1      -5.188  50.870  11.780  1.00  0.00    -0.039 SA
BRANCH  12  14
HETATM   14  N3  UNL     1      -4.164  52.200  13.776  1.00  0.00    -0.314 N 
ATOM     15  H3  UNL     1      -4.380  51.965  14.745  1.00  0.00     0.170 HD
BRANCH  14  16
HETATM   16  C9  UNL     1      -4.058  53.439  13.489  1.00  0.00     0.170 A 
HETATM   17  N4  UNL     1      -2.993  54.216  13.262  1.00  0.00    -0.222 N 
HETATM   18  O1  UNL     1      -3.370  55.434  13.002  1.00  0.00    -0.154 OA
ATOM     19  H4  UNL     1      -2.025  53.899  13.288  1.00  0.00     0.198 HD
HETATM   20  N5  UNL     1      -4.670  55.490  13.052  1.00  0.00    -0.226 N 
HETATM   21  C10 UNL     1      -5.160  54.273  13.352  1.00  0.00     0.171 A 
ATOM     22  H5  UNL     1      -5.230  56.327  12.890  1.00  0.00     0.198 HD
HETATM   23 CL1  UNL     1      -6.850  53.808  13.540  1.00  0.00    -0.058 Cl
ENDBRANCH  14  16
ENDBRANCH  12  14
ENDBRANCH  10  12
ENDBRANCH   8  10
ENDBRANCH   6   7
ENDBRANCH   5   6
TORSDOF 6
ENDMDL
MODEL 4
REMARK VINA RESULT: -6.616694469      3.759      6.737
REMARK  6 active torsions:
REMARK  status: ('A' for Active; 'I' for Inactive)
REMARK    1  A    between atoms: C5_5  and  C6_6 
REMARK    2  A    between atoms: C6_6  and  C7_7 
REMARK    3  A    between atoms: N1_8  and  N2_10 
REMARK    4  A    between atoms: N2_10  and  C8_12 
REMARK    5  A    between atoms: C8_12  and  N3_14 
REMARK    6  A    between atoms: N3_14  and  C9_16 
ROOT
HETATM    1  C1  UNL     1      -2.342  49.773  12.967  1.00  0.00     0.017 C 
HETATM    2  C2  UNL     1      -3.280  49.965  12.228  1.00  0.00    -0.083 C 
HETATM    3  C3  UNL     1      -4.398  50.168  11.348  1.00  0.00    -0.013 C 
HETATM    4  C4  UNL     1      -4.277  49.738   9.930  1.00  0.00     0.057 C 
HETATM    5  C5  UNL     1      -5.491  50.720  11.790  1.00  0.00    -0.006 C 
ENDROOT
BRANCH   5   6
HETATM    6  C6  UNL     1      -6.667  50.950  10.919  1.00  0.00     0.074 C 
BRANCH   6   7
HETATM    7  C7  UNL     1      -7.018  52.413  10.908  1.00  0.00     0.084 C 
HETATM    8  N1  UNL     1      -6.233  53.191  10.246  1.00  0.00    -0.313 N 
ATOM      9  H1  UNL     1      -5.414  52.829   9.756  1.00  0.00     0.185 HD
BRANCH   8  10
HETATM   10  N2  UNL     1      -6.548  54.549  10.229  1.00  0.00    -0.277 N 
ATOM     11  H2  UNL     1      -6.703  55.020   9.338  1.00  0.00     0.189 HD
BRANCH  10  12
HETATM   12  C8  UNL     1      -6.655  55.286  11.440  1.00  0.00     0.192 C 
HETATM   13  S1  UNL     1      -8.096  55.929  11.861  1.00  0.00    -0.039 SA
BRANCH  12  14
HETATM   14  N3  UNL     1      -5.564  55.484  12.296  1.00  0.00    -0.314 N 
ATOM     15  H3  UNL     1      -4.960  56.282  12.099  1.00  0.00     0.170 HD
BRANCH  14  16
HETATM   16  C9  UNL     1      -5.256  54.759  13.300  1.00  0.00     0.170 A 
HETATM   17  N4  UNL     1      -5.782  54.659  14.526  1.00  0.00    -0.222 N 
HETATM   18  O1  UNL     1      -5.133  53.774  15.226  1.00  0.00    -0.154 OA
ATOM     19  H4  UNL     1      -6.578  55.200  14.864  1.00  0.00     0.198 HD
HETATM   20  N5  UNL     1      -4.179  53.278  14.493  1.00  0.00    -0.226 N 
HETATM   21  C10 UNL     1      -4.203  53.853  13.276  1.00  0.00     0.171 A 
ATOM     22  H5  UNL     1      -3.515  52.564  14.793  1.00  0.00     0.198 HD
HETATM   23 CL1  UNL     1      -3.129  53.539  11.913  1.00  0.00    -0.058 Cl
ENDBRANCH  14  16
ENDBRANCH  12  14
ENDBRANCH  10  12
ENDBRANCH   8  10
ENDBRANCH   6   7
ENDBRANCH   5   6
TORSDOF 6
ENDMDL
MODEL 5
REMARK VINA RESULT: -6.572570114      2.230      2.463
REMARK  6 active torsions:
REMARK  status: ('A' for Active; 'I' for Inactive)
REMARK    1  A    between atoms: C5_5  and  C6_6 
REMARK    2  A    between atoms: C6_6  and  C7_7 
REMARK    3  A    between atoms: N1_8  and  N2_10 
REMARK    4  A    between atoms: N2_10  and  C8_12 
REMARK    5  A    between atoms: C8_12  and  N3_14 
REMARK    6  A    between atoms: N3_14  and  C9_16 
ROOT
HETATM    1  C1  UNL     1     -14.023  59.752  13.237  1.00  0.00     0.017 C 
HETATM    2  C2  UNL     1     -13.086  59.501  12.515  1.00  0.00    -0.083 C 
HETATM    3  C3  UNL     1     -11.959  59.221  11.668  1.00  0.00    -0.013 C 
HETATM    4  C4  UNL     1     -11.491  60.275  10.730  1.00  0.00     0.057 C 
HETATM    5  C5  UNL     1     -11.365  58.064  11.726  1.00  0.00    -0.006 C 
ENDROOT
BRANCH   5   6
HETATM    6  C6  UNL     1     -10.201  57.730  10.873  1.00  0.00     0.074 C 
BRANCH   6   7
HETATM    7  C7  UNL     1      -9.231  56.875  11.642  1.00  0.00     0.084 C 
HETATM    8  N1  UNL     1      -8.053  56.740  11.137  1.00  0.00    -0.313 N 
ATOM      9  H1  UNL     1      -7.796  57.192  10.259  1.00  0.00     0.185 HD
BRANCH   8  10
HETATM   10  N2  UNL     1      -7.145  55.950  11.841  1.00  0.00    -0.277 N 
ATOM     11  H2  UNL     1      -6.876  56.213  12.789  1.00  0.00     0.189 HD
BRANCH  10  12
HETATM   12  C8  UNL     1      -6.590  54.781  11.252  1.00  0.00     0.192 C 
HETATM   13  S1  UNL     1      -7.419  54.004  10.079  1.00  0.00    -0.039 SA
BRANCH  12  14
HETATM   14  N3  UNL     1      -5.347  54.264  11.641  1.00  0.00    -0.314 N 
ATOM     15  H3  UNL     1      -4.635  54.176  10.916  1.00  0.00     0.170 HD
BRANCH  14  16
HETATM   16  C9  UNL     1      -5.024  53.892  12.818  1.00  0.00     0.170 A 
HETATM   17  N4  UNL     1      -4.611  54.578  13.890  1.00  0.00    -0.222 N 
HETATM   18  O1  UNL     1      -4.396  53.770  14.888  1.00  0.00    -0.154 OA
ATOM     19  H4  UNL     1      -4.483  55.589  13.921  1.00  0.00     0.198 HD
HETATM   20  N5  UNL     1      -4.656  52.553  14.505  1.00  0.00    -0.226 N 
HETATM   21  C10 UNL     1      -5.055  52.563  13.219  1.00  0.00     0.171 A 
ATOM     22  H5  UNL     1      -4.571  51.721  15.089  1.00  0.00     0.198 HD
HETATM   23 CL1  UNL     1      -5.524  51.184  12.226  1.00  0.00    -0.058 Cl
ENDBRANCH  14  16
ENDBRANCH  12  14
ENDBRANCH  10  12
ENDBRANCH   8  10
ENDBRANCH   6   7
ENDBRANCH   5   6
TORSDOF 6
ENDMDL
