MODEL 1
REMARK VINA RESULT: -5.680015826      0.000      0.000
REMARK  5 active torsions:
REMARK  status: ('A' for Active; 'I' for Inactive)
REMARK    1  A    between atoms: C1_2  and  S2_4 
REMARK    2  A    between atoms: S2_4  and  C2_5 
REMARK    3  A    between atoms: C2_5  and  C3_6 
REMARK    4  A    between atoms: C5_10  and  N3_11 
REMARK    5  A    between atoms: N3_11  and  C6_13 
ROOT
HETATM    1  C3  UNL     1      -4.367  53.174  13.522  1.00  0.00     0.011 A 
HETATM    2  C4  UNL     1      -3.869  51.929  13.233  1.00  0.00     0.105 A 
HETATM    3  N2  UNL     1      -2.726  51.868  12.606  1.00  0.00    -0.346 N 
ATOM      4  H2  UNL     1      -2.313  50.966  12.369  1.00  0.00     0.167 HD
HETATM    5  C5  UNL     1      -2.109  52.999  12.281  1.00  0.00     0.145 A 
HETATM    6  S3  UNL     1      -3.165  54.197  12.875  1.00  0.00    -0.057 SA
ENDROOT
BRANCH   5   7
HETATM    7  N3  UNL     1      -0.956  53.131  11.649  1.00  0.00    -0.364 N 
ATOM      8  H3  UNL     1      -0.073  53.066  12.156  1.00  0.00     0.162 HD
BRANCH   7   9
HETATM    9  C6  UNL     1      -0.973  53.371  10.220  1.00  0.00     0.103 A 
HETATM   10  C7  UNL     1       0.286  53.597   9.468  1.00  0.00     0.049 A 
HETATM   11  C8  UNL     1      -0.364  52.240   9.399  1.00  0.00     0.107 A 
HETATM   12 CL1  UNL     1       0.546  50.979  10.296  1.00  0.00    -0.123 Cl
ENDBRANCH   7   9
ENDBRANCH   5   7
BRANCH   1  13
HETATM   13  C2  UNL     1      -5.654  53.505  14.233  1.00  0.00     0.129 C 
BRANCH  13  14
HETATM   14  S2  UNL     1      -6.001  55.236  13.898  1.00  0.00    -0.098 SA
BRANCH  14  15
HETATM   15  C1  UNL     1      -7.448  55.436  12.868  1.00  0.00     0.149 C 
HETATM   16  N1  UNL     1      -8.675  55.843  13.419  1.00  0.00    -0.082 NA
HETATM   17  S1  UNL     1      -7.358  55.148  11.278  1.00  0.00    -0.056 SA
ENDBRANCH  14  15
ENDBRANCH  13  14
ENDBRANCH   1  13
TORSDOF 5
ENDMDL
MODEL 2
REMARK VINA RESULT: -5.618054608      1.879      1.988
REMARK  5 active torsions:
REMARK  status: ('A' for Active; 'I' for Inactive)
REMARK    1  A    between atoms: C1_2  and  S2_4 
REMARK    2  A    between atoms: S2_4  and  C2_5 
REMARK    3  A    between atoms: C2_5  and  C3_6 
REMARK    4  A    between atoms: C5_10  and  N3_11 
REMARK    5  A    between atoms: N3_11  and  C6_13 
ROOT
HETATM    1  C3  UNL     1      -4.017  52.870  13.082  1.00  0.00     0.011 A 
HETATM    2  C4  UNL     1      -3.139  53.918  12.976  1.00  0.00     0.105 A 
HETATM    3  N2  UNL     1      -2.319  53.918  11.961  1.00  0.00    -0.346 N 
ATOM      4  H2  UNL     1      -1.647  54.676  11.838  1.00  0.00     0.167 HD
HETATM    5  C5  UNL     1      -2.372  52.915  11.091  1.00  0.00     0.145 A 
HETATM    6  S3  UNL     1      -3.618  51.932  11.714  1.00  0.00    -0.057 SA
ENDROOT
BRANCH   5   7
HETATM    7  N3  UNL     1      -1.627  52.747  10.013  1.00  0.00    -0.364 N 
ATOM      8  H3  UNL     1      -1.913  52.103   9.276  1.00  0.00     0.162 HD
BRANCH   7   9
HETATM    9  C6  UNL     1      -0.393  53.500   9.901  1.00  0.00     0.103 A 
HETATM   10  C7  UNL     1       0.795  52.924   9.223  1.00  0.00     0.049 A 
HETATM   11  C8  UNL     1      -0.054  53.918   8.475  1.00  0.00     0.107 A 
HETATM   12 CL1  UNL     1      -1.015  53.168   7.155  1.00  0.00    -0.123 Cl
ENDBRANCH   7   9
ENDBRANCH   5   7
BRANCH   1  13
HETATM   13  C2  UNL     1      -5.053  52.645  14.152  1.00  0.00     0.129 C 
BRANCH  13  14
HETATM   14  S2  UNL     1      -6.615  53.244  13.496  1.00  0.00    -0.098 SA
BRANCH  14  15
HETATM   15  C1  UNL     1      -6.681  55.030  13.464  1.00  0.00     0.149 C 
HETATM   16  N1  UNL     1      -6.069  55.793  14.475  1.00  0.00    -0.082 NA
HETATM   17  S1  UNL     1      -7.453  55.793  12.263  1.00  0.00    -0.056 SA
ENDBRANCH  14  15
ENDBRANCH  13  14
ENDBRANCH   1  13
TORSDOF 5
ENDMDL
MODEL 3
REMARK VINA RESULT: -5.614619571      1.504      1.571
REMARK  5 active torsions:
REMARK  status: ('A' for Active; 'I' for Inactive)
REMARK    1  A    between atoms: C1_2  and  S2_4 
REMARK    2  A    between atoms: S2_4  and  C2_5 
REMARK    3  A    between atoms: C2_5  and  C3_6 
REMARK    4  A    between atoms: C5_10  and  N3_11 
REMARK    5  A    between atoms: N3_11  and  C6_13 
ROOT
HETATM    1  C3  UNL     1      -4.154  52.717  12.560  1.00  0.00     0.011 A 
HETATM    2  C4  UNL     1      -3.383  53.584  13.292  1.00  0.00     0.105 A 
HETATM    3  N2  UNL     1      -2.172  53.820  12.867  1.00  0.00    -0.346 N 
ATOM      4  H2  UNL     1      -1.560  54.458  13.376  1.00  0.00     0.167 HD
HETATM    5  C5  UNL     1      -1.749  53.217  11.761  1.00  0.00     0.145 A 
HETATM    6  S3  UNL     1      -3.096  52.283  11.294  1.00  0.00    -0.057 SA
ENDROOT
BRANCH   5   7
HETATM    7  N3  UNL     1      -0.565  53.333  11.186  1.00  0.00    -0.364 N 
ATOM      8  H3  UNL     1       0.292  53.223  11.729  1.00  0.00     0.162 HD
BRANCH   7   9
HETATM    9  C6  UNL     1      -0.511  53.621   9.767  1.00  0.00     0.103 A 
HETATM   10  C7  UNL     1       0.789  53.785   9.070  1.00  0.00     0.049 A 
HETATM   11  C8  UNL     1       0.051  52.479   8.928  1.00  0.00     0.107 A 
HETATM   12 CL1  UNL     1       0.839  51.129   9.812  1.00  0.00    -0.123 Cl
ENDBRANCH   7   9
ENDBRANCH   5   7
BRANCH   1  13
HETATM   13  C2  UNL     1      -5.570  52.287  12.840  1.00  0.00     0.129 C 
BRANCH  13  14
HETATM   14  S2  UNL     1      -6.124  53.225  14.269  1.00  0.00    -0.098 SA
BRANCH  14  15
HETATM   15  C1  UNL     1      -6.456  54.932  13.856  1.00  0.00     0.149 C 
HETATM   16  N1  UNL     1      -6.044  55.974  14.707  1.00  0.00    -0.082 NA
HETATM   17  S1  UNL     1      -7.240  55.299  12.488  1.00  0.00    -0.056 SA
ENDBRANCH  14  15
ENDBRANCH  13  14
ENDBRANCH   1  13
TORSDOF 5
ENDMDL
MODEL 4
REMARK VINA RESULT: -5.533684333      1.290      1.373
REMARK  5 active torsions:
REMARK  status: ('A' for Active; 'I' for Inactive)
REMARK    1  A    between atoms: C1_2  and  S2_4 
REMARK    2  A    between atoms: S2_4  and  C2_5 
REMARK    3  A    between atoms: C2_5  and  C3_6 
REMARK    4  A    between atoms: C5_10  and  N3_11 
REMARK    5  A    between atoms: N3_11  and  C6_13 
ROOT
HETATM    1  C3  UNL     1      -4.151  53.494  12.977  1.00  0.00     0.011 A 
HETATM    2  C4  UNL     1      -4.216  52.780  11.808  1.00  0.00     0.105 A 
HETATM    3  N2  UNL     1      -3.130  52.700  11.089  1.00  0.00    -0.346 N 
ATOM      4  H2  UNL     1      -3.126  52.180  10.212  1.00  0.00     0.167 HD
HETATM    5  C5  UNL     1      -2.027  53.305  11.518  1.00  0.00     0.145 A 
HETATM    6  S3  UNL     1      -2.526  54.016  12.985  1.00  0.00    -0.057 SA
ENDROOT
BRANCH   5   7
HETATM    7  N3  UNL     1      -0.845  53.333  10.929  1.00  0.00    -0.364 N 
ATOM      8  H3  UNL     1      -0.289  54.188  10.915  1.00  0.00     0.162 HD
BRANCH   7   9
HETATM    9  C6  UNL     1      -0.355  52.120  10.305  1.00  0.00     0.103 A 
HETATM   10  C7  UNL     1      -0.520  51.891   8.848  1.00  0.00     0.049 A 
HETATM   11  C8  UNL     1       0.821  52.344   9.363  1.00  0.00     0.107 A 
HETATM   12 CL1  UNL     1       1.204  54.043   8.925  1.00  0.00    -0.123 Cl
ENDBRANCH   7   9
ENDBRANCH   5   7
BRANCH   1  13
HETATM   13  C2  UNL     1      -5.258  53.730  13.971  1.00  0.00     0.129 C 
BRANCH  13  14
HETATM   14  S2  UNL     1      -5.927  55.361  13.625  1.00  0.00    -0.098 SA
BRANCH  14  15
HETATM   15  C1  UNL     1      -7.573  55.271  12.933  1.00  0.00     0.149 C 
HETATM   16  N1  UNL     1      -8.672  55.829  13.609  1.00  0.00    -0.082 NA
HETATM   17  S1  UNL     1      -7.816  54.539  11.510  1.00  0.00    -0.056 SA
ENDBRANCH  14  15
ENDBRANCH  13  14
ENDBRANCH   1  13
TORSDOF 5
ENDMDL
MODEL 5
REMARK VINA RESULT: -5.422599732      1.523      1.600
REMARK  5 active torsions:
REMARK  status: ('A' for Active; 'I' for Inactive)
REMARK    1  A    between atoms: C1_2  and  S2_4 
REMARK    2  A    between atoms: S2_4  and  C2_5 
REMARK    3  A    between atoms: C2_5  and  C3_6 
REMARK    4  A    between atoms: C5_10  and  N3_11 
REMARK    5  A    between atoms: N3_11  and  C6_13 
ROOT
HETATM    1  C3  UNL     1      -3.892  52.605  13.357  1.00  0.00     0.011 A 
HETATM    2  C4  UNL     1      -3.384  51.429  12.867  1.00  0.00     0.105 A 
HETATM    3  N2  UNL     1      -2.345  51.501  12.081  1.00  0.00    -0.346 N 
ATOM      4  H2  UNL     1      -1.931  50.655  11.691  1.00  0.00     0.167 HD
HETATM    5  C5  UNL     1      -1.836  52.695  11.796  1.00  0.00     0.145 A 
HETATM    6  S3  UNL     1      -2.847  53.760  12.661  1.00  0.00    -0.057 SA
ENDROOT
BRANCH   5   7
HETATM    7  N3  UNL     1      -0.796  52.962  11.026  1.00  0.00    -0.364 N 
ATOM      8  H3  UNL     1      -0.434  53.912  10.947  1.00  0.00     0.162 HD
BRANCH   7   9
HETATM    9  C6  UNL     1      -0.180  51.872  10.294  1.00  0.00     0.103 A 
HETATM   10  C7  UNL     1      -0.423  51.695   8.841  1.00  0.00     0.049 A 
HETATM   11  C8  UNL     1       0.871  52.323   9.287  1.00  0.00     0.107 A 
HETATM   12 CL1  UNL     1       0.958  54.081   8.931  1.00  0.00    -0.123 Cl
ENDBRANCH   7   9
ENDBRANCH   5   7
BRANCH   1  13
HETATM   13  C2  UNL     1      -5.073  52.783  14.275  1.00  0.00     0.129 C 
BRANCH  13  14
HETATM   14  S2  UNL     1      -6.445  53.334  13.255  1.00  0.00    -0.098 SA
BRANCH  14  15
HETATM   15  C1  UNL     1      -6.690  55.101  13.369  1.00  0.00     0.149 C 
HETATM   16  N1  UNL     1      -6.164  55.834  14.447  1.00  0.00    -0.082 NA
HETATM   17  S1  UNL     1      -7.528  55.880  12.223  1.00  0.00    -0.056 SA
ENDBRANCH  14  15
ENDBRANCH  13  14
ENDBRANCH   1  13
TORSDOF 5
ENDMDL
