MODEL 1
REMARK VINA RESULT: -8.135277472      0.000      0.000
REMARK  3 active torsions:
REMARK  status: ('A' for Active; 'I' for Inactive)
REMARK    1  A    between atoms: C7_8  and  O1_9 
REMARK    2  A    between atoms: O1_9  and  C8_10 
REMARK    3  A    between atoms: C8_10  and  C9_12 
ROOT
HETATM    1  O1  UNL     1     -44.666 -22.748  10.699  1.00  0.00    -0.312 OA
ENDROOT
BRANCH   1   2
HETATM    2  C7  UNL     1     -45.538 -21.919   9.940  1.00  0.00     0.136 C 
HETATM    3  C6  UNL     1     -44.995 -21.995   8.495  1.00  0.00     0.068 C 
HETATM    4  C5  UNL     1     -46.123 -22.055   7.498  1.00  0.00     0.225 C 
HETATM    5  N1  UNL     1     -47.154 -21.216   8.018  1.00  0.00     0.093 N 
HETATM    6  C4  UNL     1     -46.645 -23.472   7.460  1.00  0.00     0.038 C 
HETATM    7  C1  UNL     1     -47.933 -20.579   7.008  1.00  0.00     0.310 C 
HETATM    8  C2  UNL     1     -47.844 -22.095   8.900  1.00  0.00     0.225 C 
HETATM    9  C3  UNL     1     -47.994 -23.396   8.103  1.00  0.00     0.038 C 
HETATM   10  C13 UNL     1     -46.932 -22.423  10.072  1.00  0.00     0.068 C 
ENDBRANCH   1   2
BRANCH   1  11
HETATM   11  C8  UNL     1     -43.614 -23.486  10.155  1.00  0.00     0.296 C 
HETATM   12  O2  UNL     1     -42.681 -22.968   9.623  1.00  0.00    -0.259 OA
BRANCH  11  13
HETATM   13  C9  UNL     1     -43.782 -24.979  10.295  1.00  0.00     0.070 A 
HETATM   14  C10 UNL     1     -44.916 -25.580   9.880  1.00  0.00     0.051 A 
HETATM   15  C11 UNL     1     -45.048 -26.920  10.127  1.00  0.00     0.077 A 
HETATM   16 CL1  UNL     1     -46.391 -27.980   9.715  1.00  0.00    -0.076 Cl
HETATM   17  S1  UNL     1     -43.571 -27.303  10.940  1.00  0.00    -0.065 SA
HETATM   18  C12 UNL     1     -42.858 -25.728  10.929  1.00  0.00     0.092 A 
HETATM   19 CL2  UNL     1     -41.283 -25.234  11.586  1.00  0.00    -0.075 Cl
ENDBRANCH  11  13
ENDBRANCH   1  11
TORSDOF 3
ENDMDL
MODEL 2
REMARK VINA RESULT: -7.830779253      1.420      1.841
REMARK  3 active torsions:
REMARK  status: ('A' for Active; 'I' for Inactive)
REMARK    1  A    between atoms: C7_8  and  O1_9 
REMARK    2  A    between atoms: O1_9  and  C8_10 
REMARK    3  A    between atoms: C8_10  and  C9_12 
ROOT
HETATM    1  O1  UNL     1     -45.515 -23.385   8.999  1.00  0.00    -0.312 OA
ENDROOT
BRANCH   1   2
HETATM    2  C7  UNL     1     -46.503 -22.450   9.415  1.00  0.00     0.136 C 
HETATM    3  C6  UNL     1     -47.389 -22.233   8.168  1.00  0.00     0.068 C 
HETATM    4  C5  UNL     1     -48.843 -22.133   8.550  1.00  0.00     0.225 C 
HETATM    5  N1  UNL     1     -48.876 -21.438   9.796  1.00  0.00     0.093 N 
HETATM    6  C4  UNL     1     -49.369 -23.530   8.777  1.00  0.00     0.038 C 
HETATM    7  C1  UNL     1     -50.044 -20.641   9.974  1.00  0.00     0.310 C 
HETATM    8  C2  UNL     1     -48.668 -22.487  10.734  1.00  0.00     0.225 C 
HETATM    9  C3  UNL     1     -49.589 -23.616  10.254  1.00  0.00     0.038 C 
HETATM   10  C13 UNL     1     -47.248 -23.009  10.575  1.00  0.00     0.068 C 
ENDBRANCH   1   2
BRANCH   1  11
HETATM   11  C8  UNL     1     -44.361 -23.683   9.725  1.00  0.00     0.296 C 
HETATM   12  O2  UNL     1     -43.560 -22.849  10.021  1.00  0.00    -0.259 OA
BRANCH  11  13
HETATM   13  C9  UNL     1     -44.223 -25.144  10.077  1.00  0.00     0.070 A 
HETATM   14  C10 UNL     1     -45.186 -26.023   9.731  1.00  0.00     0.051 A 
HETATM   15  C11 UNL     1     -45.050 -27.313  10.169  1.00  0.00     0.077 A 
HETATM   16 CL1  UNL     1     -46.122 -28.681   9.888  1.00  0.00    -0.076 Cl
HETATM   17  S1  UNL     1     -43.570 -27.258  11.060  1.00  0.00    -0.065 SA
HETATM   18  C12 UNL     1     -43.198 -25.585  10.833  1.00  0.00     0.092 A 
HETATM   19 CL2  UNL     1     -41.795 -24.682  11.445  1.00  0.00    -0.075 Cl
ENDBRANCH  11  13
ENDBRANCH   1  11
TORSDOF 3
ENDMDL
MODEL 3
REMARK VINA RESULT: -7.795628368      1.410      2.770
REMARK  3 active torsions:
REMARK  status: ('A' for Active; 'I' for Inactive)
REMARK    1  A    between atoms: C7_8  and  O1_9 
REMARK    2  A    between atoms: O1_9  and  C8_10 
REMARK    3  A    between atoms: C8_10  and  C9_12 
ROOT
HETATM    1  O1  UNL     1     -44.606 -22.409  10.233  1.00  0.00    -0.312 OA
ENDROOT
BRANCH   1   2
HETATM    2  C7  UNL     1     -45.943 -22.006  10.505  1.00  0.00     0.136 C 
HETATM    3  C6  UNL     1     -46.421 -21.322   9.203  1.00  0.00     0.068 C 
HETATM    4  C5  UNL     1     -47.853 -21.678   8.902  1.00  0.00     0.225 C 
HETATM    5  N1  UNL     1     -48.516 -21.750  10.163  1.00  0.00     0.093 N 
HETATM    6  C4  UNL     1     -47.877 -23.054   8.279  1.00  0.00     0.038 C 
HETATM    7  C1  UNL     1     -49.888 -21.369  10.108  1.00  0.00     0.310 C 
HETATM    8  C2  UNL     1     -48.238 -23.083  10.577  1.00  0.00     0.225 C 
HETATM    9  C3  UNL     1     -48.490 -23.931   9.324  1.00  0.00     0.038 C 
HETATM   10  C13 UNL     1     -46.750 -23.201  10.870  1.00  0.00     0.068 C 
ENDBRANCH   1   2
BRANCH   1  11
HETATM   11  C8  UNL     1     -44.262 -23.507   9.444  1.00  0.00     0.296 C 
HETATM   12  O2  UNL     1     -44.493 -23.549   8.275  1.00  0.00    -0.259 OA
BRANCH  11  13
HETATM   13  C9  UNL     1     -43.594 -24.621  10.212  1.00  0.00     0.070 A 
HETATM   14  C10 UNL     1     -42.370 -24.442  10.750  1.00  0.00     0.051 A 
HETATM   15  C11 UNL     1     -41.777 -25.523  11.344  1.00  0.00     0.077 A 
HETATM   16 CL1  UNL     1     -40.204 -25.612  12.129  1.00  0.00    -0.076 Cl
HETATM   17  S1  UNL     1     -42.957 -26.769  11.131  1.00  0.00    -0.065 SA
HETATM   18  C12 UNL     1     -44.151 -25.847  10.286  1.00  0.00     0.092 A 
HETATM   19 CL2  UNL     1     -45.729 -26.393   9.679  1.00  0.00    -0.075 Cl
ENDBRANCH  11  13
ENDBRANCH   1  11
TORSDOF 3
ENDMDL
MODEL 4
REMARK VINA RESULT: -7.737028201      1.759      3.403
REMARK  3 active torsions:
REMARK  status: ('A' for Active; 'I' for Inactive)
REMARK    1  A    between atoms: C7_8  and  O1_9 
REMARK    2  A    between atoms: O1_9  and  C8_10 
REMARK    3  A    between atoms: C8_10  and  C9_12 
ROOT
HETATM    1  O1  UNL     1     -47.463 -25.103   9.309  1.00  0.00    -0.312 OA
ENDROOT
BRANCH   1   2
HETATM    2  C7  UNL     1     -47.809 -23.994   8.487  1.00  0.00     0.136 C 
HETATM    3  C6  UNL     1     -48.147 -22.858   9.480  1.00  0.00     0.068 C 
HETATM    4  C5  UNL     1     -47.621 -21.536   8.985  1.00  0.00     0.225 C 
HETATM    5  N1  UNL     1     -47.779 -21.554   7.567  1.00  0.00     0.093 N 
HETATM    6  C4  UNL     1     -46.143 -21.471   9.292  1.00  0.00     0.038 C 
HETATM    7  C1  UNL     1     -48.029 -20.268   7.005  1.00  0.00     0.310 C 
HETATM    8  C2  UNL     1     -46.598 -22.222   7.138  1.00  0.00     0.225 C 
HETATM    9  C3  UNL     1     -45.475 -21.574   7.958  1.00  0.00     0.038 C 
HETATM   10  C13 UNL     1     -46.665 -23.672   7.593  1.00  0.00     0.068 C 
ENDBRANCH   1   2
BRANCH   1  11
HETATM   11  C8  UNL     1     -46.685 -26.181   8.886  1.00  0.00     0.296 C 
HETATM   12  O2  UNL     1     -46.970 -26.837   7.932  1.00  0.00    -0.259 OA
BRANCH  11  13
HETATM   13  C9  UNL     1     -45.477 -26.436   9.753  1.00  0.00     0.070 A 
HETATM   14  C10 UNL     1     -44.599 -25.444  10.011  1.00  0.00     0.051 A 
HETATM   15  C11 UNL     1     -43.472 -25.766  10.718  1.00  0.00     0.077 A 
HETATM   16 CL1  UNL     1     -42.152 -24.711  11.210  1.00  0.00    -0.076 Cl
HETATM   17  S1  UNL     1     -43.673 -27.459  11.004  1.00  0.00    -0.065 SA
HETATM   18  C12 UNL     1     -45.189 -27.675  10.200  1.00  0.00     0.092 A 
HETATM   19 CL2  UNL     1     -46.132 -29.171  10.023  1.00  0.00    -0.075 Cl
ENDBRANCH  11  13
ENDBRANCH   1  11
TORSDOF 3
ENDMDL
MODEL 5
REMARK VINA RESULT: -7.552213507      1.363      2.019
REMARK  3 active torsions:
REMARK  status: ('A' for Active; 'I' for Inactive)
REMARK    1  A    between atoms: C7_8  and  O1_9 
REMARK    2  A    between atoms: O1_9  and  C8_10 
REMARK    3  A    between atoms: C8_10  and  C9_12 
ROOT
HETATM    1  O1  UNL     1     -46.116 -23.481   9.656  1.00  0.00    -0.312 OA
ENDROOT
BRANCH   1   2
HETATM    2  C7  UNL     1     -46.781 -22.601   8.758  1.00  0.00     0.136 C 
HETATM    3  C6  UNL     1     -48.097 -23.328   8.395  1.00  0.00     0.068 C 
HETATM    4  C5  UNL     1     -49.246 -22.357   8.318  1.00  0.00     0.225 C 
HETATM    5  N1  UNL     1     -48.711 -21.157   7.761  1.00  0.00     0.093 N 
HETATM    6  C4  UNL     1     -49.707 -22.058   9.724  1.00  0.00     0.038 C 
HETATM    7  C1  UNL     1     -49.648 -20.427   6.973  1.00  0.00     0.310 C 
HETATM    8  C2  UNL     1     -48.189 -20.496   8.909  1.00  0.00     0.225 C 
HETATM    9  C3  UNL     1     -49.290 -20.642   9.967  1.00  0.00     0.038 C 
HETATM   10  C13 UNL     1     -47.001 -21.291   9.429  1.00  0.00     0.068 C 
ENDBRANCH   1   2
BRANCH   1  11
HETATM   11  C8  UNL     1     -44.805 -23.927   9.490  1.00  0.00     0.296 C 
HETATM   12  O2  UNL     1     -43.946 -23.232   9.039  1.00  0.00    -0.259 OA
BRANCH  11  13
HETATM   13  C9  UNL     1     -44.590 -25.358   9.918  1.00  0.00     0.070 A 
HETATM   14  C10 UNL     1     -45.513 -26.301   9.635  1.00  0.00     0.051 A 
HETATM   15  C11 UNL     1     -45.308 -27.556  10.140  1.00  0.00     0.077 A 
HETATM   16 CL1  UNL     1     -46.314 -28.988   9.950  1.00  0.00    -0.076 Cl
HETATM   17  S1  UNL     1     -43.820 -27.382  11.003  1.00  0.00    -0.065 SA
HETATM   18  C12 UNL     1     -43.535 -25.706  10.680  1.00  0.00     0.092 A 
HETATM   19 CL2  UNL     1     -42.170 -24.704  11.220  1.00  0.00    -0.075 Cl
ENDBRANCH  11  13
ENDBRANCH   1  11
TORSDOF 3
ENDMDL
