MODEL 1
REMARK VINA RESULT: -6.926772410      0.000      0.000
REMARK  4 active torsions:
REMARK  status: ('A' for Active; 'I' for Inactive)
REMARK    1  A    between atoms: O1_2  and  C2_3 
REMARK    2  A    between atoms: C2_3  and  C3_5 
REMARK    3  A    between atoms: C4_6  and  C5_7 
REMARK    4  A    between atoms: C9_14  and  C10_15 
ROOT
HETATM    1  C5  UNL     1     -46.458 -23.481   8.236  1.00  0.00     0.057 C 
HETATM    2  C6  UNL     1     -46.071 -23.542   6.807  1.00  0.00     0.037 C 
HETATM    3  S1  UNL     1     -47.994 -24.527   8.332  1.00  0.00    -0.068 SA
HETATM    4  C7  UNL     1     -46.960 -25.985   8.370  1.00  0.00     0.232 C 
HETATM    5  O3  UNL     1     -47.212 -27.075   7.820  1.00  0.00    -0.279 OA
HETATM    6  C8  UNL     1     -45.817 -25.542   9.183  1.00  0.00     0.097 C 
HETATM    7 CL1  UNL     1     -45.027 -26.880  10.098  1.00  0.00    -0.079 Cl
HETATM    8  C9  UNL     1     -45.539 -24.271   9.132  1.00  0.00    -0.009 C 
ENDROOT
BRANCH   1   9
HETATM    9  C4  UNL     1     -46.899 -22.192   8.730  1.00  0.00     0.004 C 
HETATM   10  C3  UNL     1     -46.767 -21.022   8.134  1.00  0.00     0.080 C 
BRANCH  10  11
HETATM   11  C2  UNL     1     -47.224 -19.752   8.664  1.00  0.00     0.282 C 
HETATM   12  O2  UNL     1     -46.445 -18.936   9.245  1.00  0.00    -0.260 OA
BRANCH  11  13
HETATM   13  O1  UNL     1     -48.547 -19.362   8.561  1.00  0.00    -0.323 OA
HETATM   14  C1  UNL     1     -49.456 -19.592   9.620  1.00  0.00     0.213 C 
ENDBRANCH  11  13
ENDBRANCH  10  11
ENDBRANCH   1   9
BRANCH   8  15
HETATM   15  C10 UNL     1     -44.416 -23.673   9.900  1.00  0.00     0.057 C 
HETATM   16  C11 UNL     1     -43.381 -24.637  10.417  1.00  0.00     0.037 C 
HETATM   17  C12 UNL     1     -44.937 -22.918  11.142  1.00  0.00     0.037 C 
HETATM   18 CL2  UNL     1     -43.535 -22.457   8.978  1.00  0.00    -0.115 Cl
ENDBRANCH   8  15
TORSDOF 4
ENDMDL
MODEL 2
REMARK VINA RESULT: -6.855974689      0.764      1.042
REMARK  4 active torsions:
REMARK  status: ('A' for Active; 'I' for Inactive)
REMARK    1  A    between atoms: O1_2  and  C2_3 
REMARK    2  A    between atoms: C2_3  and  C3_5 
REMARK    3  A    between atoms: C4_6  and  C5_7 
REMARK    4  A    between atoms: C9_14  and  C10_15 
ROOT
HETATM    1  C5  UNL     1     -46.515 -23.383   8.181  1.00  0.00     0.057 C 
HETATM    2  C6  UNL     1     -46.110 -23.424   6.755  1.00  0.00     0.037 C 
HETATM    3  S1  UNL     1     -48.040 -24.446   8.248  1.00  0.00    -0.068 SA
HETATM    4  C7  UNL     1     -46.991 -25.894   8.283  1.00  0.00     0.232 C 
HETATM    5  O3  UNL     1     -47.224 -26.980   7.718  1.00  0.00    -0.279 OA
HETATM    6  C8  UNL     1     -45.862 -25.447   9.114  1.00  0.00     0.097 C 
HETATM    7 CL1  UNL     1     -45.068 -26.786  10.023  1.00  0.00    -0.079 Cl
HETATM    8  C9  UNL     1     -45.597 -24.172   9.079  1.00  0.00    -0.009 C 
ENDROOT
BRANCH   1   9
HETATM    9  C4  UNL     1     -46.975 -22.104   8.683  1.00  0.00     0.004 C 
HETATM   10  C3  UNL     1     -46.829 -20.924   8.112  1.00  0.00     0.080 C 
BRANCH  10  11
HETATM   11  C2  UNL     1     -47.307 -19.665   8.650  1.00  0.00     0.282 C 
HETATM   12  O2  UNL     1     -46.537 -18.829   9.214  1.00  0.00    -0.260 OA
BRANCH  11  13
HETATM   13  O1  UNL     1     -48.641 -19.308   8.573  1.00  0.00    -0.323 OA
HETATM   14  C1  UNL     1     -49.519 -19.545   9.656  1.00  0.00     0.213 C 
ENDBRANCH  11  13
ENDBRANCH  10  11
ENDBRANCH   1   9
BRANCH   8  15
HETATM   15  C10 UNL     1     -44.489 -23.571   9.866  1.00  0.00     0.057 C 
HETATM   16  C11 UNL     1     -43.615 -22.588   9.133  1.00  0.00     0.037 C 
HETATM   17  C12 UNL     1     -43.533 -24.662  10.395  1.00  0.00     0.037 C 
HETATM   18 CL2  UNL     1     -45.057 -22.738  11.311  1.00  0.00    -0.115 Cl
ENDBRANCH   8  15
TORSDOF 4
ENDMDL
MODEL 3
REMARK VINA RESULT: -6.765153059      1.515      1.826
REMARK  4 active torsions:
REMARK  status: ('A' for Active; 'I' for Inactive)
REMARK    1  A    between atoms: O1_2  and  C2_3 
REMARK    2  A    between atoms: C2_3  and  C3_5 
REMARK    3  A    between atoms: C4_6  and  C5_7 
REMARK    4  A    between atoms: C9_14  and  C10_15 
ROOT
HETATM    1  C5  UNL     1     -47.022 -22.283   8.184  1.00  0.00     0.057 C 
HETATM    2  C6  UNL     1     -46.598 -22.050   6.783  1.00  0.00     0.037 C 
HETATM    3  S1  UNL     1     -48.428 -23.491   8.035  1.00  0.00    -0.068 SA
HETATM    4  C7  UNL     1     -47.234 -24.811   7.869  1.00  0.00     0.232 C 
HETATM    5  O3  UNL     1     -47.346 -25.810   7.131  1.00  0.00    -0.279 OA
HETATM    6  C8  UNL     1     -46.169 -24.393   8.793  1.00  0.00     0.097 C 
HETATM    7 CL1  UNL     1     -45.250 -25.775   9.498  1.00  0.00    -0.079 Cl
HETATM    8  C9  UNL     1     -46.038 -23.110   8.970  1.00  0.00    -0.009 C 
ENDROOT
BRANCH   1   9
HETATM    9  C4  UNL     1     -47.620 -21.155   8.871  1.00  0.00     0.004 C 
HETATM   10  C3  UNL     1     -48.875 -21.031   9.257  1.00  0.00     0.080 C 
BRANCH  10  11
HETATM   11  C2  UNL     1     -49.433 -19.882   9.944  1.00  0.00     0.282 C 
HETATM   12  O2  UNL     1     -48.858 -18.751   9.961  1.00  0.00    -0.260 OA
BRANCH  11  13
HETATM   13  O1  UNL     1     -50.636 -19.962  10.623  1.00  0.00    -0.323 OA
HETATM   14  C1  UNL     1     -51.108 -21.199  11.121  1.00  0.00     0.213 C 
ENDBRANCH  11  13
ENDBRANCH  10  11
ENDBRANCH   1   9
BRANCH   8  15
HETATM   15  C10 UNL     1     -45.008 -22.535   9.875  1.00  0.00     0.057 C 
HETATM   16  C11 UNL     1     -43.656 -23.195   9.842  1.00  0.00     0.037 C 
HETATM   17  C12 UNL     1     -45.469 -22.604  11.348  1.00  0.00     0.037 C 
HETATM   18 CL2  UNL     1     -44.725 -20.822   9.578  1.00  0.00    -0.115 Cl
ENDBRANCH   8  15
TORSDOF 4
ENDMDL
MODEL 4
REMARK VINA RESULT: -6.749211997      3.051      6.127
REMARK  4 active torsions:
REMARK  status: ('A' for Active; 'I' for Inactive)
REMARK    1  A    between atoms: O1_2  and  C2_3 
REMARK    2  A    between atoms: C2_3  and  C3_5 
REMARK    3  A    between atoms: C4_6  and  C5_7 
REMARK    4  A    between atoms: C9_14  and  C10_15 
ROOT
HETATM    1  C5  UNL     1     -45.898 -24.474   9.597  1.00  0.00     0.057 C 
HETATM    2  C6  UNL     1     -45.113 -23.787   8.544  1.00  0.00     0.037 C 
HETATM    3  S1  UNL     1     -46.140 -23.170  10.901  1.00  0.00    -0.068 SA
HETATM    4  C7  UNL     1     -47.481 -22.494   9.931  1.00  0.00     0.232 C 
HETATM    5  O3  UNL     1     -47.752 -21.283   9.802  1.00  0.00    -0.279 OA
HETATM    6  C8  UNL     1     -48.114 -23.701   9.380  1.00  0.00     0.097 C 
HETATM    7 CL1  UNL     1     -49.879 -23.505   9.066  1.00  0.00    -0.079 Cl
HETATM    8  C9  UNL     1     -47.330 -24.725   9.199  1.00  0.00    -0.009 C 
ENDROOT
BRANCH   1   9
HETATM    9  C4  UNL     1     -45.224 -25.541  10.310  1.00  0.00     0.004 C 
HETATM   10  C3  UNL     1     -43.929 -25.791  10.332  1.00  0.00     0.080 C 
BRANCH  10  11
HETATM   11  C2  UNL     1     -43.294 -26.872  11.060  1.00  0.00     0.282 C 
HETATM   12  O2  UNL     1     -43.933 -27.894  11.457  1.00  0.00    -0.260 OA
BRANCH  11  13
HETATM   13  O1  UNL     1     -41.944 -26.844  11.362  1.00  0.00    -0.323 OA
HETATM   14  C1  UNL     1     -41.212 -25.635  11.300  1.00  0.00     0.213 C 
ENDBRANCH  11  13
ENDBRANCH  10  11
ENDBRANCH   1   9
BRANCH   8  15
HETATM   15  C10 UNL     1     -47.823 -26.015   8.651  1.00  0.00     0.057 C 
HETATM   16  C11 UNL     1     -46.859 -27.170   8.708  1.00  0.00     0.037 C 
HETATM   17  C12 UNL     1     -48.210 -25.870   7.163  1.00  0.00     0.037 C 
HETATM   18 CL2  UNL     1     -49.297 -26.569   9.442  1.00  0.00    -0.115 Cl
ENDBRANCH   8  15
TORSDOF 4
ENDMDL
MODEL 5
REMARK VINA RESULT: -6.661299345      3.159      5.860
REMARK  4 active torsions:
REMARK  status: ('A' for Active; 'I' for Inactive)
REMARK    1  A    between atoms: O1_2  and  C2_3 
REMARK    2  A    between atoms: C2_3  and  C3_5 
REMARK    3  A    between atoms: C4_6  and  C5_7 
REMARK    4  A    between atoms: C9_14  and  C10_15 
ROOT
HETATM    1  C5  UNL     1     -46.220 -21.897   8.390  1.00  0.00     0.057 C 
HETATM    2  C6  UNL     1     -46.117 -21.663   6.929  1.00  0.00     0.037 C 
HETATM    3  S1  UNL     1     -45.412 -20.402   9.144  1.00  0.00    -0.068 SA
HETATM    4  C7  UNL     1     -46.929 -19.492   8.886  1.00  0.00     0.232 C 
HETATM    5  O3  UNL     1     -47.016 -18.293   8.555  1.00  0.00    -0.279 OA
HETATM    6  C8  UNL     1     -47.958 -20.506   9.162  1.00  0.00     0.097 C 
HETATM    7 CL1  UNL     1     -49.497 -19.811   9.795  1.00  0.00    -0.079 Cl
HETATM    8  C9  UNL     1     -47.623 -21.740   8.917  1.00  0.00    -0.009 C 
ENDROOT
BRANCH   1   9
HETATM    9  C4  UNL     1     -45.445 -23.001   8.921  1.00  0.00     0.004 C 
HETATM   10  C3  UNL     1     -44.455 -22.935   9.791  1.00  0.00     0.080 C 
BRANCH  10  11
HETATM   11  C2  UNL     1     -43.704 -24.067  10.297  1.00  0.00     0.282 C 
HETATM   12  O2  UNL     1     -44.076 -25.267  10.119  1.00  0.00    -0.260 OA
BRANCH  11  13
HETATM   13  O1  UNL     1     -42.530 -23.894  11.009  1.00  0.00    -0.323 OA
HETATM   14  C1  UNL     1     -41.634 -24.970  11.203  1.00  0.00     0.213 C 
ENDBRANCH  11  13
ENDBRANCH  10  11
ENDBRANCH   1   9
BRANCH   8  15
HETATM   15  C10 UNL     1     -48.554 -22.876   9.147  1.00  0.00     0.057 C 
HETATM   16  C11 UNL     1     -49.960 -22.691   8.644  1.00  0.00     0.037 C 
HETATM   17  C12 UNL     1     -48.689 -23.179  10.656  1.00  0.00     0.037 C 
HETATM   18 CL2  UNL     1     -47.974 -24.382   8.441  1.00  0.00    -0.115 Cl
ENDBRANCH   8  15
TORSDOF 4
ENDMDL
