MODEL 1
REMARK VINA RESULT: -7.411081860      0.000      0.000
REMARK  4 active torsions:
REMARK  status: ('A' for Active; 'I' for Inactive)
REMARK    1  A    between atoms: C2_2  and  C3_4 
REMARK    2  A    between atoms: C2_2  and  C5_7 
REMARK    3  A    between atoms: C5_7  and  C6_9 
REMARK    4  A    between atoms: N2_13  and  C8_14 
ROOT
HETATM    1  C3  UNL     1     -43.073 -24.311  10.731  1.00  0.00    -0.055 C 
HETATM    2  C4  UNL     1     -42.050 -24.745  11.193  1.00  0.00     0.007 C 
HETATM    3 CL2  UNL     1     -40.575 -25.396  11.844  1.00  0.00    -0.023 Cl
ENDROOT
BRANCH   1   4
HETATM    4  C2  UNL     1     -44.342 -23.798  10.161  1.00  0.00     0.162 C 
HETATM    5  C1  UNL     1     -45.083 -24.940   9.553  1.00  0.00     0.056 C 
HETATM    6 CL1  UNL     1     -45.282 -23.184  11.534  1.00  0.00    -0.097 Cl
BRANCH   4   7
HETATM    7  C5  UNL     1     -44.076 -22.701   9.199  1.00  0.00     0.197 C 
HETATM    8  O1  UNL     1     -43.059 -22.775   8.451  1.00  0.00    -0.289 OA
BRANCH   7   9
HETATM    9  C6  UNL     1     -44.937 -21.545   9.083  1.00  0.00     0.047 A 
HETATM   10  C7  UNL     1     -44.622 -20.234   9.374  1.00  0.00     0.124 A 
HETATM   11  N1  UNL     1     -45.724 -19.468   9.122  1.00  0.00    -0.309 N 
HETATM   12  N2  UNL     1     -46.705 -20.247   8.690  1.00  0.00    -0.298 N 
ATOM     13  H1  UNL     1     -45.783 -18.457   9.247  1.00  0.00     0.186 HD
HETATM   14  C13 UNL     1     -46.248 -21.514   8.659  1.00  0.00     0.127 A 
BRANCH  12  15
HETATM   15  C8  UNL     1     -48.030 -19.836   8.315  1.00  0.00     0.111 C 
HETATM   16  C9  UNL     1     -48.997 -19.902   9.497  1.00  0.00     0.053 C 
HETATM   17  C10 UNL     1     -50.344 -19.434   8.984  1.00  0.00     0.169 C 
HETATM   18  O2  UNL     1     -50.821 -20.301   8.013  1.00  0.00    -0.391 OA
HETATM   19  C11 UNL     1     -49.993 -20.366   6.902  1.00  0.00     0.169 C 
HETATM   20  C12 UNL     1     -48.585 -20.757   7.250  1.00  0.00     0.053 C 
ENDBRANCH  12  15
ENDBRANCH   7   9
ENDBRANCH   4   7
ENDBRANCH   1   4
TORSDOF 4
ENDMDL
MODEL 2
REMARK VINA RESULT: -7.250632437      3.574      6.720
REMARK  4 active torsions:
REMARK  status: ('A' for Active; 'I' for Inactive)
REMARK    1  A    between atoms: C2_2  and  C3_4 
REMARK    2  A    between atoms: C2_2  and  C5_7 
REMARK    3  A    between atoms: C5_7  and  C6_9 
REMARK    4  A    between atoms: N2_13  and  C8_14 
ROOT
HETATM    1  C3  UNL     1     -48.975 -20.876   9.549  1.00  0.00    -0.055 C 
HETATM    2  C4  UNL     1     -49.780 -21.028  10.431  1.00  0.00     0.007 C 
HETATM    3 CL2  UNL     1     -50.940 -21.278  11.702  1.00  0.00    -0.023 Cl
ENDROOT
BRANCH   1   4
HETATM    4  C2  UNL     1     -47.992 -20.706   8.453  1.00  0.00     0.162 C 
HETATM    5  C1  UNL     1     -47.844 -22.009   7.745  1.00  0.00     0.056 C 
HETATM    6 CL1  UNL     1     -48.708 -19.533   7.331  1.00  0.00    -0.097 Cl
BRANCH   4   7
HETATM    7  C5  UNL     1     -46.708 -20.183   8.979  1.00  0.00     0.197 C 
HETATM    8  O1  UNL     1     -46.606 -18.947   9.230  1.00  0.00    -0.289 OA
BRANCH   7   9
HETATM    9  C6  UNL     1     -45.563 -21.034   9.218  1.00  0.00     0.047 A 
HETATM   10  C7  UNL     1     -44.289 -20.886   8.709  1.00  0.00     0.124 A 
HETATM   11  N1  UNL     1     -43.521 -21.907   9.188  1.00  0.00    -0.309 N 
HETATM   12  N2  UNL     1     -44.262 -22.679   9.968  1.00  0.00    -0.298 N 
ATOM     13  H1  UNL     1     -42.533 -22.053   8.977  1.00  0.00     0.186 HD
HETATM   14  C13 UNL     1     -45.507 -22.167  10.001  1.00  0.00     0.127 A 
BRANCH  12  15
HETATM   15  C8  UNL     1     -43.835 -23.861  10.668  1.00  0.00     0.111 C 
HETATM   16  C9  UNL     1     -42.337 -24.106  10.500  1.00  0.00     0.053 C 
HETATM   17  C10 UNL     1     -42.009 -25.357  11.288  1.00  0.00     0.169 C 
HETATM   18  O2  UNL     1     -42.668 -26.454  10.754  1.00  0.00    -0.391 OA
HETATM   19  C11 UNL     1     -44.048 -26.324  10.805  1.00  0.00     0.169 C 
HETATM   20  C12 UNL     1     -44.539 -25.082  10.117  1.00  0.00     0.053 C 
ENDBRANCH  12  15
ENDBRANCH   7   9
ENDBRANCH   4   7
ENDBRANCH   1   4
TORSDOF 4
ENDMDL
MODEL 3
REMARK VINA RESULT: -7.158899831      3.314      6.589
REMARK  4 active torsions:
REMARK  status: ('A' for Active; 'I' for Inactive)
REMARK    1  A    between atoms: C2_2  and  C3_4 
REMARK    2  A    between atoms: C2_2  and  C5_7 
REMARK    3  A    between atoms: C5_7  and  C6_9 
REMARK    4  A    between atoms: N2_13  and  C8_14 
ROOT
HETATM    1  C3  UNL     1     -47.415 -23.065   7.513  1.00  0.00    -0.055 C 
HETATM    2  C4  UNL     1     -47.296 -24.254   7.360  1.00  0.00     0.007 C 
HETATM    3 CL2  UNL     1     -47.151 -25.974   7.151  1.00  0.00    -0.023 Cl
ENDROOT
BRANCH   1   4
HETATM    4  C2  UNL     1     -47.571 -21.607   7.721  1.00  0.00     0.162 C 
HETATM    5  C1  UNL     1     -47.255 -20.909   6.442  1.00  0.00     0.056 C 
HETATM    6 CL1  UNL     1     -49.286 -21.346   8.096  1.00  0.00    -0.097 Cl
BRANCH   4   7
HETATM    7  C5  UNL     1     -46.732 -21.148   8.854  1.00  0.00     0.197 C 
HETATM    8  O1  UNL     1     -47.137 -20.186   9.569  1.00  0.00    -0.289 OA
BRANCH   7   9
HETATM    9  C6  UNL     1     -45.461 -21.759   9.176  1.00  0.00     0.047 A 
HETATM   10  C7  UNL     1     -44.215 -21.397   8.708  1.00  0.00     0.124 A 
HETATM   11  N1  UNL     1     -43.293 -22.236   9.263  1.00  0.00    -0.309 N 
HETATM   12  N2  UNL     1     -43.913 -23.101  10.053  1.00  0.00    -0.298 N 
ATOM     13  H1  UNL     1     -42.287 -22.203   9.097  1.00  0.00     0.186 HD
HETATM   14  C13 UNL     1     -45.232 -22.830  10.014  1.00  0.00     0.127 A 
BRANCH  12  15
HETATM   15  C8  UNL     1     -43.307 -24.153  10.824  1.00  0.00     0.111 C 
HETATM   16  C9  UNL     1     -41.793 -24.197  10.626  1.00  0.00     0.053 C 
HETATM   17  C10 UNL     1     -41.274 -25.325  11.494  1.00  0.00     0.169 C 
HETATM   18  O2  UNL     1     -41.781 -26.542  11.064  1.00  0.00    -0.391 OA
HETATM   19  C11 UNL     1     -43.164 -26.603  11.149  1.00  0.00     0.169 C 
HETATM   20  C12 UNL     1     -43.841 -25.500  10.387  1.00  0.00     0.053 C 
ENDBRANCH  12  15
ENDBRANCH   7   9
ENDBRANCH   4   7
ENDBRANCH   1   4
TORSDOF 4
ENDMDL
MODEL 4
REMARK VINA RESULT: -7.117773077      1.866      1.996
REMARK  4 active torsions:
REMARK  status: ('A' for Active; 'I' for Inactive)
REMARK    1  A    between atoms: C2_2  and  C3_4 
REMARK    2  A    between atoms: C2_2  and  C5_7 
REMARK    3  A    between atoms: C5_7  and  C6_9 
REMARK    4  A    between atoms: N2_13  and  C8_14 
ROOT
HETATM    1  C3  UNL     1     -44.310 -24.943   9.962  1.00  0.00    -0.055 C 
HETATM    2  C4  UNL     1     -44.328 -26.054  10.427  1.00  0.00     0.007 C 
HETATM    3 CL2  UNL     1     -44.327 -27.663  11.086  1.00  0.00    -0.023 Cl
ENDROOT
BRANCH   1   4
HETATM    4  C2  UNL     1     -44.275 -23.584   9.373  1.00  0.00     0.162 C 
HETATM    5  C1  UNL     1     -42.851 -23.175   9.209  1.00  0.00     0.056 C 
HETATM    6 CL1  UNL     1     -45.009 -23.729   7.764  1.00  0.00    -0.097 Cl
BRANCH   4   7
HETATM    7  C5  UNL     1     -45.059 -22.636  10.201  1.00  0.00     0.197 C 
HETATM    8  O1  UNL     1     -45.088 -22.798  11.456  1.00  0.00    -0.289 OA
BRANCH   7   9
HETATM    9  C6  UNL     1     -45.794 -21.529   9.630  1.00  0.00     0.047 A 
HETATM   10  C7  UNL     1     -45.295 -20.301   9.248  1.00  0.00     0.124 A 
HETATM   11  N1  UNL     1     -46.331 -19.557   8.760  1.00  0.00    -0.309 N 
HETATM   12  N2  UNL     1     -47.446 -20.270   8.825  1.00  0.00    -0.298 N 
ATOM     13  H1  UNL     1     -46.257 -18.604   8.403  1.00  0.00     0.186 HD
HETATM   14  C13 UNL     1     -47.143 -21.472   9.351  1.00  0.00     0.127 A 
BRANCH  12  15
HETATM   15  C8  UNL     1     -48.759 -19.855   8.413  1.00  0.00     0.111 C 
HETATM   16  C9  UNL     1     -49.724 -19.780   9.594  1.00  0.00     0.053 C 
HETATM   17  C10 UNL     1     -51.057 -19.321   9.040  1.00  0.00     0.169 C 
HETATM   18  O2  UNL     1     -51.563 -20.260   8.153  1.00  0.00    -0.391 OA
HETATM   19  C11 UNL     1     -50.741 -20.453   7.053  1.00  0.00     0.169 C 
HETATM   20  C12 UNL     1     -49.345 -20.853   7.437  1.00  0.00     0.053 C 
ENDBRANCH  12  15
ENDBRANCH   7   9
ENDBRANCH   4   7
ENDBRANCH   1   4
TORSDOF 4
ENDMDL
MODEL 5
REMARK VINA RESULT: -7.079179068      3.112      6.882
REMARK  4 active torsions:
REMARK  status: ('A' for Active; 'I' for Inactive)
REMARK    1  A    between atoms: C2_2  and  C3_4 
REMARK    2  A    between atoms: C2_2  and  C5_7 
REMARK    3  A    between atoms: C5_7  and  C6_9 
REMARK    4  A    between atoms: N2_13  and  C8_14 
ROOT
HETATM    1  C3  UNL     1     -47.013 -21.245   6.412  1.00  0.00    -0.055 C 
HETATM    2  C4  UNL     1     -46.508 -20.914   5.370  1.00  0.00     0.007 C 
HETATM    3 CL2  UNL     1     -45.760 -20.461   3.867  1.00  0.00    -0.023 Cl
ENDROOT
BRANCH   1   4
HETATM    4  C2  UNL     1     -47.615 -21.660   7.701  1.00  0.00     0.162 C 
HETATM    5  C1  UNL     1     -49.021 -21.166   7.747  1.00  0.00     0.056 C 
HETATM    6 CL1  UNL     1     -47.641 -23.434   7.682  1.00  0.00    -0.097 Cl
BRANCH   4   7
HETATM    7  C5  UNL     1     -46.795 -21.179   8.839  1.00  0.00     0.197 C 
HETATM    8  O1  UNL     1     -47.226 -20.221   9.544  1.00  0.00    -0.289 OA
BRANCH   7   9
HETATM    9  C6  UNL     1     -45.515 -21.763   9.175  1.00  0.00     0.047 A 
HETATM   10  C7  UNL     1     -44.269 -21.349   8.753  1.00  0.00     0.124 A 
HETATM   11  N1  UNL     1     -43.336 -22.179   9.306  1.00  0.00    -0.309 N 
HETATM   12  N2  UNL     1     -43.951 -23.087  10.050  1.00  0.00    -0.298 N 
ATOM     13  H1  UNL     1     -42.328 -22.110   9.168  1.00  0.00     0.186 HD
HETATM   14  C13 UNL     1     -45.276 -22.853   9.985  1.00  0.00     0.127 A 
BRANCH  12  15
HETATM   15  C8  UNL     1     -43.334 -24.144  10.804  1.00  0.00     0.111 C 
HETATM   16  C9  UNL     1     -41.830 -24.218  10.546  1.00  0.00     0.053 C 
HETATM   17  C10 UNL     1     -41.297 -25.350  11.400  1.00  0.00     0.169 C 
HETATM   18  O2  UNL     1     -41.842 -26.559  10.998  1.00  0.00    -0.391 OA
HETATM   19  C11 UNL     1     -43.222 -26.595  11.140  1.00  0.00     0.169 C 
HETATM   20  C12 UNL     1     -43.909 -25.484  10.398  1.00  0.00     0.053 C 
ENDBRANCH  12  15
ENDBRANCH   7   9
ENDBRANCH   4   7
ENDBRANCH   1   4
TORSDOF 4
ENDMDL
