MODEL 1
REMARK VINA RESULT: -6.529184863      0.000      0.000
REMARK  3 active torsions:
REMARK  status: ('A' for Active; 'I' for Inactive)
REMARK    1  A    between atoms: C6_9  and  S2_10 
REMARK    2  A    between atoms: S2_10  and  N1_13 
REMARK    3  A    between atoms: N1_13  and  C7_15 
ROOT
HETATM    1  C1  UNL     1     -47.396 -25.549   8.616  1.00  0.00     0.018 C 
HETATM    2  C2  UNL     1     -46.362 -25.831   9.199  1.00  0.00    -0.074 C 
HETATM    3  C3  UNL     1     -45.119 -26.160   9.914  1.00  0.00     0.071 A 
HETATM    4  C4  UNL     1     -44.922 -27.453  10.316  1.00  0.00     0.096 A 
HETATM    5 CL1  UNL     1     -45.964 -28.873  10.114  1.00  0.00    -0.075 Cl
HETATM    6  S1  UNL     1     -43.406 -27.409  11.083  1.00  0.00    -0.063 SA
HETATM    7  C5  UNL     1     -43.051 -25.753  10.878  1.00  0.00     0.101 A 
HETATM    8 CL2  UNL     1     -41.616 -24.847  11.403  1.00  0.00    -0.074 Cl
HETATM    9  C6  UNL     1     -44.142 -25.276  10.207  1.00  0.00     0.129 A 
ENDROOT
BRANCH   9  10
HETATM   10  S2  UNL     1     -44.240 -23.554   9.767  1.00  0.00     0.266 S 
HETATM   11  O1  UNL     1     -42.889 -22.973   9.944  1.00  0.00    -0.200 OA
HETATM   12  O2  UNL     1     -44.664 -23.413   8.334  1.00  0.00    -0.200 OA
BRANCH  10  13
HETATM   13  N1  UNL     1     -45.441 -22.787  10.724  1.00  0.00    -0.281 N 
ATOM     14  H1  UNL     1     -45.410 -22.819  11.743  1.00  0.00     0.179 HD
BRANCH  13  15
HETATM   15  C7  UNL     1     -46.381 -22.169  10.101  1.00  0.00     0.181 C 
HETATM   16  S3  UNL     1     -47.878 -21.807   9.631  1.00  0.00    -0.074 SA
ENDBRANCH  13  15
ENDBRANCH  10  13
ENDBRANCH   9  10
TORSDOF 3
ENDMDL
MODEL 2
REMARK VINA RESULT: -6.424268775      1.358      1.493
REMARK  3 active torsions:
REMARK  status: ('A' for Active; 'I' for Inactive)
REMARK    1  A    between atoms: C6_9  and  S2_10 
REMARK    2  A    between atoms: S2_10  and  N1_13 
REMARK    3  A    between atoms: N1_13  and  C7_15 
ROOT
HETATM    1  C1  UNL     1     -47.461 -25.666   8.677  1.00  0.00     0.018 C 
HETATM    2  C2  UNL     1     -46.408 -25.906   9.242  1.00  0.00    -0.074 C 
HETATM    3  C3  UNL     1     -45.141 -26.185   9.936  1.00  0.00     0.071 A 
HETATM    4  C4  UNL     1     -44.876 -27.472  10.316  1.00  0.00     0.096 A 
HETATM    5 CL1  UNL     1     -45.851 -28.938  10.106  1.00  0.00    -0.075 Cl
HETATM    6  S1  UNL     1     -43.355 -27.366  11.065  1.00  0.00    -0.063 SA
HETATM    7  C5  UNL     1     -43.082 -25.692  10.881  1.00  0.00     0.101 A 
HETATM    8 CL2  UNL     1     -41.685 -24.725  11.400  1.00  0.00    -0.074 Cl
HETATM    9  C6  UNL     1     -44.204 -25.259  10.231  1.00  0.00     0.129 A 
ENDROOT
BRANCH   9  10
HETATM   10  S2  UNL     1     -44.390 -23.537   9.817  1.00  0.00     0.266 S 
HETATM   11  O1  UNL     1     -45.378 -22.959  10.757  1.00  0.00    -0.200 OA
HETATM   12  O2  UNL     1     -43.076 -22.827   9.969  1.00  0.00    -0.200 OA
BRANCH  10  13
HETATM   13  N1  UNL     1     -44.853 -23.392   8.171  1.00  0.00    -0.281 N 
ATOM     14  H1  UNL     1     -44.471 -24.009   7.454  1.00  0.00     0.179 HD
BRANCH  13  15
HETATM   15  C7  UNL     1     -45.702 -22.470   7.879  1.00  0.00     0.181 C 
HETATM   16  S3  UNL     1     -46.761 -21.636   6.999  1.00  0.00    -0.074 SA
ENDBRANCH  13  15
ENDBRANCH  10  13
ENDBRANCH   9  10
TORSDOF 3
ENDMDL
MODEL 3
REMARK VINA RESULT: -6.270511674      1.977      3.148
REMARK  3 active torsions:
REMARK  status: ('A' for Active; 'I' for Inactive)
REMARK    1  A    between atoms: C6_9  and  S2_10 
REMARK    2  A    between atoms: S2_10  and  N1_13 
REMARK    3  A    between atoms: N1_13  and  C7_15 
ROOT
HETATM    1  C1  UNL     1     -42.434 -24.388  11.059  1.00  0.00     0.018 C 
HETATM    2  C2  UNL     1     -43.422 -24.899  10.559  1.00  0.00    -0.074 C 
HETATM    3  C3  UNL     1     -44.608 -25.512   9.940  1.00  0.00     0.071 A 
HETATM    4  C4  UNL     1     -44.857 -26.836  10.181  1.00  0.00     0.096 A 
HETATM    5 CL1  UNL     1     -43.947 -27.999  11.162  1.00  0.00    -0.075 Cl
HETATM    6  S1  UNL     1     -46.281 -27.143   9.306  1.00  0.00    -0.063 SA
HETATM    7  C5  UNL     1     -46.533 -25.588   8.651  1.00  0.00     0.101 A 
HETATM    8 CL2  UNL     1     -47.838 -25.024   7.587  1.00  0.00    -0.074 Cl
HETATM    9  C6  UNL     1     -45.483 -24.863   9.143  1.00  0.00     0.129 A 
ENDROOT
BRANCH   9  10
HETATM   10  S2  UNL     1     -45.304 -23.144   8.718  1.00  0.00     0.266 S 
HETATM   11  O1  UNL     1     -43.886 -22.920   8.355  1.00  0.00    -0.200 OA
HETATM   12  O2  UNL     1     -46.182 -22.811   7.546  1.00  0.00    -0.200 OA
BRANCH  10  13
HETATM   13  N1  UNL     1     -45.831 -22.173  10.032  1.00  0.00    -0.281 N 
ATOM     14  H1  UNL     1     -45.262 -21.405  10.388  1.00  0.00     0.179 HD
BRANCH  13  15
HETATM   15  C7  UNL     1     -46.975 -22.456  10.549  1.00  0.00     0.181 C 
HETATM   16  S3  UNL     1     -48.541 -22.826  10.604  1.00  0.00    -0.074 SA
ENDBRANCH  13  15
ENDBRANCH  10  13
ENDBRANCH   9  10
TORSDOF 3
ENDMDL
MODEL 4
REMARK VINA RESULT: -6.222547492      2.375      3.361
REMARK  3 active torsions:
REMARK  status: ('A' for Active; 'I' for Inactive)
REMARK    1  A    between atoms: C6_9  and  S2_10 
REMARK    2  A    between atoms: S2_10  and  N1_13 
REMARK    3  A    between atoms: N1_13  and  C7_15 
ROOT
HETATM    1  C1  UNL     1     -42.220 -24.347  11.099  1.00  0.00     0.018 C 
HETATM    2  C2  UNL     1     -43.253 -24.769  10.608  1.00  0.00    -0.074 C 
HETATM    3  C3  UNL     1     -44.494 -25.274   9.999  1.00  0.00     0.071 A 
HETATM    4  C4  UNL     1     -44.792 -26.602  10.137  1.00  0.00     0.096 A 
HETATM    5 CL1  UNL     1     -43.892 -27.886  10.963  1.00  0.00    -0.075 Cl
HETATM    6  S1  UNL     1     -46.269 -26.770   9.312  1.00  0.00    -0.063 SA
HETATM    7  C5  UNL     1     -46.480 -25.153   8.810  1.00  0.00     0.101 A 
HETATM    8 CL2  UNL     1     -47.807 -24.441   7.868  1.00  0.00    -0.074 Cl
HETATM    9  C6  UNL     1     -45.375 -24.520   9.309  1.00  0.00     0.129 A 
ENDROOT
BRANCH   9  10
HETATM   10  S2  UNL     1     -45.137 -22.778   9.028  1.00  0.00     0.266 S 
HETATM   11  O1  UNL     1     -45.428 -22.079  10.300  1.00  0.00    -0.200 OA
HETATM   12  O2  UNL     1     -43.717 -22.513   8.621  1.00  0.00    -0.200 OA
BRANCH  10  13
HETATM   13  N1  UNL     1     -46.136 -22.268   7.728  1.00  0.00    -0.281 N 
ATOM     14  H1  UNL     1     -46.294 -22.861   6.913  1.00  0.00     0.179 HD
BRANCH  13  15
HETATM   15  C7  UNL     1     -46.677 -21.105   7.826  1.00  0.00     0.181 C 
HETATM   16  S3  UNL     1     -47.696 -19.968   8.338  1.00  0.00    -0.074 SA
ENDBRANCH  13  15
ENDBRANCH  10  13
ENDBRANCH   9  10
TORSDOF 3
ENDMDL
MODEL 5
REMARK VINA RESULT: -6.140429535      2.221      3.521
REMARK  3 active torsions:
REMARK  status: ('A' for Active; 'I' for Inactive)
REMARK    1  A    between atoms: C6_9  and  S2_10 
REMARK    2  A    between atoms: S2_10  and  N1_13 
REMARK    3  A    between atoms: N1_13  and  C7_15 
ROOT
HETATM    1  C1  UNL     1     -43.256 -23.951  10.501  1.00  0.00     0.018 C 
HETATM    2  C2  UNL     1     -44.104 -24.761  10.168  1.00  0.00    -0.074 C 
HETATM    3  C3  UNL     1     -45.123 -25.737   9.749  1.00  0.00     0.071 A 
HETATM    4  C4  UNL     1     -44.991 -27.034  10.163  1.00  0.00     0.096 A 
HETATM    5 CL1  UNL     1     -43.737 -27.780  11.169  1.00  0.00    -0.075 Cl
HETATM    6  S1  UNL     1     -46.339 -27.813   9.481  1.00  0.00    -0.063 SA
HETATM    7  C5  UNL     1     -47.044 -26.479   8.685  1.00  0.00     0.101 A 
HETATM    8 CL2  UNL     1     -48.525 -26.419   7.705  1.00  0.00    -0.074 Cl
HETATM    9  C6  UNL     1     -46.194 -25.449   8.979  1.00  0.00     0.129 A 
ENDROOT
BRANCH   9  10
HETATM   10  S2  UNL     1     -46.513 -23.816   8.347  1.00  0.00     0.266 S 
HETATM   11  O1  UNL     1     -45.430 -23.490   7.391  1.00  0.00    -0.200 OA
HETATM   12  O2  UNL     1     -47.835 -23.790   7.636  1.00  0.00    -0.200 OA
BRANCH  10  13
HETATM   13  N1  UNL     1     -46.623 -22.709   9.653  1.00  0.00    -0.281 N 
ATOM     14  H1  UNL     1     -47.130 -22.941  10.507  1.00  0.00     0.179 HD
BRANCH  13  15
HETATM   15  C7  UNL     1     -46.037 -21.572   9.509  1.00  0.00     0.181 C 
HETATM   16  S3  UNL     1     -44.827 -20.523   9.345  1.00  0.00    -0.074 SA
ENDBRANCH  13  15
ENDBRANCH  10  13
ENDBRANCH   9  10
TORSDOF 3
ENDMDL
