MODEL 1
REMARK VINA RESULT: -5.460135812      0.000      0.000
REMARK  7 active torsions:
REMARK  status: ('A' for Active; 'I' for Inactive)
REMARK    1  A    between atoms: N1_1  and  C1_4 
REMARK    2  A    between atoms: N4_10  and  C4_11 
REMARK    3  A    between atoms: C5_14  and  N6_15 
REMARK    4  A    between atoms: N7_18  and  N8_19 
REMARK    5  A    between atoms: N8_19  and  N9_21 
REMARK    6  A    between atoms: N9_21  and  N10_23 
REMARK    7  A    between atoms: C6_26  and  O1_27 
ROOT
HETATM    1  C4  UNL     1      15.567   9.587  12.343  1.00  0.00     0.172 A 
HETATM    2  N5  UNL     1      15.332   8.814  11.266  1.00  0.00    -0.172 N 
ATOM      3  H5  UNL     1      16.109   8.614  10.636  1.00  0.00     0.186 HD
HETATM    4  C5  UNL     1      14.123   8.290  10.978  1.00  0.00     0.702 A 
HETATM    5  N7  UNL     1      13.112   8.559  11.813  1.00  0.00    -0.046 N 
HETATM    6  C6  UNL     1      13.300   9.339  12.923  1.00  0.00     0.209 A 
HETATM    7  C7  UNL     1      14.528   9.878  13.225  1.00  0.00     0.145 A 
HETATM    8  N11 UNL     1      14.755  10.693  14.371  1.00  0.00    -0.094 NA
ENDROOT
BRANCH   1   9
HETATM    9  N4  UNL     1      16.843  10.146  12.640  1.00  0.00    -0.138 N 
HETATM   10  C1  UNL     1      17.187  11.462  12.510  1.00  0.00     0.685 A 
HETATM   11  N2  UNL     1      18.467  11.618  12.873  1.00  0.00    -0.177 N 
HETATM   12  C2  UNL     1      18.978  10.424  13.243  1.00  0.00     0.148 A 
ATOM     13  H2  UNL     1      18.976  12.502  12.870  1.00  0.00     0.185 HD
HETATM   14  N3  UNL     1      20.308  10.167  13.693  1.00  0.00    -0.081 NA
HETATM   15  C3  UNL     1      17.941   9.524  13.087  1.00  0.00     0.162 A 
BRANCH  10  16
HETATM   16  N1  UNL     1      16.360  12.360  12.096  1.00  0.00    -0.234 N 
ATOM     17  H12 UNL     1      16.182  12.531  11.107  1.00  0.00     0.174 HD
ATOM     18  H11 UNL     1      15.794  13.000  12.654  1.00  0.00     0.174 HD
ENDBRANCH  10  16
ENDBRANCH   1   9
BRANCH   4  19
HETATM   19  N6  UNL     1      13.983   7.550   9.929  1.00  0.00    -0.233 N 
ATOM     20  H62 UNL     1      13.690   7.924   9.027  1.00  0.00     0.174 HD
ATOM     21  H61 UNL     1      14.159   6.547   9.992  1.00  0.00     0.174 HD
ENDBRANCH   4  19
BRANCH   6  22
HETATM   22  O1  UNL     1      12.240   9.612  13.784  1.00  0.00    -0.343 OA
ATOM     23  H1  UNL     1      12.288   9.368  14.701  1.00  0.00     0.219 HD
ENDBRANCH   6  22
BRANCH   5  24
HETATM   24  N8  UNL     1      11.831   8.069  11.562  1.00  0.00    -0.205 N 
ATOM     25  H8  UNL     1      11.359   8.363  10.706  1.00  0.00     0.211 HD
BRANCH  24  26
HETATM   26  N9  UNL     1      11.164   7.201  12.418  1.00  0.00    -0.234 N 
ATOM     27  H9  UNL     1      11.487   6.247  12.578  1.00  0.00     0.209 HD
BRANCH  26  28
HETATM   28  N10 UNL     1      10.046   7.704  13.034  1.00  0.00    -0.330 N 
ATOM     29 2H10 UNL     1      10.075   8.591  13.537  1.00  0.00     0.178 HD
ATOM     30 1H10 UNL     1       9.199   7.140  12.956  1.00  0.00     0.178 HD
ENDBRANCH  26  28
ENDBRANCH  24  26
ENDBRANCH   5  24
TORSDOF 7
ENDMDL
MODEL 2
REMARK VINA RESULT: -5.306410978      3.175      5.900
REMARK  7 active torsions:
REMARK  status: ('A' for Active; 'I' for Inactive)
REMARK    1  A    between atoms: N1_1  and  C1_4 
REMARK    2  A    between atoms: N4_10  and  C4_11 
REMARK    3  A    between atoms: C5_14  and  N6_15 
REMARK    4  A    between atoms: N7_18  and  N8_19 
REMARK    5  A    between atoms: N8_19  and  N9_21 
REMARK    6  A    between atoms: N9_21  and  N10_23 
REMARK    7  A    between atoms: C6_26  and  O1_27 
ROOT
HETATM    1  C4  UNL     1      16.673   9.396  13.541  1.00  0.00     0.172 A 
HETATM    2  N5  UNL     1      16.437   8.218  14.147  1.00  0.00    -0.172 N 
ATOM      3  H5  UNL     1      15.487   7.846  14.128  1.00  0.00     0.186 HD
HETATM    4  C5  UNL     1      17.391   7.503  14.779  1.00  0.00     0.702 A 
HETATM    5  N7  UNL     1      18.634   8.002  14.796  1.00  0.00    -0.046 N 
HETATM    6  C6  UNL     1      18.926   9.196  14.192  1.00  0.00     0.209 A 
HETATM    7  C7  UNL     1      17.960   9.932  13.547  1.00  0.00     0.145 A 
HETATM    8  N11 UNL     1      18.231  11.177  12.911  1.00  0.00    -0.094 NA
ENDROOT
BRANCH   1   9
HETATM    9  N4  UNL     1      15.661  10.153  12.884  1.00  0.00    -0.138 N 
HETATM   10  C1  UNL     1      15.008  11.234  13.404  1.00  0.00     0.685 A 
HETATM   11  N2  UNL     1      14.121  11.685  12.508  1.00  0.00    -0.177 N 
HETATM   12  C2  UNL     1      14.176  10.918  11.397  1.00  0.00     0.148 A 
ATOM     13  H2  UNL     1      13.500  12.483  12.643  1.00  0.00     0.185 HD
HETATM   14  N3  UNL     1      13.390  11.069  10.216  1.00  0.00    -0.081 NA
HETATM   15  C3  UNL     1      15.147   9.970  11.661  1.00  0.00     0.162 A 
BRANCH  10  16
HETATM   16  N1  UNL     1      15.255  11.696  14.582  1.00  0.00    -0.234 N 
ATOM     17  H12 UNL     1      16.156  11.571  15.046  1.00  0.00     0.174 HD
ATOM     18  H11 UNL     1      14.634  12.223  15.196  1.00  0.00     0.174 HD
ENDBRANCH  10  16
ENDBRANCH   1   9
BRANCH   4  19
HETATM   19  N6  UNL     1      17.085   6.376  15.328  1.00  0.00    -0.233 N 
ATOM     20  H62 UNL     1      16.907   5.530  14.787  1.00  0.00     0.174 HD
ATOM     21  H61 UNL     1      17.005   6.314  16.343  1.00  0.00     0.174 HD
ENDBRANCH   4  19
BRANCH   6  22
HETATM   22  O1  UNL     1      20.221   9.704  14.218  1.00  0.00    -0.343 OA
ATOM     23  H1  UNL     1      20.967   9.121  14.300  1.00  0.00     0.219 HD
ENDBRANCH   6  22
BRANCH   5  24
HETATM   24  N8  UNL     1      19.663   7.326  15.450  1.00  0.00    -0.205 N 
ATOM     25  H8  UNL     1      19.982   6.438  15.063  1.00  0.00     0.211 HD
BRANCH  24  26
HETATM   26  N9  UNL     1      20.275   7.801  16.603  1.00  0.00    -0.234 N 
ATOM     27  H9  UNL     1      21.272   8.016  16.636  1.00  0.00     0.209 HD
BRANCH  26  28
HETATM   28  N10 UNL     1      19.461   7.964  17.696  1.00  0.00    -0.330 N 
ATOM     29 2H10 UNL     1      18.459   8.123  17.586  1.00  0.00     0.178 HD
ATOM     30 1H10 UNL     1      19.917   7.914  18.607  1.00  0.00     0.178 HD
ENDBRANCH  26  28
ENDBRANCH  24  26
ENDBRANCH   5  24
TORSDOF 7
ENDMDL
MODEL 3
REMARK VINA RESULT: -5.277430993      1.834      6.262
REMARK  7 active torsions:
REMARK  status: ('A' for Active; 'I' for Inactive)
REMARK    1  A    between atoms: N1_1  and  C1_4 
REMARK    2  A    between atoms: N4_10  and  C4_11 
REMARK    3  A    between atoms: C5_14  and  N6_15 
REMARK    4  A    between atoms: N7_18  and  N8_19 
REMARK    5  A    between atoms: N8_19  and  N9_21 
REMARK    6  A    between atoms: N9_21  and  N10_23 
REMARK    7  A    between atoms: C6_26  and  O1_27 
ROOT
HETATM    1  C4  UNL     1      14.961   9.437  12.341  1.00  0.00     0.172 A 
HETATM    2  N5  UNL     1      15.050  10.778  12.399  1.00  0.00    -0.172 N 
ATOM      3  H5  UNL     1      14.189  11.323  12.351  1.00  0.00     0.186 HD
HETATM    4  C5  UNL     1      16.219  11.441  12.518  1.00  0.00     0.702 A 
HETATM    5  N7  UNL     1      17.343  10.714  12.581  1.00  0.00    -0.046 N 
HETATM    6  C6  UNL     1      17.305   9.347  12.528  1.00  0.00     0.209 A 
HETATM    7  C7  UNL     1      16.118   8.663  12.406  1.00  0.00     0.145 A 
HETATM    8  N11 UNL     1      16.046   7.242  12.347  1.00  0.00    -0.094 NA
ENDROOT
BRANCH   1   9
HETATM    9  N4  UNL     1      13.726   8.741  12.206  1.00  0.00    -0.138 N 
HETATM   10  C1  UNL     1      13.260   8.156  11.063  1.00  0.00     0.685 A 
HETATM   11  N2  UNL     1      12.065   7.603  11.308  1.00  0.00    -0.177 N 
HETATM   12  C2  UNL     1      11.730   7.812  12.600  1.00  0.00     0.148 A 
ATOM     13  H2  UNL     1      11.496   7.102  10.625  1.00  0.00     0.185 HD
HETATM   14  N3  UNL     1      10.535   7.383  13.252  1.00  0.00    -0.081 NA
HETATM   15  C3  UNL     1      12.786   8.525  13.135  1.00  0.00     0.162 A 
BRANCH  10  16
HETATM   16  N1  UNL     1      13.918   8.172   9.955  1.00  0.00    -0.234 N 
ATOM     17  H12 UNL     1      13.462   8.173   9.043  1.00  0.00     0.174 HD
ATOM     18  H11 UNL     1      14.930   8.183   9.823  1.00  0.00     0.174 HD
ENDBRANCH  10  16
ENDBRANCH   1   9
BRANCH   4  19
HETATM   19  N6  UNL     1      16.219  12.730  12.577  1.00  0.00    -0.233 N 
ATOM     20  H62 UNL     1      15.476  13.299  12.173  1.00  0.00     0.174 HD
ATOM     21  H61 UNL     1      16.991  13.215  13.036  1.00  0.00     0.174 HD
ENDBRANCH   4  19
BRANCH   6  22
HETATM   22  O1  UNL     1      18.480   8.603  12.594  1.00  0.00    -0.343 OA
ATOM     23  H1  UNL     1      18.470   7.713  12.925  1.00  0.00     0.219 HD
ENDBRANCH   6  22
BRANCH   5  24
HETATM   24  N8  UNL     1      18.587  11.335  12.681  1.00  0.00    -0.205 N 
ATOM     25  H8  UNL     1      18.964  11.800  11.854  1.00  0.00     0.211 HD
BRANCH  24  26
HETATM   26  N9  UNL     1      19.340  11.354  13.848  1.00  0.00    -0.234 N 
ATOM     27  H9  UNL     1      19.050  11.884  14.669  1.00  0.00     0.209 HD
BRANCH  26  28
HETATM   28  N10 UNL     1      20.498  10.617  13.831  1.00  0.00    -0.330 N 
ATOM     29 2H10 UNL     1      20.486   9.623  13.599  1.00  0.00     0.178 HD
ATOM     30 1H10 UNL     1      21.354  11.121  14.061  1.00  0.00     0.178 HD
ENDBRANCH  26  28
ENDBRANCH  24  26
ENDBRANCH   5  24
TORSDOF 7
ENDMDL
MODEL 4
REMARK VINA RESULT: -5.241498250      2.618      6.528
REMARK  7 active torsions:
REMARK  status: ('A' for Active; 'I' for Inactive)
REMARK    1  A    between atoms: N1_1  and  C1_4 
REMARK    2  A    between atoms: N4_10  and  C4_11 
REMARK    3  A    between atoms: C5_14  and  N6_15 
REMARK    4  A    between atoms: N7_18  and  N8_19 
REMARK    5  A    between atoms: N8_19  and  N9_21 
REMARK    6  A    between atoms: N9_21  and  N10_23 
REMARK    7  A    between atoms: C6_26  and  O1_27 
ROOT
HETATM    1  C4  UNL     1      13.251   8.133  10.687  1.00  0.00     0.172 A 
HETATM    2  N5  UNL     1      13.934   7.757  11.784  1.00  0.00    -0.172 N 
ATOM      3  H5  UNL     1      13.883   6.780  12.074  1.00  0.00     0.186 HD
HETATM    4  C5  UNL     1      14.684   8.603  12.519  1.00  0.00     0.702 A 
HETATM    5  N7  UNL     1      14.744   9.882  12.128  1.00  0.00    -0.046 N 
HETATM    6  C6  UNL     1      14.068  10.315  11.018  1.00  0.00     0.209 A 
HETATM    7  C7  UNL     1      13.301   9.460  10.262  1.00  0.00     0.145 A 
HETATM    8  N11 UNL     1      12.586   9.879   9.105  1.00  0.00    -0.094 NA
ENDROOT
BRANCH   1   9
HETATM    9  N4  UNL     1      12.453   7.239   9.918  1.00  0.00    -0.138 N 
HETATM   10  C1  UNL     1      12.823   6.647   8.744  1.00  0.00     0.685 A 
HETATM   11  N2  UNL     1      11.818   5.877   8.305  1.00  0.00    -0.177 N 
HETATM   12  C2  UNL     1      10.786   5.948   9.173  1.00  0.00     0.148 A 
ATOM     13  H2  UNL     1      11.831   5.323   7.449  1.00  0.00     0.185 HD
HETATM   14  N3  UNL     1       9.530   5.277   9.064  1.00  0.00    -0.081 NA
HETATM   15  C3  UNL     1      11.211   6.806  10.170  1.00  0.00     0.162 A 
BRANCH  10  16
HETATM   16  N1  UNL     1      13.974   6.843   8.198  1.00  0.00    -0.234 N 
ATOM     17  H12 UNL     1      14.106   7.463   7.398  1.00  0.00     0.174 HD
ATOM     18  H11 UNL     1      14.873   6.436   8.459  1.00  0.00     0.174 HD
ENDBRANCH  10  16
ENDBRANCH   1   9
BRANCH   4  19
HETATM   19  N6  UNL     1      15.317   8.161  13.553  1.00  0.00    -0.233 N 
ATOM     20  H62 UNL     1      15.945   7.358  13.512  1.00  0.00     0.174 HD
ATOM     21  H61 UNL     1      15.189   8.616  14.457  1.00  0.00     0.174 HD
ENDBRANCH   4  19
BRANCH   6  22
HETATM   22  O1  UNL     1      14.138  11.648  10.622  1.00  0.00    -0.343 OA
ATOM     23  H1  UNL     1      14.388  12.323  11.241  1.00  0.00     0.219 HD
ENDBRANCH   6  22
BRANCH   5  24
HETATM   24  N8  UNL     1      15.481  10.816  12.855  1.00  0.00    -0.205 N 
ATOM     25  H8  UNL     1      15.125  11.112  13.765  1.00  0.00     0.211 HD
BRANCH  24  26
HETATM   26  N9  UNL     1      16.676  11.363  12.406  1.00  0.00    -0.234 N 
ATOM     27  H9  UNL     1      17.518  10.800  12.291  1.00  0.00     0.209 HD
BRANCH  26  28
HETATM   28  N10 UNL     1      16.656  12.707  12.126  1.00  0.00    -0.330 N 
ATOM     29 2H10 UNL     1      17.376  13.332  12.490  1.00  0.00     0.178 HD
ATOM     30 1H10 UNL     1      15.887  13.032  11.540  1.00  0.00     0.178 HD
ENDBRANCH  26  28
ENDBRANCH  24  26
ENDBRANCH   5  24
TORSDOF 7
ENDMDL
MODEL 5
REMARK VINA RESULT: -5.228667701      2.008      6.305
REMARK  7 active torsions:
REMARK  status: ('A' for Active; 'I' for Inactive)
REMARK    1  A    between atoms: N1_1  and  C1_4 
REMARK    2  A    between atoms: N4_10  and  C4_11 
REMARK    3  A    between atoms: C5_14  and  N6_15 
REMARK    4  A    between atoms: N7_18  and  N8_19 
REMARK    5  A    between atoms: N8_19  and  N9_21 
REMARK    6  A    between atoms: N9_21  and  N10_23 
REMARK    7  A    between atoms: C6_26  and  O1_27 
ROOT
HETATM    1  C4  UNL     1      14.984   9.595  11.741  1.00  0.00     0.172 A 
HETATM    2  N5  UNL     1      15.100  10.928  11.887  1.00  0.00    -0.172 N 
ATOM      3  H5  UNL     1      14.286  11.509  11.686  1.00  0.00     0.186 HD
HETATM    4  C5  UNL     1      16.236  11.536  12.287  1.00  0.00     0.702 A 
HETATM    5  N7  UNL     1      17.298  10.761  12.548  1.00  0.00    -0.046 N 
HETATM    6  C6  UNL     1      17.231   9.400  12.416  1.00  0.00     0.209 A 
HETATM    7  C7  UNL     1      16.077   8.772  12.009  1.00  0.00     0.145 A 
HETATM    8  N11 UNL     1      15.976   7.360  11.860  1.00  0.00    -0.094 NA
ENDROOT
BRANCH   1   9
HETATM    9  N4  UNL     1      13.786   8.958  11.310  1.00  0.00    -0.138 N 
HETATM   10  C1  UNL     1      12.924   8.258  12.105  1.00  0.00     0.685 A 
HETATM   11  N2  UNL     1      11.913   7.797  11.356  1.00  0.00    -0.177 N 
HETATM   12  C2  UNL     1      12.091   8.182  10.074  1.00  0.00     0.148 A 
ATOM     13  H2  UNL     1      11.130   7.241  11.701  1.00  0.00     0.185 HD
HETATM   14  N3  UNL     1      11.237   7.890   8.968  1.00  0.00    -0.081 NA
HETATM   15  C3  UNL     1      13.269   8.905  10.076  1.00  0.00     0.162 A 
BRANCH  10  16
HETATM   16  N1  UNL     1      13.113   8.103  13.370  1.00  0.00    -0.234 N 
ATOM     17  H12 UNL     1      12.355   8.152  14.051  1.00  0.00     0.174 HD
ATOM     18  H11 UNL     1      13.990   7.920  13.859  1.00  0.00     0.174 HD
ENDBRANCH  10  16
ENDBRANCH   1   9
BRANCH   4  19
HETATM   19  N6  UNL     1      16.263  12.820  12.412  1.00  0.00    -0.233 N 
ATOM     20  H62 UNL     1      15.999  13.294  13.275  1.00  0.00     0.174 HD
ATOM     21  H61 UNL     1      16.549  13.398  11.622  1.00  0.00     0.174 HD
ENDBRANCH   4  19
BRANCH   6  22
HETATM   22  O1  UNL     1      18.341   8.607  12.690  1.00  0.00    -0.343 OA
ATOM     23  H1  UNL     1      19.198   8.842  12.353  1.00  0.00     0.219 HD
ENDBRANCH   6  22
BRANCH   5  24
HETATM   24  N8  UNL     1      18.510  11.326  12.942  1.00  0.00    -0.205 N 
ATOM     25  H8  UNL     1      18.927  12.043  12.348  1.00  0.00     0.211 HD
BRANCH  24  26
HETATM   26  N9  UNL     1      19.180  10.961  14.103  1.00  0.00    -0.234 N 
ATOM     27  H9  UNL     1      18.719  10.953  15.013  1.00  0.00     0.209 HD
BRANCH  26  28
HETATM   28  N10 UNL     1      20.500  10.614  13.954  1.00  0.00    -0.330 N 
ATOM     29 2H10 UNL     1      21.094  10.444  14.766  1.00  0.00     0.178 HD
ATOM     30 1H10 UNL     1      20.838  10.540  12.995  1.00  0.00     0.178 HD
ENDBRANCH  26  28
ENDBRANCH  24  26
ENDBRANCH   5  24
TORSDOF 7
ENDMDL
