MODEL 1
REMARK VINA RESULT: -7.710799628      0.000      0.000
REMARK  7 active torsions:
REMARK  status: ('A' for Active; 'I' for Inactive)
REMARK    1  A    between atoms: C2_2  and  C3_6 
REMARK    2  A    between atoms: C3_6  and  N2_7 
REMARK    3  A    between atoms: C3_6  and  C4_11 
REMARK    4  A    between atoms: C4_11  and  O1_12 
REMARK    5  A    between atoms: N3_14  and  C5_16 
REMARK    6  A    between atoms: N5_18  and  C6_19 
REMARK    7  A    between atoms: C8_26  and  O3_27 
ROOT
HETATM    1  C4  UNL     1      16.370  17.463  18.044  1.00  0.00     0.149 C 
HETATM    2  N3  UNL     1      15.681  18.142  17.194  1.00  0.00    -0.349 N 
ATOM      3  H3  UNL     1      16.118  18.950  16.749  1.00  0.00     0.163 HD
ENDROOT
BRANCH   2   4
HETATM    4  C5  UNL     1      14.335  17.819  16.843  1.00  0.00     0.246 C 
HETATM    5  N4  UNL     1      14.234  16.699  15.928  1.00  0.00    -0.089 NA
HETATM    6  N5  UNL     1      13.116  15.993  16.352  1.00  0.00    -0.171 N 
HETATM    7  N8  UNL     1      13.059  16.134  17.739  1.00  0.00    -0.083 NA
HETATM    8  C8  UNL     1      13.485  17.489  18.023  1.00  0.00     0.273 C 
BRANCH   6   9
HETATM    9  C6  UNL     1      12.204  15.265  15.523  1.00  0.00     0.243 A 
HETATM   10  O2  UNL     1      11.238  15.525  14.703  1.00  0.00    -0.212 OA
HETATM   11  N6  UNL     1      10.988  14.286  14.415  1.00  0.00    -0.241 N 
HETATM   12  C7  UNL     1      11.991  13.931  15.261  1.00  0.00     0.192 A 
ATOM     13  H6  UNL     1      10.327  13.792  13.815  1.00  0.00     0.196 HD
HETATM   14  N7  UNL     1      12.581  12.707  15.700  1.00  0.00    -0.076 NA
ENDBRANCH   6   9
BRANCH   8  15
HETATM   15  O3  UNL     1      12.327  18.286  17.991  1.00  0.00    -0.374 OA
ATOM     16  H3  UNL     1      12.262  18.771  18.805  1.00  0.00     0.212 HD
ENDBRANCH   8  15
ENDBRANCH   2   4
BRANCH   1  17
HETATM   17  C3  UNL     1      17.749  17.772  18.421  1.00  0.00     0.301 C 
BRANCH  17  18
HETATM   18  C2  UNL     1      18.057  19.202  18.499  1.00  0.00     0.014 C 
HETATM   19  C1  UNL     1      18.057  19.995  19.753  1.00  0.00     0.065 C 
HETATM   20  N1  UNL     1      18.348  19.817  17.413  1.00  0.00    -0.404 N 
ATOM     21  H12 UNL     1      18.562  20.813  17.467  1.00  0.00     0.155 HD
ATOM     22  H11 UNL     1      18.348  19.272  16.551  1.00  0.00     0.155 HD
ENDBRANCH  17  18
BRANCH  17  23
HETATM   23  N2  UNL     1      18.669  17.071  17.581  1.00  0.00    -0.062 N 
ATOM     24  H23 UNL     1      19.630  17.364  17.759  1.00  0.00     0.275 HD
ATOM     25  H22 UNL     1      18.746  16.091  17.854  1.00  0.00     0.275 HD
ATOM     26  H21 UNL     1      18.430  17.163  16.593  1.00  0.00     0.275 HD
ENDBRANCH  17  23
ENDBRANCH   1  17
BRANCH   1  27
HETATM   27  O1  UNL     1      15.750  16.369  18.632  1.00  0.00    -0.348 OA
ATOM     28  H1  UNL     1      14.805  16.381  18.730  1.00  0.00     0.219 HD
ENDBRANCH   1  27
TORSDOF 7
ENDMDL
MODEL 2
REMARK VINA RESULT: -7.701313404      4.759      8.984
REMARK  7 active torsions:
REMARK  status: ('A' for Active; 'I' for Inactive)
REMARK    1  A    between atoms: C2_2  and  C3_6 
REMARK    2  A    between atoms: C3_6  and  N2_7 
REMARK    3  A    between atoms: C3_6  and  C4_11 
REMARK    4  A    between atoms: C4_11  and  O1_12 
REMARK    5  A    between atoms: N3_14  and  C5_16 
REMARK    6  A    between atoms: N5_18  and  C6_19 
REMARK    7  A    between atoms: C8_26  and  O3_27 
ROOT
HETATM    1  C4  UNL     1      13.877  10.203  11.305  1.00  0.00     0.149 C 
HETATM    2  N3  UNL     1      13.980  10.356  12.579  1.00  0.00    -0.349 N 
ATOM      3  H3  UNL     1      14.086   9.525  13.161  1.00  0.00     0.163 HD
ENDROOT
BRANCH   2   4
HETATM    4  C5  UNL     1      13.954  11.634  13.217  1.00  0.00     0.246 C 
HETATM    5  N4  UNL     1      12.615  12.166  13.378  1.00  0.00    -0.089 NA
HETATM    6  N5  UNL     1      12.626  12.787  14.621  1.00  0.00    -0.171 N 
HETATM    7  N8  UNL     1      13.491  12.045  15.427  1.00  0.00    -0.083 NA
HETATM    8  C8  UNL     1      14.581  11.627  14.570  1.00  0.00     0.273 C 
BRANCH   6   9
HETATM    9  C6  UNL     1      11.893  13.957  14.995  1.00  0.00     0.243 A 
HETATM   10  O2  UNL     1      10.655  14.314  15.115  1.00  0.00    -0.212 OA
HETATM   11  N6  UNL     1      10.917  15.526  15.496  1.00  0.00    -0.241 N 
HETATM   12  C7  UNL     1      12.239  15.228  15.394  1.00  0.00     0.192 A 
ATOM     13  H6  UNL     1      10.370  16.346  15.758  1.00  0.00     0.196 HD
HETATM   14  N7  UNL     1      13.469  15.922  15.606  1.00  0.00    -0.076 NA
ENDBRANCH   6   9
BRANCH   8  15
HETATM   15  O3  UNL     1      15.550  12.643  14.632  1.00  0.00    -0.374 OA
ATOM     16  H3  UNL     1      16.406  12.266  14.469  1.00  0.00     0.212 HD
ENDBRANCH   8  15
ENDBRANCH   2   4
BRANCH   1  17
HETATM   17  C3  UNL     1      13.900   8.908  10.626  1.00  0.00     0.301 C 
BRANCH  17  18
HETATM   18  C2  UNL     1      12.601   8.460  10.117  1.00  0.00     0.014 C 
HETATM   19  C1  UNL     1      11.748   7.439  10.773  1.00  0.00     0.065 C 
HETATM   20  N1  UNL     1      12.165   8.983   9.031  1.00  0.00    -0.404 N 
ATOM     21  H12 UNL     1      11.261   8.671   8.676  1.00  0.00     0.155 HD
ATOM     22  H11 UNL     1      12.752   9.685   8.580  1.00  0.00     0.155 HD
ENDBRANCH  17  18
BRANCH  17  23
HETATM   23  N2  UNL     1      14.521   7.919  11.451  1.00  0.00    -0.062 N 
ATOM     24  H23 UNL     1      15.519   7.847  11.255  1.00  0.00     0.275 HD
ATOM     25  H22 UNL     1      14.569   8.225  12.423  1.00  0.00     0.275 HD
ATOM     26  H21 UNL     1      14.061   7.012  11.370  1.00  0.00     0.275 HD
ENDBRANCH  17  23
ENDBRANCH   1  17
BRANCH   1  27
HETATM   27  O1  UNL     1      13.735  11.352  10.538  1.00  0.00    -0.348 OA
ATOM     28  H1  UNL     1      14.384  11.533   9.868  1.00  0.00     0.219 HD
ENDBRANCH   1  27
TORSDOF 7
ENDMDL
MODEL 3
REMARK VINA RESULT: -7.634043132      0.776      1.059
REMARK  7 active torsions:
REMARK  status: ('A' for Active; 'I' for Inactive)
REMARK    1  A    between atoms: C2_2  and  C3_6 
REMARK    2  A    between atoms: C3_6  and  N2_7 
REMARK    3  A    between atoms: C3_6  and  C4_11 
REMARK    4  A    between atoms: C4_11  and  O1_12 
REMARK    5  A    between atoms: N3_14  and  C5_16 
REMARK    6  A    between atoms: N5_18  and  C6_19 
REMARK    7  A    between atoms: C8_26  and  O3_27 
ROOT
HETATM    1  C4  UNL     1      16.393  17.501  18.070  1.00  0.00     0.149 C 
HETATM    2  N3  UNL     1      15.704  18.185  17.224  1.00  0.00    -0.349 N 
ATOM      3  H3  UNL     1      16.145  18.987  16.773  1.00  0.00     0.163 HD
ENDROOT
BRANCH   2   4
HETATM    4  C5  UNL     1      14.352  17.875  16.886  1.00  0.00     0.246 C 
HETATM    5  N4  UNL     1      14.234  16.791  15.931  1.00  0.00    -0.089 NA
HETATM    6  N5  UNL     1      13.123  16.068  16.348  1.00  0.00    -0.171 N 
HETATM    7  N8  UNL     1      13.092  16.156  17.740  1.00  0.00    -0.083 NA
HETATM    8  C8  UNL     1      13.523  17.500  18.068  1.00  0.00     0.273 C 
BRANCH   6   9
HETATM    9  C6  UNL     1      12.196  15.372  15.509  1.00  0.00     0.243 A 
HETATM   10  O2  UNL     1      12.228  14.673  14.421  1.00  0.00    -0.212 OA
HETATM   11  N6  UNL     1      10.952  14.442  14.390  1.00  0.00    -0.241 N 
HETATM   12  C7  UNL     1      10.836  15.165  15.535  1.00  0.00     0.192 A 
ATOM     13  H6  UNL     1      10.313  13.939  13.775  1.00  0.00     0.196 HD
HETATM   14  N7  UNL     1       9.771  15.552  16.404  1.00  0.00    -0.076 NA
ENDBRANCH   6   9
BRANCH   8  15
HETATM   15  O3  UNL     1      12.365  18.297  18.088  1.00  0.00    -0.374 OA
ATOM     16  H3  UNL     1      12.557  19.133  17.679  1.00  0.00     0.212 HD
ENDBRANCH   8  15
ENDBRANCH   2   4
BRANCH   1  17
HETATM   17  C3  UNL     1      17.779  17.797  18.434  1.00  0.00     0.301 C 
BRANCH  17  18
HETATM   18  C2  UNL     1      18.099  19.224  18.517  1.00  0.00     0.014 C 
HETATM   19  C1  UNL     1      18.066  20.021  19.767  1.00  0.00     0.065 C 
HETATM   20  N1  UNL     1      18.431  19.832  17.439  1.00  0.00    -0.404 N 
ATOM     21  H12 UNL     1      18.654  20.825  17.496  1.00  0.00     0.155 HD
ATOM     22  H11 UNL     1      18.454  19.284  16.579  1.00  0.00     0.155 HD
ENDBRANCH  17  18
BRANCH  17  23
HETATM   23  N2  UNL     1      18.684  17.094  17.580  1.00  0.00    -0.062 N 
ATOM     24  H23 UNL     1      18.952  17.662  16.777  1.00  0.00     0.275 HD
ATOM     25  H22 UNL     1      19.600  16.990  18.017  1.00  0.00     0.275 HD
ATOM     26  H21 UNL     1      18.309  16.191  17.287  1.00  0.00     0.275 HD
ENDBRANCH  17  23
ENDBRANCH   1  17
BRANCH   1  27
HETATM   27  O1  UNL     1      15.767  16.416  18.667  1.00  0.00    -0.348 OA
ATOM     28  H1  UNL     1      15.954  15.545  18.335  1.00  0.00     0.219 HD
ENDBRANCH   1  27
TORSDOF 7
ENDMDL
MODEL 4
REMARK VINA RESULT: -7.632706762      2.823      6.599
REMARK  7 active torsions:
REMARK  status: ('A' for Active; 'I' for Inactive)
REMARK    1  A    between atoms: C2_2  and  C3_6 
REMARK    2  A    between atoms: C3_6  and  N2_7 
REMARK    3  A    between atoms: C3_6  and  C4_11 
REMARK    4  A    between atoms: C4_11  and  O1_12 
REMARK    5  A    between atoms: N3_14  and  C5_16 
REMARK    6  A    between atoms: N5_18  and  C6_19 
REMARK    7  A    between atoms: C8_26  and  O3_27 
ROOT
HETATM    1  C4  UNL     1      13.260  12.058  14.593  1.00  0.00     0.149 C 
HETATM    2  N3  UNL     1      12.614  13.119  14.255  1.00  0.00    -0.349 N 
ATOM      3  H3  UNL     1      12.494  13.319  13.262  1.00  0.00     0.163 HD
ENDROOT
BRANCH   2   4
HETATM    4  C5  UNL     1      12.058  14.030  15.203  1.00  0.00     0.246 C 
HETATM    5  N4  UNL     1      13.061  14.780  15.934  1.00  0.00    -0.089 NA
HETATM    6  N5  UNL     1      12.526  16.056  16.066  1.00  0.00    -0.171 N 
HETATM    7  N8  UNL     1      11.771  16.290  14.916  1.00  0.00    -0.083 NA
HETATM    8  C8  UNL     1      11.138  15.029  14.587  1.00  0.00     0.273 C 
BRANCH   6   9
HETATM    9  C6  UNL     1      12.717  16.949  17.167  1.00  0.00     0.243 A 
HETATM   10  O2  UNL     1      12.034  17.843  17.805  1.00  0.00    -0.212 OA
HETATM   11  N6  UNL     1      12.978  18.141  18.643  1.00  0.00    -0.241 N 
HETATM   12  C7  UNL     1      13.760  17.216  18.025  1.00  0.00     0.192 A 
ATOM     13  H6  UNL     1      13.087  18.786  19.425  1.00  0.00     0.196 HD
HETATM   14  N7  UNL     1      15.091  16.723  18.183  1.00  0.00    -0.076 NA
ENDBRANCH   6   9
BRANCH   8  15
HETATM   15  O3  UNL     1       9.911  15.007  15.273  1.00  0.00    -0.374 OA
ATOM     16  H3  UNL     1       9.368  15.721  14.960  1.00  0.00     0.212 HD
ENDBRANCH   8  15
ENDBRANCH   2   4
BRANCH   1  17
HETATM   17  C3  UNL     1      13.841  11.109  13.644  1.00  0.00     0.301 C 
BRANCH  17  18
HETATM   18  C2  UNL     1      15.178  10.628  13.999  1.00  0.00     0.014 C 
HETATM   19  C1  UNL     1      15.715   9.294  13.637  1.00  0.00     0.065 C 
HETATM   20  N1  UNL     1      15.943  11.409  14.668  1.00  0.00    -0.404 N 
ATOM     21  H12 UNL     1      16.874  11.075  14.915  1.00  0.00     0.155 HD
ATOM     22  H11 UNL     1      15.574  12.327  14.917  1.00  0.00     0.155 HD
ENDBRANCH  17  18
BRANCH  17  23
HETATM   23  N2  UNL     1      13.796  11.635  12.316  1.00  0.00    -0.062 N 
ATOM     24  H23 UNL     1      14.709  11.580  11.865  1.00  0.00     0.275 HD
ATOM     25  H22 UNL     1      13.271  11.021  11.692  1.00  0.00     0.275 HD
ATOM     26  H21 UNL     1      13.429  12.587  12.295  1.00  0.00     0.275 HD
ENDBRANCH  17  23
ENDBRANCH   1  17
BRANCH   1  27
HETATM   27  O1  UNL     1      13.407  11.812  15.952  1.00  0.00    -0.348 OA
ATOM     28  H1  UNL     1      12.726  12.109  16.543  1.00  0.00     0.219 HD
ENDBRANCH   1  27
TORSDOF 7
ENDMDL
MODEL 5
REMARK VINA RESULT: -7.430930736      2.415      4.333
REMARK  7 active torsions:
REMARK  status: ('A' for Active; 'I' for Inactive)
REMARK    1  A    between atoms: C2_2  and  C3_6 
REMARK    2  A    between atoms: C3_6  and  N2_7 
REMARK    3  A    between atoms: C3_6  and  C4_11 
REMARK    4  A    between atoms: C4_11  and  O1_12 
REMARK    5  A    between atoms: N3_14  and  C5_16 
REMARK    6  A    between atoms: N5_18  and  C6_19 
REMARK    7  A    between atoms: C8_26  and  O3_27 
ROOT
HETATM    1  C4  UNL     1      13.544  16.725  16.561  1.00  0.00     0.149 C 
HETATM    2  N3  UNL     1      12.482  16.085  16.214  1.00  0.00    -0.349 N 
ATOM      3  H3  UNL     1      11.627  16.236  16.749  1.00  0.00     0.163 HD
ENDROOT
BRANCH   2   4
HETATM    4  C5  UNL     1      12.443  15.173  15.115  1.00  0.00     0.246 C 
HETATM    5  N4  UNL     1      13.247  13.986  15.327  1.00  0.00    -0.089 NA
HETATM    6  N5  UNL     1      12.507  12.950  14.770  1.00  0.00    -0.171 N 
HETATM    7  N8  UNL     1      11.164  13.273  14.965  1.00  0.00    -0.083 NA
HETATM    8  C8  UNL     1      11.064  14.707  14.788  1.00  0.00     0.273 C 
BRANCH   6   9
HETATM    9  C6  UNL     1      13.028  11.785  14.123  1.00  0.00     0.243 A 
HETATM   10  O2  UNL     1      12.632  10.585  13.848  1.00  0.00    -0.212 OA
HETATM   11  N6  UNL     1      13.730  10.229  13.257  1.00  0.00    -0.241 N 
HETATM   12  C7  UNL     1      14.219  11.471  13.509  1.00  0.00     0.192 A 
ATOM     13  H6  UNL     1      14.076   9.384  12.801  1.00  0.00     0.196 HD
HETATM   14  N7  UNL     1      15.440  12.167  13.255  1.00  0.00    -0.076 NA
ENDBRANCH   6   9
BRANCH   8  15
HETATM   15  O3  UNL     1      10.819  14.925  13.421  1.00  0.00    -0.374 OA
ATOM     16  H3  UNL     1      10.086  15.522  13.330  1.00  0.00     0.212 HD
ENDBRANCH   8  15
ENDBRANCH   2   4
BRANCH   1  17
HETATM   17  C3  UNL     1      13.612  17.662  17.681  1.00  0.00     0.301 C 
BRANCH  17  18
HETATM   18  C2  UNL     1      14.588  17.310  18.716  1.00  0.00     0.014 C 
HETATM   19  C1  UNL     1      14.263  16.567  19.958  1.00  0.00     0.065 C 
HETATM   20  N1  UNL     1      15.806  17.666  18.543  1.00  0.00    -0.404 N 
ATOM     21  H12 UNL     1      16.486  17.421  19.263  1.00  0.00     0.155 HD
ATOM     22  H11 UNL     1      16.030  18.177  17.689  1.00  0.00     0.155 HD
ENDBRANCH  17  18
BRANCH  17  23
HETATM   23  N2  UNL     1      12.311  17.889  18.227  1.00  0.00    -0.062 N 
ATOM     24  H23 UNL     1      12.333  17.892  19.247  1.00  0.00     0.275 HD
ATOM     25  H22 UNL     1      12.005  18.849  18.069  1.00  0.00     0.275 HD
ATOM     26  H21 UNL     1      11.627  17.219  17.874  1.00  0.00     0.275 HD
ENDBRANCH  17  23
ENDBRANCH   1  17
BRANCH   1  27
HETATM   27  O1  UNL     1      14.692  16.499  15.813  1.00  0.00    -0.348 OA
ATOM     28  H1  UNL     1      14.712  16.795  14.911  1.00  0.00     0.219 HD
ENDBRANCH   1  27
TORSDOF 7
ENDMDL
