MODEL 1
REMARK VINA RESULT: -7.793203927      0.000      0.000
REMARK  7 active torsions:
REMARK  status: ('A' for Active; 'I' for Inactive)
REMARK    1  A    between atoms: C6_6  and  O1_8 
REMARK    2  A    between atoms: O1_8  and  C8_9 
REMARK    3  A    between atoms: C10_12  and  O3_13 
REMARK    4  A    between atoms: O3_13  and  C11_14 
REMARK    5  A    between atoms: C14_18  and  C15_19 
REMARK    6  A    between atoms: C15_19  and  C17_21 
REMARK    7  A    between atoms: C17_21  and  O6_23 
ROOT
HETATM    1  C1  UNL     1      26.879   5.238   6.149  1.00  0.00     0.025 C 
HETATM    2  C2  UNL     1      27.121   6.114   7.103  1.00  0.00     0.008 C 
HETATM    3  C3  UNL     1      27.943   7.288   6.807  1.00  0.00     0.044 C 
HETATM    4  C4  UNL     1      29.429   7.041   6.969  1.00  0.00     0.008 C 
HETATM    5  C5  UNL     1      30.034   8.104   7.804  1.00  0.00     0.041 C 
HETATM    6  C6  UNL     1      30.925   7.745   8.912  1.00  0.00     0.093 C 
HETATM    7  C7  UNL     1      32.371   7.705   8.455  1.00  0.00     0.049 C 
HETATM    8  C10 UNL     1      30.660   6.444   9.628  1.00  0.00     0.169 C 
HETATM    9  C13 UNL     1      29.409   6.497  10.478  1.00  0.00     0.069 C 
HETATM   10  C14 UNL     1      28.369   5.475  10.076  1.00  0.00     0.148 C 
HETATM   11  O7  UNL     1      27.172   6.067   9.623  1.00  0.00    -0.311 OA
HETATM   12  C19 UNL     1      26.520   5.822   8.422  1.00  0.00     0.288 C 
HETATM   13  O8  UNL     1      25.334   5.316   8.440  1.00  0.00    -0.260 OA
ENDROOT
BRANCH  10  14
HETATM   14  C15 UNL     1      27.977   4.580  11.237  1.00  0.00     0.111 C 
HETATM   15  C16 UNL     1      26.653   4.980  11.855  1.00  0.00     0.023 C 
BRANCH  14  16
HETATM   16  C17 UNL     1      27.947   3.160  10.863  1.00  0.00     0.264 C 
HETATM   17  O5  UNL     1      26.891   2.620  10.479  1.00  0.00    -0.265 OA
BRANCH  16  18
HETATM   18  O6  UNL     1      29.097   2.405  10.934  1.00  0.00    -0.326 OA
HETATM   19  C18 UNL     1      29.514   1.703  12.092  1.00  0.00     0.213 C 
ENDBRANCH  16  18
ENDBRANCH  14  16
ENDBRANCH  10  14
BRANCH   8  20
HETATM   20  O3  UNL     1      31.809   6.131  10.439  1.00  0.00    -0.313 OA
BRANCH  20  21
HETATM   21  C11 UNL     1      31.756   5.756  11.747  1.00  0.00     0.255 C 
HETATM   22  C12 UNL     1      31.784   6.831  12.786  1.00  0.00     0.126 C 
HETATM   23  O4  UNL     1      31.686   4.544  12.029  1.00  0.00    -0.266 OA
ENDBRANCH  20  21
ENDBRANCH   8  20
BRANCH   6  24
HETATM   24  O1  UNL     1      30.825   8.739   9.912  1.00  0.00    -0.308 OA
BRANCH  24  25
HETATM   25  C8  UNL     1      31.802   9.634  10.257  1.00  0.00     0.255 C 
HETATM   26  C9  UNL     1      31.714  11.019   9.735  1.00  0.00     0.126 C 
HETATM   27  O2  UNL     1      32.728   9.252  10.994  1.00  0.00    -0.266 OA
ENDBRANCH  24  25
ENDBRANCH   6  24
TORSDOF 7
ENDMDL
MODEL 2
REMARK VINA RESULT: -7.425026878      2.907      6.038
REMARK  7 active torsions:
REMARK  status: ('A' for Active; 'I' for Inactive)
REMARK    1  A    between atoms: C6_6  and  O1_8 
REMARK    2  A    between atoms: O1_8  and  C8_9 
REMARK    3  A    between atoms: C10_12  and  O3_13 
REMARK    4  A    between atoms: O3_13  and  C11_14 
REMARK    5  A    between atoms: C14_18  and  C15_19 
REMARK    6  A    between atoms: C15_19  and  C17_21 
REMARK    7  A    between atoms: C17_21  and  O6_23 
ROOT
HETATM    1  C1  UNL     1      23.437   6.526  13.402  1.00  0.00     0.025 C 
HETATM    2  C2  UNL     1      24.290   5.569  13.095  1.00  0.00     0.008 C 
HETATM    3  C3  UNL     1      25.726   5.815  13.236  1.00  0.00     0.044 C 
HETATM    4  C4  UNL     1      26.352   6.455  12.014  1.00  0.00     0.008 C 
HETATM    5  C5  UNL     1      27.564   5.705  11.612  1.00  0.00     0.041 C 
HETATM    6  C6  UNL     1      27.756   5.324  10.209  1.00  0.00     0.093 C 
HETATM    7  C7  UNL     1      28.536   6.387   9.459  1.00  0.00     0.049 C 
HETATM    8  C10 UNL     1      26.524   5.032   9.389  1.00  0.00     0.169 C 
HETATM    9  C13 UNL     1      25.860   3.732   9.789  1.00  0.00     0.069 C 
HETATM   10  C14 UNL     1      24.434   3.909  10.262  1.00  0.00     0.148 C 
HETATM   11  O7  UNL     1      24.258   3.533  11.610  1.00  0.00    -0.311 OA
HETATM   12  C19 UNL     1      23.701   4.298  12.625  1.00  0.00     0.288 C 
HETATM   13  O8  UNL     1      22.617   3.893  13.196  1.00  0.00    -0.260 OA
ENDROOT
BRANCH  10  14
HETATM   14  C15 UNL     1      23.462   3.060   9.462  1.00  0.00     0.111 C 
HETATM   15  C16 UNL     1      23.076   3.706   8.148  1.00  0.00     0.023 C 
BRANCH  14  16
HETATM   16  C17 UNL     1      23.970   1.702   9.225  1.00  0.00     0.264 C 
HETATM   17  O5  UNL     1      23.907   0.830  10.114  1.00  0.00    -0.265 OA
BRANCH  16  18
HETATM   18  O6  UNL     1      24.527   1.379   8.008  1.00  0.00    -0.326 OA
HETATM   19  C18 UNL     1      24.044   0.349   7.164  1.00  0.00     0.213 C 
ENDBRANCH  16  18
ENDBRANCH  14  16
ENDBRANCH  10  14
BRANCH   8  20
HETATM   20  O3  UNL     1      26.901   5.001   7.999  1.00  0.00    -0.313 OA
BRANCH  20  21
HETATM   21  C11 UNL     1      26.093   5.374   6.968  1.00  0.00     0.255 C 
HETATM   22  C12 UNL     1      25.876   6.837   6.742  1.00  0.00     0.126 C 
HETATM   23  O4  UNL     1      25.569   4.495   6.257  1.00  0.00    -0.266 OA
ENDBRANCH  20  21
ENDBRANCH   8  20
BRANCH   6  24
HETATM   24  O1  UNL     1      28.514   4.132  10.164  1.00  0.00    -0.308 OA
BRANCH  24  25
HETATM   25  C8  UNL     1      29.244   3.604  11.195  1.00  0.00     0.255 C 
HETATM   26  C9  UNL     1      28.703   2.433  11.924  1.00  0.00     0.126 C 
HETATM   27  O2  UNL     1      30.335   4.128  11.484  1.00  0.00    -0.266 OA
ENDBRANCH  24  25
ENDBRANCH   6  24
TORSDOF 7
ENDMDL
MODEL 3
REMARK VINA RESULT: -7.330536765      3.070      5.931
REMARK  7 active torsions:
REMARK  status: ('A' for Active; 'I' for Inactive)
REMARK    1  A    between atoms: C6_6  and  O1_8 
REMARK    2  A    between atoms: O1_8  and  C8_9 
REMARK    3  A    between atoms: C10_12  and  O3_13 
REMARK    4  A    between atoms: O3_13  and  C11_14 
REMARK    5  A    between atoms: C14_18  and  C15_19 
REMARK    6  A    between atoms: C15_19  and  C17_21 
REMARK    7  A    between atoms: C17_21  and  O6_23 
ROOT
HETATM    1  C1  UNL     1      23.188   7.197  13.361  1.00  0.00     0.025 C 
HETATM    2  C2  UNL     1      24.076   6.223  13.352  1.00  0.00     0.008 C 
HETATM    3  C3  UNL     1      25.499   6.548  13.461  1.00  0.00     0.044 C 
HETATM    4  C4  UNL     1      26.153   6.850  12.129  1.00  0.00     0.008 C 
HETATM    5  C5  UNL     1      27.397   6.061  11.982  1.00  0.00     0.041 C 
HETATM    6  C6  UNL     1      27.651   5.319  10.743  1.00  0.00     0.093 C 
HETATM    7  C7  UNL     1      28.430   6.163   9.753  1.00  0.00     0.049 C 
HETATM    8  C10 UNL     1      26.457   4.772  10.000  1.00  0.00     0.169 C 
HETATM    9  C13 UNL     1      25.811   3.608  10.722  1.00  0.00     0.069 C 
HETATM   10  C14 UNL     1      24.365   3.859  11.087  1.00  0.00     0.148 C 
HETATM   11  O7  UNL     1      24.149   3.859  12.481  1.00  0.00    -0.311 OA
HETATM   12  C19 UNL     1      23.536   4.852  13.232  1.00  0.00     0.288 C 
HETATM   13  O8  UNL     1      22.443   4.582  13.861  1.00  0.00    -0.260 OA
ENDROOT
BRANCH  10  14
HETATM   14  C15 UNL     1      23.446   2.791  10.524  1.00  0.00     0.111 C 
HETATM   15  C16 UNL     1      21.984   3.091  10.782  1.00  0.00     0.023 C 
BRANCH  14  16
HETATM   16  C17 UNL     1      23.666   2.563   9.090  1.00  0.00     0.264 C 
HETATM   17  O5  UNL     1      23.216   3.354   8.238  1.00  0.00    -0.265 OA
BRANCH  16  18
HETATM   18  O6  UNL     1      24.378   1.461   8.669  1.00  0.00    -0.326 OA
HETATM   19  C18 UNL     1      24.032   0.675   7.543  1.00  0.00     0.213 C 
ENDBRANCH  16  18
ENDBRANCH  14  16
ENDBRANCH  10  14
BRANCH   8  20
HETATM   20  O3  UNL     1      26.885   4.375   8.683  1.00  0.00    -0.313 OA
BRANCH  20  21
HETATM   21  C11 UNL     1      26.220   4.667   7.531  1.00  0.00     0.255 C 
HETATM   22  C12 UNL     1      25.750   6.073   7.330  1.00  0.00     0.126 C 
HETATM   23  O4  UNL     1      26.028   3.763   6.694  1.00  0.00    -0.266 OA
ENDBRANCH  20  21
ENDBRANCH   8  20
BRANCH   6  24
HETATM   24  O1  UNL     1      28.439   4.186  11.048  1.00  0.00    -0.308 OA
BRANCH  24  25
HETATM   25  C8  UNL     1      29.798   4.176  11.223  1.00  0.00     0.255 C 
HETATM   26  C9  UNL     1      30.503   5.468  11.395  1.00  0.00     0.126 C 
HETATM   27  O2  UNL     1      30.390   3.082  11.230  1.00  0.00    -0.266 OA
ENDBRANCH  24  25
ENDBRANCH   6  24
TORSDOF 7
ENDMDL
MODEL 4
REMARK VINA RESULT: -7.300628183      2.488      5.332
REMARK  7 active torsions:
REMARK  status: ('A' for Active; 'I' for Inactive)
REMARK    1  A    between atoms: C6_6  and  O1_8 
REMARK    2  A    between atoms: O1_8  and  C8_9 
REMARK    3  A    between atoms: C10_12  and  O3_13 
REMARK    4  A    between atoms: O3_13  and  C11_14 
REMARK    5  A    between atoms: C14_18  and  C15_19 
REMARK    6  A    between atoms: C15_19  and  C17_21 
REMARK    7  A    between atoms: C17_21  and  O6_23 
ROOT
HETATM    1  C1  UNL     1      23.490   5.535  12.746  1.00  0.00     0.025 C 
HETATM    2  C2  UNL     1      24.543   4.844  12.358  1.00  0.00     0.008 C 
HETATM    3  C3  UNL     1      25.855   5.157  12.925  1.00  0.00     0.044 C 
HETATM    4  C4  UNL     1      26.587   6.257  12.183  1.00  0.00     0.008 C 
HETATM    5  C5  UNL     1      27.968   5.827  11.867  1.00  0.00     0.041 C 
HETATM    6  C6  UNL     1      28.499   6.006  10.512  1.00  0.00     0.093 C 
HETATM    7  C7  UNL     1      29.210   7.340  10.380  1.00  0.00     0.049 C 
HETATM    8  C10 UNL     1      27.525   5.919   9.364  1.00  0.00     0.169 C 
HETATM    9  C13 UNL     1      27.036   4.506   9.127  1.00  0.00     0.069 C 
HETATM   10  C14 UNL     1      25.537   4.361   9.263  1.00  0.00     0.148 C 
HETATM   11  O7  UNL     1      25.167   3.501  10.318  1.00  0.00    -0.311 OA
HETATM   12  C19 UNL     1      24.294   3.784  11.359  1.00  0.00     0.288 C 
HETATM   13  O8  UNL     1      23.208   3.096  11.474  1.00  0.00    -0.260 OA
ENDROOT
BRANCH  10  14
HETATM   14  C15 UNL     1      24.909   3.775   8.011  1.00  0.00     0.111 C 
HETATM   15  C16 UNL     1      24.708   4.812   6.925  1.00  0.00     0.023 C 
BRANCH  14  16
HETATM   16  C17 UNL     1      25.672   2.636   7.483  1.00  0.00     0.264 C 
HETATM   17  O5  UNL     1      26.603   2.809   6.673  1.00  0.00    -0.265 OA
BRANCH  16  18
HETATM   18  O6  UNL     1      25.361   1.355   7.882  1.00  0.00    -0.326 OA
HETATM   19  C18 UNL     1      24.130   0.714   7.600  1.00  0.00     0.213 C 
ENDBRANCH  16  18
ENDBRANCH  14  16
ENDBRANCH  10  14
BRANCH   8  20
HETATM   20  O3  UNL     1      28.168   6.436   8.183  1.00  0.00    -0.313 OA
BRANCH  20  21
HETATM   21  C11 UNL     1      27.529   6.726   7.016  1.00  0.00     0.255 C 
HETATM   22  C12 UNL     1      28.012   6.057   5.768  1.00  0.00     0.126 C 
HETATM   23  O4  UNL     1      26.577   7.530   7.027  1.00  0.00    -0.266 OA
ENDBRANCH  20  21
ENDBRANCH   8  20
BRANCH   6  24
HETATM   24  O1  UNL     1      29.450   4.992  10.260  1.00  0.00    -0.308 OA
BRANCH  24  25
HETATM   25  C8  UNL     1      30.306   4.446  11.180  1.00  0.00     0.255 C 
HETATM   26  C9  UNL     1      31.433   5.268  11.679  1.00  0.00     0.126 C 
HETATM   27  O2  UNL     1      30.105   3.279  11.562  1.00  0.00    -0.266 OA
ENDBRANCH  24  25
ENDBRANCH   6  24
TORSDOF 7
ENDMDL
MODEL 5
REMARK VINA RESULT: -7.262359554      2.728      5.517
REMARK  7 active torsions:
REMARK  status: ('A' for Active; 'I' for Inactive)
REMARK    1  A    between atoms: C6_6  and  O1_8 
REMARK    2  A    between atoms: O1_8  and  C8_9 
REMARK    3  A    between atoms: C10_12  and  O3_13 
REMARK    4  A    between atoms: O3_13  and  C11_14 
REMARK    5  A    between atoms: C14_18  and  C15_19 
REMARK    6  A    between atoms: C15_19  and  C17_21 
REMARK    7  A    between atoms: C17_21  and  O6_23 
ROOT
HETATM    1  C1  UNL     1      23.932   7.024  13.159  1.00  0.00     0.025 C 
HETATM    2  C2  UNL     1      24.826   6.094  12.894  1.00  0.00     0.008 C 
HETATM    3  C3  UNL     1      26.247   6.388  13.091  1.00  0.00     0.044 C 
HETATM    4  C4  UNL     1      26.901   7.038  11.889  1.00  0.00     0.008 C 
HETATM    5  C5  UNL     1      28.151   6.325  11.541  1.00  0.00     0.041 C 
HETATM    6  C6  UNL     1      28.411   5.940  10.151  1.00  0.00     0.093 C 
HETATM    7  C7  UNL     1      29.186   7.023   9.423  1.00  0.00     0.049 C 
HETATM    8  C10 UNL     1      27.223   5.602   9.285  1.00  0.00     0.169 C 
HETATM    9  C13 UNL     1      26.585   4.284   9.669  1.00  0.00     0.069 C 
HETATM   10  C14 UNL     1      25.137   4.418  10.084  1.00  0.00     0.148 C 
HETATM   11  O7  UNL     1      24.919   4.047  11.427  1.00  0.00    -0.311 OA
HETATM   12  C19 UNL     1      24.298   4.800  12.413  1.00  0.00     0.288 C 
HETATM   13  O8  UNL     1      23.206   4.365  12.944  1.00  0.00    -0.260 OA
ENDROOT
BRANCH  10  14
HETATM   14  C15 UNL     1      24.226   3.532   9.254  1.00  0.00     0.111 C 
HETATM   15  C16 UNL     1      24.807   3.220   7.891  1.00  0.00     0.023 C 
BRANCH  14  16
HETATM   16  C17 UNL     1      23.875   2.285   9.948  1.00  0.00     0.264 C 
HETATM   17  O5  UNL     1      24.660   1.317   9.961  1.00  0.00    -0.265 OA
BRANCH  16  18
HETATM   18  O6  UNL     1      22.664   2.175  10.594  1.00  0.00    -0.326 OA
HETATM   19  C18 UNL     1      21.569   3.049  10.382  1.00  0.00     0.213 C 
ENDBRANCH  16  18
ENDBRANCH  14  16
ENDBRANCH  10  14
BRANCH   8  20
HETATM   20  O3  UNL     1      27.656   5.573   7.911  1.00  0.00    -0.313 OA
BRANCH  20  21
HETATM   21  C11 UNL     1      26.877   5.910   6.846  1.00  0.00     0.255 C 
HETATM   22  C12 UNL     1      26.237   7.262   6.846  1.00  0.00     0.126 C 
HETATM   23  O4  UNL     1      26.727   5.090   5.919  1.00  0.00    -0.266 OA
ENDBRANCH  20  21
ENDBRANCH   8  20
BRANCH   6  24
HETATM   24  O1  UNL     1      29.209   4.773  10.146  1.00  0.00    -0.308 OA
BRANCH  24  25
HETATM   25  C8  UNL     1      30.058   4.376  11.144  1.00  0.00     0.255 C 
HETATM   26  C9  UNL     1      31.187   5.262  11.513  1.00  0.00     0.126 C 
HETATM   27  O2  UNL     1      29.851   3.284  11.704  1.00  0.00    -0.266 OA
ENDBRANCH  24  25
ENDBRANCH   6  24
TORSDOF 7
ENDMDL
