MODEL 1
REMARK VINA RESULT: -9.885223557      0.000      0.000
REMARK  4 active torsions:
REMARK  status: ('A' for Active; 'I' for Inactive)
REMARK    1  A    between atoms: C1_2  and  C2_3 
REMARK       I    between atoms: C1_2  and  N5_16 
REMARK    2  A    between atoms: C2_3  and  S1_4 
REMARK    3  A    between atoms: S1_4  and  C3_5 
REMARK    4  A    between atoms: N4_10  and  C4_11 
ROOT
HETATM    1  O1  UNL     1      26.657   7.025   6.032  1.00  0.00    -0.273 OA
HETATM    2  C1  UNL     1      26.854   6.508   7.156  1.00  0.00     0.229 C 
HETATM    3  N5  UNL     1      27.962   6.853   7.953  1.00  0.00    -0.351 N 
HETATM    4  C9  UNL     1      28.903   7.836   7.466  1.00  0.00     0.131 C 
HETATM    5  C10 UNL     1      30.273   7.312   7.787  1.00  0.00     0.088 C 
HETATM    6  C11 UNL     1      30.460   7.297   9.302  1.00  0.00     0.166 C 
HETATM    7  C12 UNL     1      29.239   6.887  10.050  1.00  0.00     0.088 C 
HETATM    8  C13 UNL     1      28.158   6.247   9.221  1.00  0.00     0.131 C 
HETATM    9  O2  UNL     1      31.541   6.434   9.517  1.00  0.00    -0.355 OA
HETATM   10  C14 UNL     1      31.935   6.325  10.825  1.00  0.00     0.173 C 
HETATM   11  C15 UNL     1      31.911   7.661  11.533  1.00  0.00     0.053 C 
HETATM   12  C16 UNL     1      31.782   8.776  10.523  1.00  0.00     0.173 C 
HETATM   13  O3  UNL     1      30.753   8.616   9.647  1.00  0.00    -0.355 OA
ENDROOT
BRANCH   2  14
HETATM   14  C2  UNL     1      25.892   5.499   7.663  1.00  0.00     0.185 C 
BRANCH  14  15
HETATM   15  S1  UNL     1      26.297   3.832   7.148  1.00  0.00    -0.082 SA
BRANCH  15  16
HETATM   16  C3  UNL     1      25.296   2.622   7.999  1.00  0.00     0.173 A 
HETATM   17  N1  UNL     1      24.669   1.557   7.470  1.00  0.00    -0.265 N 
HETATM   18  N2  UNL     1      24.019   0.889   8.425  1.00  0.00    -0.007 NA
ATOM     19  H1  UNL     1      24.688   1.298   6.484  1.00  0.00     0.186 HD
HETATM   20  N3  UNL     1      24.250   1.554   9.557  1.00  0.00    -0.004 NA
HETATM   21  N4  UNL     1      25.019   2.602   9.315  1.00  0.00    -0.251 N 
BRANCH  21  22
HETATM   22  C4  UNL     1      25.524   3.604  10.240  1.00  0.00     0.108 C 
HETATM   23  C5  UNL     1      26.805   3.112  10.914  1.00  0.00     0.027 C 
HETATM   24  C6  UNL     1      26.936   4.107  12.053  1.00  0.00     0.002 C 
HETATM   25  C7  UNL     1      25.524   4.352  12.505  1.00  0.00     0.002 C 
HETATM   26  C8  UNL     1      24.611   3.828  11.406  1.00  0.00     0.027 C 
ENDBRANCH  21  22
ENDBRANCH  15  16
ENDBRANCH  14  15
ENDBRANCH   2  14
TORSDOF 4
ENDMDL
MODEL 2
REMARK VINA RESULT: -9.416223278      6.720      8.679
REMARK  4 active torsions:
REMARK  status: ('A' for Active; 'I' for Inactive)
REMARK    1  A    between atoms: C1_2  and  C2_3 
REMARK       I    between atoms: C1_2  and  N5_16 
REMARK    2  A    between atoms: C2_3  and  S1_4 
REMARK    3  A    between atoms: S1_4  and  C3_5 
REMARK    4  A    between atoms: N4_10  and  C4_11 
ROOT
HETATM    1  O1  UNL     1      22.796   5.429  15.487  1.00  0.00    -0.273 OA
HETATM    2  C1  UNL     1      23.357   6.134  14.617  1.00  0.00     0.229 C 
HETATM    3  N5  UNL     1      24.106   5.569  13.568  1.00  0.00    -0.351 N 
HETATM    4  C9  UNL     1      24.234   4.132  13.486  1.00  0.00     0.131 C 
HETATM    5  C10 UNL     1      25.669   3.849  13.145  1.00  0.00     0.088 C 
HETATM    6  C11 UNL     1      25.957   4.356  11.734  1.00  0.00     0.166 C 
HETATM    7  C12 UNL     1      25.286   5.648  11.416  1.00  0.00     0.088 C 
HETATM    8  C13 UNL     1      24.731   6.395  12.599  1.00  0.00     0.131 C 
HETATM    9  O2  UNL     1      27.352   4.439  11.666  1.00  0.00    -0.355 OA
HETATM   10  C14 UNL     1      27.843   4.812  10.443  1.00  0.00     0.173 C 
HETATM   11  C15 UNL     1      27.092   4.152   9.308  1.00  0.00     0.053 C 
HETATM   12  C16 UNL     1      26.240   3.026   9.844  1.00  0.00     0.173 C 
HETATM   13  O3  UNL     1      25.437   3.381  10.883  1.00  0.00    -0.355 OA
ENDROOT
BRANCH   2  14
HETATM   14  C2  UNL     1      23.229   7.610  14.694  1.00  0.00     0.185 C 
BRANCH  14  15
HETATM   15  S1  UNL     1      24.703   8.402  15.332  1.00  0.00    -0.082 SA
BRANCH  15  16
HETATM   16  C3  UNL     1      24.896   8.116  17.084  1.00  0.00     0.173 A 
HETATM   17  N1  UNL     1      24.111   7.376  17.886  1.00  0.00    -0.265 N 
HETATM   18  N2  UNL     1      24.580   7.403  19.135  1.00  0.00    -0.007 NA
ATOM     19  H1  UNL     1      23.279   6.869  17.584  1.00  0.00     0.186 HD
HETATM   20  N3  UNL     1      25.668   8.171  19.100  1.00  0.00    -0.004 NA
HETATM   21  N4  UNL     1      25.871   8.608  17.868  1.00  0.00    -0.251 N 
BRANCH  21  22
HETATM   22  C4  UNL     1      26.929   9.467  17.362  1.00  0.00     0.108 C 
HETATM   23  C5  UNL     1      28.255   9.148  18.054  1.00  0.00     0.027 C 
HETATM   24  C6  UNL     1      29.087  10.355  17.661  1.00  0.00     0.002 C 
HETATM   25  C7  UNL     1      28.122  11.506  17.694  1.00  0.00     0.002 C 
HETATM   26  C8  UNL     1      26.722  10.908  17.710  1.00  0.00     0.027 C 
ENDBRANCH  21  22
ENDBRANCH  15  16
ENDBRANCH  14  15
ENDBRANCH   2  14
TORSDOF 4
ENDMDL
MODEL 3
REMARK VINA RESULT: -9.399283420      5.177      6.521
REMARK  4 active torsions:
REMARK  status: ('A' for Active; 'I' for Inactive)
REMARK    1  A    between atoms: C1_2  and  C2_3 
REMARK       I    between atoms: C1_2  and  N5_16 
REMARK    2  A    between atoms: C2_3  and  S1_4 
REMARK    3  A    between atoms: S1_4  and  C3_5 
REMARK    4  A    between atoms: N4_10  and  C4_11 
ROOT
HETATM    1  O1  UNL     1      23.327   3.172  11.555  1.00  0.00    -0.273 OA
HETATM    2  C1  UNL     1      24.059   3.927  12.235  1.00  0.00     0.229 C 
HETATM    3  N5  UNL     1      25.205   4.541  11.694  1.00  0.00    -0.351 N 
HETATM    4  C9  UNL     1      25.552   4.295  10.313  1.00  0.00     0.131 C 
HETATM    5  C10 UNL     1      27.038   4.082  10.276  1.00  0.00     0.088 C 
HETATM    6  C11 UNL     1      27.739   5.389  10.636  1.00  0.00     0.166 C 
HETATM    7  C12 UNL     1      27.056   6.155  11.716  1.00  0.00     0.088 C 
HETATM    8  C13 UNL     1      26.016   5.390  12.490  1.00  0.00     0.131 C 
HETATM    9  O2  UNL     1      29.040   5.008  10.984  1.00  0.00    -0.355 OA
HETATM   10  C14 UNL     1      29.881   6.049  11.280  1.00  0.00     0.173 C 
HETATM   11  C15 UNL     1      29.685   7.216  10.339  1.00  0.00     0.053 C 
HETATM   12  C16 UNL     1      28.863   6.784   9.148  1.00  0.00     0.173 C 
HETATM   13  O3  UNL     1      27.700   6.158   9.474  1.00  0.00    -0.355 OA
ENDROOT
BRANCH   2  14
HETATM   14  C2  UNL     1      23.710   4.185  13.653  1.00  0.00     0.185 C 
BRANCH  14  15
HETATM   15  S1  UNL     1      22.544   5.529  13.849  1.00  0.00    -0.082 SA
BRANCH  15  16
HETATM   16  C3  UNL     1      22.058   5.733  15.556  1.00  0.00     0.173 A 
HETATM   17  N1  UNL     1      20.937   5.290  16.149  1.00  0.00    -0.265 N 
HETATM   18  N2  UNL     1      20.932   5.638  17.437  1.00  0.00    -0.007 NA
ATOM     19  H1  UNL     1      20.197   4.765  15.682  1.00  0.00     0.186 HD
HETATM   20  N3  UNL     1      22.068   6.306  17.638  1.00  0.00    -0.004 NA
HETATM   21  N4  UNL     1      22.758   6.371  16.511  1.00  0.00    -0.251 N 
BRANCH  21  22
HETATM   22  C4  UNL     1      24.046   6.995  16.258  1.00  0.00     0.108 C 
HETATM   23  C5  UNL     1      24.574   7.665  17.527  1.00  0.00     0.027 C 
HETATM   24  C6  UNL     1      25.688   8.527  16.959  1.00  0.00     0.002 C 
HETATM   25  C7  UNL     1      25.154   9.017  15.644  1.00  0.00     0.002 C 
HETATM   26  C8  UNL     1      23.955   8.143  15.301  1.00  0.00     0.027 C 
ENDBRANCH  21  22
ENDBRANCH  15  16
ENDBRANCH  14  15
ENDBRANCH   2  14
TORSDOF 4
ENDMDL
MODEL 4
REMARK VINA RESULT: -9.381041046      6.614      8.292
REMARK  4 active torsions:
REMARK  status: ('A' for Active; 'I' for Inactive)
REMARK    1  A    between atoms: C1_2  and  C2_3 
REMARK       I    between atoms: C1_2  and  N5_16 
REMARK    2  A    between atoms: C2_3  and  S1_4 
REMARK    3  A    between atoms: S1_4  and  C3_5 
REMARK    4  A    between atoms: N4_10  and  C4_11 
ROOT
HETATM    1  O1  UNL     1      22.394   5.579  18.082  1.00  0.00    -0.273 OA
HETATM    2  C1  UNL     1      22.803   6.413  17.242  1.00  0.00     0.229 C 
HETATM    3  N5  UNL     1      23.979   7.160  17.443  1.00  0.00    -0.351 N 
HETATM    4  C9  UNL     1      24.741   6.964  18.655  1.00  0.00     0.131 C 
HETATM    5  C10 UNL     1      25.145   8.329  19.133  1.00  0.00     0.088 C 
HETATM    6  C11 UNL     1      26.130   8.935  18.136  1.00  0.00     0.166 C 
HETATM    7  C12 UNL     1      25.799   8.638  16.714  1.00  0.00     0.088 C 
HETATM    8  C13 UNL     1      24.415   8.099  16.473  1.00  0.00     0.131 C 
HETATM    9  O2  UNL     1      26.119  10.306  18.419  1.00  0.00    -0.355 OA
HETATM   10  C14 UNL     1      26.999  11.050  17.677  1.00  0.00     0.173 C 
HETATM   11  C15 UNL     1      28.328  10.346  17.507  1.00  0.00     0.053 C 
HETATM   12  C16 UNL     1      28.421   9.186  18.470  1.00  0.00     0.173 C 
HETATM   13  O3  UNL     1      27.357   8.340  18.425  1.00  0.00    -0.355 OA
ENDROOT
BRANCH   2  14
HETATM   14  C2  UNL     1      22.026   6.620  15.996  1.00  0.00     0.185 C 
BRANCH  14  15
HETATM   15  S1  UNL     1      22.916   6.110  14.528  1.00  0.00    -0.082 SA
BRANCH  15  16
HETATM   16  C3  UNL     1      22.357   4.518  13.943  1.00  0.00     0.173 A 
HETATM   17  N1  UNL     1      21.350   3.772  14.428  1.00  0.00    -0.265 N 
HETATM   18  N2  UNL     1      21.237   2.643  13.724  1.00  0.00    -0.007 NA
ATOM     19  H1  UNL     1      20.760   4.030  15.218  1.00  0.00     0.186 HD
HETATM   20  N3  UNL     1      22.189   2.697  12.793  1.00  0.00    -0.004 NA
HETATM   21  N4  UNL     1      22.873   3.823  12.913  1.00  0.00    -0.251 N 
BRANCH  21  22
HETATM   22  C4  UNL     1      23.992   4.306  12.121  1.00  0.00     0.108 C 
HETATM   23  C5  UNL     1      24.156   3.462  10.856  1.00  0.00     0.027 C 
HETATM   24  C6  UNL     1      25.539   3.887  10.398  1.00  0.00     0.002 C 
HETATM   25  C7  UNL     1      26.321   4.058  11.669  1.00  0.00     0.002 C 
HETATM   26  C8  UNL     1      25.310   4.119  12.806  1.00  0.00     0.027 C 
ENDBRANCH  21  22
ENDBRANCH  15  16
ENDBRANCH  14  15
ENDBRANCH   2  14
TORSDOF 4
ENDMDL
MODEL 5
REMARK VINA RESULT: -9.166481302      5.821      8.147
REMARK  4 active torsions:
REMARK  status: ('A' for Active; 'I' for Inactive)
REMARK    1  A    between atoms: C1_2  and  C2_3 
REMARK       I    between atoms: C1_2  and  N5_16 
REMARK    2  A    between atoms: C2_3  and  S1_4 
REMARK    3  A    between atoms: S1_4  and  C3_5 
REMARK    4  A    between atoms: N4_10  and  C4_11 
ROOT
HETATM    1  O1  UNL     1      21.342   3.411  12.934  1.00  0.00    -0.273 OA
HETATM    2  C1  UNL     1      22.561   3.693  12.886  1.00  0.00     0.229 C 
HETATM    3  N5  UNL     1      23.299   3.614  11.690  1.00  0.00    -0.351 N 
HETATM    4  C9  UNL     1      22.635   3.195  10.477  1.00  0.00     0.131 C 
HETATM    5  C10 UNL     1      23.567   2.243   9.785  1.00  0.00     0.088 C 
HETATM    6  C11 UNL     1      24.804   3.006   9.318  1.00  0.00     0.166 C 
HETATM    7  C12 UNL     1      25.270   4.037  10.287  1.00  0.00     0.088 C 
HETATM    8  C13 UNL     1      24.680   3.937  11.669  1.00  0.00     0.131 C 
HETATM    9  O2  UNL     1      25.763   2.014   9.082  1.00  0.00    -0.355 OA
HETATM   10  C14 UNL     1      26.951   2.475   8.579  1.00  0.00     0.173 C 
HETATM   11  C15 UNL     1      26.742   3.556   7.542  1.00  0.00     0.053 C 
HETATM   12  C16 UNL     1      25.294   3.587   7.117  1.00  0.00     0.173 C 
HETATM   13  O3  UNL     1      24.413   3.660   8.151  1.00  0.00    -0.355 OA
ENDROOT
BRANCH   2  14
HETATM   14  C2  UNL     1      23.251   4.124  14.127  1.00  0.00     0.185 C 
BRANCH  14  15
HETATM   15  S1  UNL     1      22.960   5.846  14.521  1.00  0.00    -0.082 SA
BRANCH  15  16
HETATM   16  C3  UNL     1      22.259   6.036  16.153  1.00  0.00     0.173 A 
HETATM   17  N1  UNL     1      21.023   5.699  16.559  1.00  0.00    -0.265 N 
HETATM   18  N2  UNL     1      20.870   5.995  17.852  1.00  0.00    -0.007 NA
ATOM     19  H1  UNL     1      20.306   5.280  15.967  1.00  0.00     0.186 HD
HETATM   20  N3  UNL     1      22.030   6.521  18.245  1.00  0.00    -0.004 NA
HETATM   21  N4  UNL     1      22.877   6.552  17.230  1.00  0.00    -0.251 N 
BRANCH  21  22
HETATM   22  C4  UNL     1      24.248   7.036  17.193  1.00  0.00     0.108 C 
HETATM   23  C5  UNL     1      24.648   7.614  18.551  1.00  0.00     0.027 C 
HETATM   24  C6  UNL     1      25.919   8.361  18.187  1.00  0.00     0.002 C 
HETATM   25  C7  UNL     1      25.642   8.937  16.828  1.00  0.00     0.002 C 
HETATM   26  C8  UNL     1      24.423   8.209  16.279  1.00  0.00     0.027 C 
ENDBRANCH  21  22
ENDBRANCH  15  16
ENDBRANCH  14  15
ENDBRANCH   2  14
TORSDOF 4
ENDMDL
