MODEL 1
REMARK VINA RESULT: -8.055893797      0.000      0.000
REMARK  6 active torsions:
REMARK  status: ('A' for Active; 'I' for Inactive)
REMARK    1  A    between atoms: C2_2  and  C3_3 
REMARK    2  A    between atoms: C3_3  and  C5_5 
REMARK    3  A    between atoms: C5_5  and  O2_7 
REMARK    4  A    between atoms: O2_7  and  C6_8 
REMARK    5  A    between atoms: C15_21  and  O6_22 
REMARK    6  A    between atoms: O6_22  and  C16_23 
ROOT
HETATM    1  C6  UNL     1      24.967   5.139  11.334  1.00  0.00     0.193 C 
HETATM    2  C7  UNL     1      24.457   5.750  12.555  1.00  0.00     0.214 C 
HETATM    3  O3  UNL     1      24.918   6.934  12.995  1.00  0.00    -0.343 OA
HETATM    4  C8  UNL     1      24.347   7.044  14.274  1.00  0.00     0.161 C 
HETATM    5  C9  UNL     1      23.060   7.833  14.235  1.00  0.00     0.078 C 
HETATM    6  C10 UNL     1      25.377   7.700  15.159  1.00  0.00     0.078 C 
HETATM    7  O4  UNL     1      24.099   5.757  14.742  1.00  0.00    -0.321 OA
HETATM    8  C11 UNL     1      24.562   4.874  13.799  1.00  0.00     0.323 C 
HETATM    9  O5  UNL     1      23.785   3.769  13.562  1.00  0.00    -0.247 OA
HETATM   10  N1  UNL     1      23.386   3.669  12.324  1.00  0.00    -0.281 N 
HETATM   11  C12 UNL     1      22.035   3.579  12.034  1.00  0.00     0.150 C 
HETATM   12  C13 UNL     1      21.830   2.495  10.965  1.00  0.00     0.024 C 
HETATM   13  C14 UNL     1      22.512   3.054   9.737  1.00  0.00     0.036 C 
HETATM   14  C15 UNL     1      23.981   3.292   9.962  1.00  0.00     0.159 C 
HETATM   15  C18 UNL     1      24.365   3.735  11.305  1.00  0.00     0.170 C 
ENDROOT
BRANCH   1  16
HETATM   16  O2  UNL     1      26.300   5.046  11.065  1.00  0.00    -0.311 OA
BRANCH  16  17
HETATM   17  C5  UNL     1      27.076   5.665  10.143  1.00  0.00     0.263 C 
HETATM   18  O1  UNL     1      26.608   5.574   8.990  1.00  0.00    -0.265 OA
BRANCH  17  19
HETATM   19  C3  UNL     1      28.338   6.383  10.390  1.00  0.00     0.081 C 
HETATM   20  C4  UNL     1      28.964   6.964   9.167  1.00  0.00     0.020 C 
BRANCH  19  21
HETATM   21  C2  UNL     1      29.315   5.455  11.124  1.00  0.00     0.010 C 
HETATM   22  C1  UNL     1      30.526   6.299  11.470  1.00  0.00     0.006 C 
ENDBRANCH  19  21
ENDBRANCH  17  19
ENDBRANCH  16  17
ENDBRANCH   1  16
BRANCH  14  23
HETATM   23  O6  UNL     1      24.634   2.080   9.572  1.00  0.00    -0.314 OA
BRANCH  23  24
HETATM   24  C16 UNL     1      24.766   1.690   8.270  1.00  0.00     0.255 C 
HETATM   25  C17 UNL     1      25.640   2.461   7.313  1.00  0.00     0.126 C 
HETATM   26  O7  UNL     1      24.144   0.667   7.871  1.00  0.00    -0.266 OA
ENDBRANCH  23  24
ENDBRANCH  14  23
TORSDOF 6
ENDMDL
MODEL 2
REMARK VINA RESULT: -7.866352196      2.606      6.336
REMARK  6 active torsions:
REMARK  status: ('A' for Active; 'I' for Inactive)
REMARK    1  A    between atoms: C2_2  and  C3_3 
REMARK    2  A    between atoms: C3_3  and  C5_5 
REMARK    3  A    between atoms: C5_5  and  O2_7 
REMARK    4  A    between atoms: O2_7  and  C6_8 
REMARK    5  A    between atoms: C15_21  and  O6_22 
REMARK    6  A    between atoms: O6_22  and  C16_23 
ROOT
HETATM    1  C6  UNL     1      26.655   5.352   9.353  1.00  0.00     0.193 C 
HETATM    2  C7  UNL     1      25.693   4.386   8.840  1.00  0.00     0.214 C 
HETATM    3  O3  UNL     1      24.764   3.826   9.635  1.00  0.00    -0.343 OA
HETATM    4  C8  UNL     1      24.211   2.822   8.822  1.00  0.00     0.161 C 
HETATM    5  C9  UNL     1      22.967   3.308   8.118  1.00  0.00     0.078 C 
HETATM    6  C10 UNL     1      23.921   1.643   9.719  1.00  0.00     0.078 C 
HETATM    7  O4  UNL     1      25.172   2.454   7.885  1.00  0.00    -0.321 OA
HETATM    8  C11 UNL     1      26.310   3.173   8.152  1.00  0.00     0.323 C 
HETATM    9  O5  UNL     1      27.000   3.651   7.067  1.00  0.00    -0.247 OA
HETATM   10  N1  UNL     1      27.123   4.950   7.060  1.00  0.00    -0.281 N 
HETATM   11  C12 UNL     1      26.675   5.685   5.975  1.00  0.00     0.150 C 
HETATM   12  C13 UNL     1      27.727   6.748   5.629  1.00  0.00     0.024 C 
HETATM   13  C14 UNL     1      27.724   7.674   6.826  1.00  0.00     0.036 C 
HETATM   14  C15 UNL     1      28.103   6.961   8.096  1.00  0.00     0.159 C 
HETATM   15  C18 UNL     1      27.651   5.572   8.215  1.00  0.00     0.170 C 
ENDROOT
BRANCH   1  16
HETATM   16  O2  UNL     1      27.352   5.146  10.507  1.00  0.00    -0.311 OA
BRANCH  16  17
HETATM   17  C5  UNL     1      27.011   4.528  11.664  1.00  0.00     0.263 C 
HETATM   18  O1  UNL     1      27.503   3.385  11.754  1.00  0.00    -0.265 OA
BRANCH  17  19
HETATM   19  C3  UNL     1      26.165   5.072  12.739  1.00  0.00     0.081 C 
HETATM   20  C4  UNL     1      24.912   4.301  12.984  1.00  0.00     0.020 C 
BRANCH  19  21
HETATM   21  C2  UNL     1      25.858   6.547  12.448  1.00  0.00     0.010 C 
HETATM   22  C1  UNL     1      25.329   7.135  13.740  1.00  0.00     0.006 C 
ENDBRANCH  19  21
ENDBRANCH  17  19
ENDBRANCH  16  17
ENDBRANCH   1  16
BRANCH  14  23
HETATM   23  O6  UNL     1      29.524   7.090   8.204  1.00  0.00    -0.314 OA
BRANCH  23  24
HETATM   24  C16 UNL     1      30.167   7.261   9.397  1.00  0.00     0.255 C 
HETATM   25  C17 UNL     1      31.665   7.121   9.499  1.00  0.00     0.126 C 
HETATM   26  O7  UNL     1      29.489   7.542  10.424  1.00  0.00    -0.266 OA
ENDBRANCH  23  24
ENDBRANCH  14  23
TORSDOF 6
ENDMDL
MODEL 3
REMARK VINA RESULT: -7.852501566      0.974      1.583
REMARK  6 active torsions:
REMARK  status: ('A' for Active; 'I' for Inactive)
REMARK    1  A    between atoms: C2_2  and  C3_3 
REMARK    2  A    between atoms: C3_3  and  C5_5 
REMARK    3  A    between atoms: C5_5  and  O2_7 
REMARK    4  A    between atoms: O2_7  and  C6_8 
REMARK    5  A    between atoms: C15_21  and  O6_22 
REMARK    6  A    between atoms: O6_22  and  C16_23 
ROOT
HETATM    1  C6  UNL     1      24.983   5.080  11.333  1.00  0.00     0.193 C 
HETATM    2  C7  UNL     1      24.463   5.702  12.544  1.00  0.00     0.214 C 
HETATM    3  O3  UNL     1      24.944   6.874  12.996  1.00  0.00    -0.343 OA
HETATM    4  C8  UNL     1      24.348   6.996  14.263  1.00  0.00     0.161 C 
HETATM    5  C9  UNL     1      23.082   7.816  14.198  1.00  0.00     0.078 C 
HETATM    6  C10 UNL     1      25.375   7.626  15.171  1.00  0.00     0.078 C 
HETATM    7  O4  UNL     1      24.059   5.715  14.723  1.00  0.00    -0.321 OA
HETATM    8  C11 UNL     1      24.520   4.823  13.788  1.00  0.00     0.323 C 
HETATM    9  O5  UNL     1      23.722   3.737  13.533  1.00  0.00    -0.247 OA
HETATM   10  N1  UNL     1      23.346   3.648  12.287  1.00  0.00    -0.281 N 
HETATM   11  C12 UNL     1      22.000   3.591  11.968  1.00  0.00     0.150 C 
HETATM   12  C13 UNL     1      21.791   2.514  10.893  1.00  0.00     0.024 C 
HETATM   13  C14 UNL     1      22.513   3.058   9.681  1.00  0.00     0.036 C 
HETATM   14  C15 UNL     1      23.982   3.260   9.937  1.00  0.00     0.159 C 
HETATM   15  C18 UNL     1      24.348   3.692  11.289  1.00  0.00     0.170 C 
ENDROOT
BRANCH   1  16
HETATM   16  O2  UNL     1      26.319   4.955  11.092  1.00  0.00    -0.311 OA
BRANCH  16  17
HETATM   17  C5  UNL     1      27.200   5.773  10.466  1.00  0.00     0.263 C 
HETATM   18  O1  UNL     1      27.759   6.561  11.255  1.00  0.00    -0.265 OA
BRANCH  17  19
HETATM   19  C3  UNL     1      27.517   5.794   9.028  1.00  0.00     0.081 C 
HETATM   20  C4  UNL     1      28.486   6.855   8.628  1.00  0.00     0.020 C 
BRANCH  19  21
HETATM   21  C2  UNL     1      26.216   5.899   8.222  1.00  0.00     0.010 C 
HETATM   22  C1  UNL     1      26.505   6.836   7.066  1.00  0.00     0.006 C 
ENDBRANCH  19  21
ENDBRANCH  17  19
ENDBRANCH  16  17
ENDBRANCH   1  16
BRANCH  14  23
HETATM   23  O6  UNL     1      24.613   2.033   9.559  1.00  0.00    -0.314 OA
BRANCH  23  24
HETATM   24  C16 UNL     1      24.758   1.639   8.259  1.00  0.00     0.255 C 
HETATM   25  C17 UNL     1      25.657   2.395   7.314  1.00  0.00     0.126 C 
HETATM   26  O7  UNL     1      24.126   0.624   7.853  1.00  0.00    -0.266 OA
ENDBRANCH  23  24
ENDBRANCH  14  23
TORSDOF 6
ENDMDL
MODEL 4
REMARK VINA RESULT: -7.835493299      3.398      6.349
REMARK  6 active torsions:
REMARK  status: ('A' for Active; 'I' for Inactive)
REMARK    1  A    between atoms: C2_2  and  C3_3 
REMARK    2  A    between atoms: C3_3  and  C5_5 
REMARK    3  A    between atoms: C5_5  and  O2_7 
REMARK    4  A    between atoms: O2_7  and  C6_8 
REMARK    5  A    between atoms: C15_21  and  O6_22 
REMARK    6  A    between atoms: O6_22  and  C16_23 
ROOT
HETATM    1  C6  UNL     1      26.798   5.394   9.347  1.00  0.00     0.193 C 
HETATM    2  C7  UNL     1      25.794   4.456   8.861  1.00  0.00     0.214 C 
HETATM    3  O3  UNL     1      24.928   3.856   9.696  1.00  0.00    -0.343 OA
HETATM    4  C8  UNL     1      24.309   2.895   8.877  1.00  0.00     0.161 C 
HETATM    5  C9  UNL     1      23.016   3.418   8.299  1.00  0.00     0.078 C 
HETATM    6  C10 UNL     1      24.085   1.672   9.731  1.00  0.00     0.078 C 
HETATM    7  O4  UNL     1      25.192   2.577   7.851  1.00  0.00    -0.321 OA
HETATM    8  C11 UNL     1      26.351   3.280   8.065  1.00  0.00     0.323 C 
HETATM    9  O5  UNL     1      26.957   3.815   6.956  1.00  0.00    -0.247 OA
HETATM   10  N1  UNL     1      27.084   5.112   7.007  1.00  0.00    -0.281 N 
HETATM   11  C12 UNL     1      26.556   5.903   6.000  1.00  0.00     0.150 C 
HETATM   12  C13 UNL     1      27.583   6.982   5.629  1.00  0.00     0.024 C 
HETATM   13  C14 UNL     1      27.678   7.844   6.869  1.00  0.00     0.036 C 
HETATM   14  C15 UNL     1      28.151   7.066   8.066  1.00  0.00     0.159 C 
HETATM   15  C18 UNL     1      27.703   5.672   8.149  1.00  0.00     0.170 C 
ENDROOT
BRANCH   1  16
HETATM   16  O2  UNL     1      27.582   5.127  10.431  1.00  0.00    -0.311 OA
BRANCH  16  17
HETATM   17  C5  UNL     1      27.760   3.995  11.154  1.00  0.00     0.263 C 
HETATM   18  O1  UNL     1      27.029   3.956  12.164  1.00  0.00    -0.265 OA
BRANCH  17  19
HETATM   19  C3  UNL     1      28.688   2.892  10.852  1.00  0.00     0.081 C 
HETATM   20  C4  UNL     1      28.149   1.535  11.155  1.00  0.00     0.020 C 
BRANCH  19  21
HETATM   21  C2  UNL     1      30.018   3.134  11.577  1.00  0.00     0.010 C 
HETATM   22  C1  UNL     1      30.335   1.854  12.324  1.00  0.00     0.006 C 
ENDBRANCH  19  21
ENDBRANCH  17  19
ENDBRANCH  16  17
ENDBRANCH   1  16
BRANCH  14  23
HETATM   23  O6  UNL     1      29.576   7.189   8.071  1.00  0.00    -0.314 OA
BRANCH  23  24
HETATM   24  C16 UNL     1      30.276   7.704   9.124  1.00  0.00     0.255 C 
HETATM   25  C17 UNL     1      30.246   7.038  10.477  1.00  0.00     0.126 C 
HETATM   26  O7  UNL     1      30.956   8.754   8.953  1.00  0.00    -0.266 OA
ENDBRANCH  23  24
ENDBRANCH  14  23
TORSDOF 6
ENDMDL
MODEL 5
REMARK VINA RESULT: -7.790256274      2.429      5.471
REMARK  6 active torsions:
REMARK  status: ('A' for Active; 'I' for Inactive)
REMARK    1  A    between atoms: C2_2  and  C3_3 
REMARK    2  A    between atoms: C3_3  and  C5_5 
REMARK    3  A    between atoms: C5_5  and  O2_7 
REMARK    4  A    between atoms: O2_7  and  C6_8 
REMARK    5  A    between atoms: C15_21  and  O6_22 
REMARK    6  A    between atoms: O6_22  and  C16_23 
ROOT
HETATM    1  C6  UNL     1      24.817   6.041  12.194  1.00  0.00     0.193 C 
HETATM    2  C7  UNL     1      23.969   4.896  12.504  1.00  0.00     0.214 C 
HETATM    3  O3  UNL     1      22.656   5.039  12.755  1.00  0.00    -0.343 OA
HETATM    4  C8  UNL     1      22.278   3.766  13.214  1.00  0.00     0.161 C 
HETATM    5  C9  UNL     1      21.726   2.919  12.092  1.00  0.00     0.078 C 
HETATM    6  C10 UNL     1      21.260   3.979  14.306  1.00  0.00     0.078 C 
HETATM    7  O4  UNL     1      23.405   3.156  13.756  1.00  0.00    -0.321 OA
HETATM    8  C11 UNL     1      24.440   4.056  13.686  1.00  0.00     0.323 C 
HETATM    9  O5  UNL     1      25.667   3.551  13.340  1.00  0.00    -0.247 OA
HETATM   10  N1  UNL     1      26.164   4.086  12.260  1.00  0.00    -0.281 N 
HETATM   11  C12 UNL     1      26.526   3.286  11.189  1.00  0.00     0.150 C 
HETATM   12  C13 UNL     1      27.882   3.764  10.650  1.00  0.00     0.024 C 
HETATM   13  C14 UNL     1      27.594   5.142  10.098  1.00  0.00     0.036 C 
HETATM   14  C15 UNL     1      27.095   6.086  11.158  1.00  0.00     0.159 C 
HETATM   15  C18 UNL     1      26.244   5.497  12.197  1.00  0.00     0.170 C 
ENDROOT
BRANCH   1  16
HETATM   16  O2  UNL     1      24.788   7.190  12.927  1.00  0.00    -0.311 OA
BRANCH  16  17
HETATM   17  C5  UNL     1      24.095   7.527  14.042  1.00  0.00     0.263 C 
HETATM   18  O1  UNL     1      22.935   7.908  13.783  1.00  0.00    -0.265 OA
BRANCH  17  19
HETATM   19  C3  UNL     1      24.581   7.479  15.432  1.00  0.00     0.081 C 
HETATM   20  C4  UNL     1      23.578   6.979  16.416  1.00  0.00     0.020 C 
BRANCH  19  21
HETATM   21  C2  UNL     1      25.109   8.862  15.834  1.00  0.00     0.010 C 
HETATM   22  C1  UNL     1      25.431   8.782  17.313  1.00  0.00     0.006 C 
ENDBRANCH  19  21
ENDBRANCH  17  19
ENDBRANCH  16  17
ENDBRANCH   1  16
BRANCH  14  23
HETATM   23  O6  UNL     1      28.260   6.721  11.692  1.00  0.00    -0.314 OA
BRANCH  23  24
HETATM   24  C16 UNL     1      29.395   6.930  10.963  1.00  0.00     0.255 C 
HETATM   25  C17 UNL     1      30.707   6.310  11.374  1.00  0.00     0.126 C 
HETATM   26  O7  UNL     1      29.336   7.653   9.930  1.00  0.00    -0.266 OA
ENDBRANCH  23  24
ENDBRANCH  14  23
TORSDOF 6
ENDMDL
