MODEL 1
REMARK VINA RESULT: -8.448906216      0.000      0.000
REMARK  6 active torsions:
REMARK  status: ('A' for Active; 'I' for Inactive)
REMARK    1  A    between atoms: C2_2  and  N1_3 
REMARK    2  A    between atoms: C4_7  and  O1_8 
REMARK    3  A    between atoms: C4_7  and  O2_10 
REMARK    4  A    between atoms: N3_12  and  C6_13 
REMARK       I    between atoms: N4_16  and  C9_17 
REMARK    5  A    between atoms: C9_17  and  O4_19 
REMARK    6  A    between atoms: O4_19  and  C10_20 
ROOT
HETATM    1  N1  UNL     1      22.784   3.846  12.017  1.00  0.00    -0.273 N 
HETATM    2  N2  UNL     1      23.131   3.113  10.891  1.00  0.00    -0.277 N 
ATOM      3  H2  UNL     1      22.490   2.490  10.399  1.00  0.00     0.189 HD
HETATM    4  C3  UNL     1      24.374   3.312  10.533  1.00  0.00     0.183 A 
HETATM    5  C4  UNL     1      24.964   2.656   9.388  1.00  0.00     0.225 C 
HETATM    6  N3  UNL     1      24.921   4.239  11.462  1.00  0.00    -0.306 N 
HETATM    7  C15 UNL     1      23.899   4.602  12.435  1.00  0.00     0.158 A 
HETATM    8  C16 UNL     1      23.898   5.457  13.390  1.00  0.00     0.170 C 
HETATM    9  C17 UNL     1      22.682   5.785  14.204  1.00  0.00     0.115 C 
HETATM   10  N5  UNL     1      21.760   6.103  14.867  1.00  0.00    -0.190 NA
HETATM   11  C18 UNL     1      24.970   6.279  13.934  1.00  0.00     0.115 C 
HETATM   12  N6  UNL     1      25.801   6.962  14.413  1.00  0.00    -0.190 NA
ENDROOT
BRANCH   1  13
HETATM   13  C2  UNL     1      21.456   3.650  12.600  1.00  0.00     0.146 C 
HETATM   14  C1  UNL     1      21.485   2.560  13.645  1.00  0.00     0.028 C 
ENDBRANCH   1  13
BRANCH   6  15
HETATM   15  C6  UNL     1      26.237   4.745  11.460  1.00  0.00     0.096 C 
HETATM   16  C7  UNL     1      26.665   5.597  10.290  1.00  0.00     0.045 C 
HETATM   17  C8  UNL     1      27.889   6.401  10.838  1.00  0.00     0.130 C 
HETATM   18  N4  UNL     1      28.923   5.416  10.986  1.00  0.00    -0.328 N 
HETATM   19  C9  UNL     1      30.295   5.813  11.114  1.00  0.00     0.363 C 
HETATM   20  C13 UNL     1      28.620   4.022  10.993  1.00  0.00     0.130 C 
HETATM   21  O3  UNL     1      31.211   4.964  11.248  1.00  0.00    -0.238 OA
HETATM   22  C14 UNL     1      27.340   3.711  11.672  1.00  0.00     0.045 C 
BRANCH  19  23
HETATM   23  O4  UNL     1      30.679   7.144  11.096  1.00  0.00    -0.299 OA
BRANCH  23  24
HETATM   24  C10 UNL     1      31.496   7.706  10.089  1.00  0.00     0.125 C 
HETATM   25  C11 UNL     1      30.744   7.777   8.759  1.00  0.00     0.040 C 
HETATM   26  C12 UNL     1      31.982   9.089  10.398  1.00  0.00     0.040 C 
ENDBRANCH  23  24
ENDBRANCH  19  23
ENDBRANCH   6  15
BRANCH   5  27
HETATM   27  O1  UNL     1      24.131   1.856   8.755  1.00  0.00    -0.338 OA
ATOM     28  H1  UNL     1      24.505   1.008   8.545  1.00  0.00     0.220 HD
ENDBRANCH   5  27
BRANCH   5  29
HETATM   29  O2  UNL     1      26.175   2.688   8.834  1.00  0.00    -0.333 OA
HETATM   30  C5  UNL     1      26.506   3.089   7.524  1.00  0.00     0.212 C 
ENDBRANCH   5  29
TORSDOF 6
ENDMDL
MODEL 2
REMARK VINA RESULT: -7.280928052      2.900      4.312
REMARK  6 active torsions:
REMARK  status: ('A' for Active; 'I' for Inactive)
REMARK    1  A    between atoms: C2_2  and  N1_3 
REMARK    2  A    between atoms: C4_7  and  O1_8 
REMARK    3  A    between atoms: C4_7  and  O2_10 
REMARK    4  A    between atoms: N3_12  and  C6_13 
REMARK       I    between atoms: N4_16  and  C9_17 
REMARK    5  A    between atoms: C9_17  and  O4_19 
REMARK    6  A    between atoms: O4_19  and  C10_20 
ROOT
HETATM    1  N1  UNL     1      22.062   5.956  16.806  1.00  0.00    -0.273 N 
HETATM    2  N2  UNL     1      21.372   5.308  15.792  1.00  0.00    -0.277 N 
ATOM      3  H2  UNL     1      20.409   4.982  15.877  1.00  0.00     0.189 HD
HETATM    4  C3  UNL     1      22.098   5.161  14.712  1.00  0.00     0.183 A 
HETATM    5  C4  UNL     1      21.594   4.513  13.522  1.00  0.00     0.225 C 
HETATM    6  N3  UNL     1      23.364   5.745  14.992  1.00  0.00    -0.306 N 
HETATM    7  C15 UNL     1      23.359   6.271  16.351  1.00  0.00     0.158 A 
HETATM    8  C16 UNL     1      24.227   6.952  17.003  1.00  0.00     0.170 C 
HETATM    9  C17 UNL     1      23.974   7.526  18.365  1.00  0.00     0.115 C 
HETATM   10  N5  UNL     1      23.832   8.022  19.426  1.00  0.00    -0.190 NA
HETATM   11  C18 UNL     1      25.594   7.326  16.666  1.00  0.00     0.115 C 
HETATM   12  N6  UNL     1      26.704   7.652  16.444  1.00  0.00    -0.190 NA
ENDROOT
BRANCH   1  13
HETATM   13  C2  UNL     1      21.417   6.101  18.111  1.00  0.00     0.146 C 
HETATM   14  C1  UNL     1      20.069   6.767  17.972  1.00  0.00     0.028 C 
ENDBRANCH   1  13
BRANCH   6  15
HETATM   15  C6  UNL     1      24.463   5.819  14.111  1.00  0.00     0.096 C 
HETATM   16  C7  UNL     1      24.354   6.739  12.920  1.00  0.00     0.045 C 
HETATM   17  C8  UNL     1      25.839   6.995  12.505  1.00  0.00     0.130 C 
HETATM   18  N4  UNL     1      26.279   5.738  11.971  1.00  0.00    -0.328 N 
HETATM   19  C9  UNL     1      27.456   5.665  11.154  1.00  0.00     0.363 C 
HETATM   20  C13 UNL     1      25.555   4.534  12.220  1.00  0.00     0.130 C 
HETATM   21  O3  UNL     1      27.857   4.572  10.683  1.00  0.00    -0.238 OA
HETATM   22  C14 UNL     1      24.972   4.481  13.582  1.00  0.00     0.045 C 
BRANCH  19  23
HETATM   23  O4  UNL     1      28.207   6.788  10.846  1.00  0.00    -0.299 OA
BRANCH  23  24
HETATM   24  C10 UNL     1      29.340   6.760  10.001  1.00  0.00     0.125 C 
HETATM   25  C11 UNL     1      28.978   7.234   8.594  1.00  0.00     0.040 C 
HETATM   26  C12 UNL     1      30.476   7.611  10.477  1.00  0.00     0.040 C 
ENDBRANCH  23  24
ENDBRANCH  19  23
ENDBRANCH   6  15
BRANCH   5  27
HETATM   27  O1  UNL     1      20.349   4.098  13.638  1.00  0.00    -0.338 OA
ATOM     28  H1  UNL     1      20.115   3.846  14.524  1.00  0.00     0.220 HD
ENDBRANCH   5  27
BRANCH   5  29
HETATM   29  O2  UNL     1      22.122   4.245  12.329  1.00  0.00    -0.333 OA
HETATM   30  C5  UNL     1      21.973   3.065  11.573  1.00  0.00     0.212 C 
ENDBRANCH   5  29
TORSDOF 6
ENDMDL
MODEL 3
REMARK VINA RESULT: -6.735140260      1.053      1.628
REMARK  6 active torsions:
REMARK  status: ('A' for Active; 'I' for Inactive)
REMARK    1  A    between atoms: C2_2  and  N1_3 
REMARK    2  A    between atoms: C4_7  and  O1_8 
REMARK    3  A    between atoms: C4_7  and  O2_10 
REMARK    4  A    between atoms: N3_12  and  C6_13 
REMARK       I    between atoms: N4_16  and  C9_17 
REMARK    5  A    between atoms: C9_17  and  O4_19 
REMARK    6  A    between atoms: O4_19  and  C10_20 
ROOT
HETATM    1  N1  UNL     1      22.880   3.443  11.616  1.00  0.00    -0.273 N 
HETATM    2  N2  UNL     1      23.125   2.557  10.576  1.00  0.00    -0.277 N 
ATOM      3  H2  UNL     1      22.462   1.846  10.267  1.00  0.00     0.189 HD
HETATM    4  C3  UNL     1      24.304   2.738  10.036  1.00  0.00     0.183 A 
HETATM    5  C4  UNL     1      24.783   1.934   8.935  1.00  0.00     0.225 C 
HETATM    6  N3  UNL     1      24.911   3.814  10.740  1.00  0.00    -0.306 N 
HETATM    7  C15 UNL     1      23.998   4.289  11.771  1.00  0.00     0.158 A 
HETATM    8  C16 UNL     1      24.069   5.280  12.580  1.00  0.00     0.170 C 
HETATM    9  C17 UNL     1      22.946   5.690  13.486  1.00  0.00     0.115 C 
HETATM   10  N5  UNL     1      22.096   6.077  14.206  1.00  0.00    -0.190 NA
HETATM   11  C18 UNL     1      25.156   6.210  12.855  1.00  0.00     0.115 C 
HETATM   12  N6  UNL     1      26.003   6.985  13.118  1.00  0.00    -0.190 NA
ENDROOT
BRANCH   1  13
HETATM   13  C2  UNL     1      21.645   3.296  12.386  1.00  0.00     0.146 C 
HETATM   14  C1  UNL     1      21.848   2.359  13.552  1.00  0.00     0.028 C 
ENDBRANCH   1  13
BRANCH   6  15
HETATM   15  C6  UNL     1      26.190   4.356  10.494  1.00  0.00     0.096 C 
HETATM   16  C7  UNL     1      27.132   4.504  11.663  1.00  0.00     0.045 C 
HETATM   17  C8  UNL     1      28.545   4.589  10.999  1.00  0.00     0.130 C 
HETATM   18  N4  UNL     1      28.553   5.866  10.344  1.00  0.00    -0.328 N 
HETATM   19  C9  UNL     1      29.788   6.469   9.935  1.00  0.00     0.363 C 
HETATM   20  C13 UNL     1      27.341   6.577  10.096  1.00  0.00     0.130 C 
HETATM   21  O3  UNL     1      29.812   7.583   9.357  1.00  0.00    -0.238 OA
HETATM   22  C14 UNL     1      26.208   5.687   9.748  1.00  0.00     0.045 C 
BRANCH  19  23
HETATM   23  O4  UNL     1      31.012   5.857  10.155  1.00  0.00    -0.299 OA
BRANCH  23  24
HETATM   24  C10 UNL     1      31.981   6.354  11.056  1.00  0.00     0.125 C 
HETATM   25  C11 UNL     1      32.644   7.613  10.497  1.00  0.00     0.040 C 
HETATM   26  C12 UNL     1      31.438   6.701  12.407  1.00  0.00     0.040 C 
ENDBRANCH  23  24
ENDBRANCH  19  23
ENDBRANCH   6  15
BRANCH   5  27
HETATM   27  O1  UNL     1      23.920   1.019   8.539  1.00  0.00    -0.338 OA
ATOM     28  H1  UNL     1      23.517   1.216   7.702  1.00  0.00     0.220 HD
ENDBRANCH   5  27
BRANCH   5  29
HETATM   29  O2  UNL     1      25.914   1.919   8.233  1.00  0.00    -0.333 OA
HETATM   30  C5  UNL     1      26.238   2.716   7.116  1.00  0.00     0.212 C 
ENDBRANCH   5  29
TORSDOF 6
ENDMDL
MODEL 4
REMARK VINA RESULT: -6.682405587      3.284      6.060
REMARK  6 active torsions:
REMARK  status: ('A' for Active; 'I' for Inactive)
REMARK    1  A    between atoms: C2_2  and  N1_3 
REMARK    2  A    between atoms: C4_7  and  O1_8 
REMARK    3  A    between atoms: C4_7  and  O2_10 
REMARK    4  A    between atoms: N3_12  and  C6_13 
REMARK       I    between atoms: N4_16  and  C9_17 
REMARK    5  A    between atoms: C9_17  and  O4_19 
REMARK    6  A    between atoms: O4_19  and  C10_20 
ROOT
HETATM    1  N1  UNL     1      24.248   3.169   9.283  1.00  0.00    -0.273 N 
HETATM    2  N2  UNL     1      23.200   2.773  10.101  1.00  0.00    -0.277 N 
ATOM      3  H2  UNL     1      22.512   2.067   9.841  1.00  0.00     0.189 HD
HETATM    4  C3  UNL     1      23.195   3.410  11.246  1.00  0.00     0.183 A 
HETATM    5  C4  UNL     1      22.197   3.167  12.262  1.00  0.00     0.225 C 
HETATM    6  N3  UNL     1      24.306   4.297  11.221  1.00  0.00    -0.306 N 
HETATM    7  C15 UNL     1      25.007   4.153   9.952  1.00  0.00     0.158 A 
HETATM    8  C16 UNL     1      26.097   4.668   9.518  1.00  0.00     0.170 C 
HETATM    9  C17 UNL     1      26.734   4.281   8.217  1.00  0.00     0.115 C 
HETATM   10  N5  UNL     1      27.297   4.007   7.217  1.00  0.00    -0.190 NA
HETATM   11  C18 UNL     1      26.959   5.695  10.087  1.00  0.00     0.115 C 
HETATM   12  N6  UNL     1      27.687   6.522  10.502  1.00  0.00    -0.190 NA
ENDROOT
BRANCH   1  13
HETATM   13  C2  UNL     1      24.326   2.621   7.929  1.00  0.00     0.146 C 
HETATM   14  C1  UNL     1      24.378   1.112   7.963  1.00  0.00     0.028 C 
ENDBRANCH   1  13
BRANCH   6  15
HETATM   15  C6  UNL     1      24.691   5.181  12.250  1.00  0.00     0.096 C 
HETATM   16  C7  UNL     1      24.686   4.662  13.667  1.00  0.00     0.045 C 
HETATM   17  C8  UNL     1      25.637   5.640  14.430  1.00  0.00     0.130 C 
HETATM   18  N4  UNL     1      24.909   6.877  14.478  1.00  0.00    -0.328 N 
HETATM   19  C9  UNL     1      25.281   7.907  15.404  1.00  0.00     0.363 C 
HETATM   20  C13 UNL     1      23.791   7.110  13.623  1.00  0.00     0.130 C 
HETATM   21  O3  UNL     1      24.657   8.995  15.456  1.00  0.00    -0.238 OA
HETATM   22  C14 UNL     1      23.960   6.521  12.274  1.00  0.00     0.045 C 
BRANCH  19  23
HETATM   23  O4  UNL     1      26.341   7.755  16.284  1.00  0.00    -0.299 OA
BRANCH  23  24
HETATM   24  C10 UNL     1      26.465   8.484  17.488  1.00  0.00     0.125 C 
HETATM   25  C11 UNL     1      25.487   7.961  18.541  1.00  0.00     0.040 C 
HETATM   26  C12 UNL     1      27.834   8.436  18.093  1.00  0.00     0.040 C 
ENDBRANCH  23  24
ENDBRANCH  19  23
ENDBRANCH   6  15
BRANCH   5  27
HETATM   27  O1  UNL     1      21.313   2.251  11.921  1.00  0.00    -0.338 OA
ATOM     28  H1  UNL     1      21.705   1.446  11.605  1.00  0.00     0.220 HD
ENDBRANCH   5  27
BRANCH   5  29
HETATM   29  O2  UNL     1      21.979   3.674  13.475  1.00  0.00    -0.333 OA
HETATM   30  C5  UNL     1      20.994   4.611  13.845  1.00  0.00     0.212 C 
ENDBRANCH   5  29
TORSDOF 6
ENDMDL
MODEL 5
REMARK VINA RESULT: -6.667031733      2.206      4.060
REMARK  6 active torsions:
REMARK  status: ('A' for Active; 'I' for Inactive)
REMARK    1  A    between atoms: C2_2  and  N1_3 
REMARK    2  A    between atoms: C4_7  and  O1_8 
REMARK    3  A    between atoms: C4_7  and  O2_10 
REMARK    4  A    between atoms: N3_12  and  C6_13 
REMARK       I    between atoms: N4_16  and  C9_17 
REMARK    5  A    between atoms: C9_17  and  O4_19 
REMARK    6  A    between atoms: O4_19  and  C10_20 
ROOT
HETATM    1  N1  UNL     1      23.370   3.694  11.208  1.00  0.00    -0.273 N 
HETATM    2  N2  UNL     1      23.263   4.432  12.378  1.00  0.00    -0.277 N 
ATOM      3  H2  UNL     1      22.416   4.481  12.944  1.00  0.00     0.189 HD
HETATM    4  C3  UNL     1      24.374   5.060  12.673  1.00  0.00     0.183 A 
HETATM    5  C4  UNL     1      24.504   5.894  13.847  1.00  0.00     0.225 C 
HETATM    6  N3  UNL     1      25.307   4.736  11.649  1.00  0.00    -0.306 N 
HETATM    7  C15 UNL     1      24.673   3.845  10.687  1.00  0.00     0.158 A 
HETATM    8  C16 UNL     1      25.137   3.227   9.665  1.00  0.00     0.170 C 
HETATM    9  C17 UNL     1      24.346   2.231   8.871  1.00  0.00     0.115 C 
HETATM   10  N5  UNL     1      23.785   1.424   8.218  1.00  0.00    -0.190 NA
HETATM   11  C18 UNL     1      26.438   3.304   9.015  1.00  0.00     0.115 C 
HETATM   12  N6  UNL     1      27.471   3.331   8.450  1.00  0.00    -0.190 NA
ENDROOT
BRANCH   1  13
HETATM   13  C2  UNL     1      22.179   3.020  10.692  1.00  0.00     0.146 C 
HETATM   14  C1  UNL     1      21.516   2.201  11.774  1.00  0.00     0.028 C 
ENDBRANCH   1  13
BRANCH   6  15
HETATM   15  C6  UNL     1      26.639   5.190  11.562  1.00  0.00     0.096 C 
HETATM   16  C7  UNL     1      27.044   5.963  10.331  1.00  0.00     0.045 C 
HETATM   17  C8  UNL     1      28.320   6.746  10.780  1.00  0.00     0.130 C 
HETATM   18  N4  UNL     1      29.323   5.730  10.935  1.00  0.00    -0.328 N 
HETATM   19  C9  UNL     1      30.713   6.079  10.981  1.00  0.00     0.363 C 
HETATM   20  C13 UNL     1      28.970   4.351  11.031  1.00  0.00     0.130 C 
HETATM   21  O3  UNL     1      31.602   5.204  11.121  1.00  0.00    -0.238 OA
HETATM   22  C14 UNL     1      27.712   4.126  11.781  1.00  0.00     0.045 C 
BRANCH  19  23
HETATM   23  O4  UNL     1      31.145   7.392  10.875  1.00  0.00    -0.299 OA
BRANCH  23  24
HETATM   24  C10 UNL     1      31.975   7.857   9.831  1.00  0.00     0.125 C 
HETATM   25  C11 UNL     1      31.336   7.586   8.469  1.00  0.00     0.040 C 
HETATM   26  C12 UNL     1      32.276   9.323   9.896  1.00  0.00     0.040 C 
ENDBRANCH  23  24
ENDBRANCH  19  23
ENDBRANCH   6  15
BRANCH   5  27
HETATM   27  O1  UNL     1      23.407   5.949  14.575  1.00  0.00    -0.338 OA
ATOM     28  H1  UNL     1      23.490   6.503  15.343  1.00  0.00     0.220 HD
ENDBRANCH   5  27
BRANCH   5  29
HETATM   29  O2  UNL     1      25.499   6.621  14.351  1.00  0.00    -0.333 OA
HETATM   30  C5  UNL     1      25.422   7.574  15.386  1.00  0.00     0.212 C 
ENDBRANCH   5  29
TORSDOF 6
ENDMDL
