MODEL 1
REMARK VINA RESULT: -9.032488808      0.000      0.000
REMARK  4 active torsions:
REMARK  status: ('A' for Active; 'I' for Inactive)
REMARK    1  A    between atoms: C2_2  and  O1_4 
REMARK    2  A    between atoms: O1_4  and  C4_5 
REMARK    3  A    between atoms: C5_8  and  N2_9 
REMARK    4  A    between atoms: C14_21  and  N4_22 
ROOT
HETATM    1  C4  UNL     1      26.154   6.104  12.390  1.00  0.00     0.252 A 
HETATM    2  N1  UNL     1      27.286   6.461  11.785  1.00  0.00    -0.154 N 
ATOM      3  H1  UNL     1      27.896   7.126  12.260  1.00  0.00     0.188 HD
HETATM    4  C5  UNL     1      27.671   5.995  10.583  1.00  0.00     0.698 A 
HETATM    5  N3  UNL     1      26.831   5.114   9.990  1.00  0.00    -0.022 N 
ATOM      6  H3  UNL     1      27.085   4.735   9.078  1.00  0.00     0.203 HD
HETATM    7  C14 UNL     1      25.687   4.723  10.549  1.00  0.00     0.698 A 
HETATM    8  N5  UNL     1      25.362   5.222  11.742  1.00  0.00    -0.154 N 
ATOM      9  H5  UNL     1      24.488   4.928  12.179  1.00  0.00     0.188 HD
ENDROOT
BRANCH   4  10
HETATM   10  N2  UNL     1      28.888   6.398   9.966  1.00  0.00    -0.217 N 
HETATM   11  C6  UNL     1      30.106   6.354  10.740  1.00  0.00     0.144 C 
HETATM   12  C7  UNL     1      30.766   7.720  10.576  1.00  0.00     0.058 C 
HETATM   13  C8  UNL     1      31.081   7.873   9.108  1.00  0.00     0.067 C 
HETATM   14  C9  UNL     1      29.820   7.939   8.294  1.00  0.00     0.058 C 
HETATM   15  C11 UNL     1      31.890   9.144   8.899  1.00  0.00     0.069 C 
HETATM   16  O2  UNL     1      32.085   7.078   8.612  1.00  0.00    -0.375 OA
HETATM   17  C10 UNL     1      28.852   6.832   8.597  1.00  0.00     0.144 C 
HETATM   18  C12 UNL     1      32.984   8.143   8.622  1.00  0.00     0.121 C 
HETATM   19  C13 UNL     1      33.660   8.394   7.277  1.00  0.00     0.040 C 
ENDBRANCH   4  10
BRANCH   1  20
HETATM   20  O1  UNL     1      25.730   6.561  13.615  1.00  0.00    -0.317 OA
BRANCH  20  21
HETATM   21  C2  UNL     1      24.909   7.689  13.801  1.00  0.00     0.123 C 
HETATM   22  C1  UNL     1      25.095   8.199  15.220  1.00  0.00     0.040 C 
HETATM   23  C3  UNL     1      23.473   7.245  13.588  1.00  0.00     0.040 C 
ENDBRANCH  20  21
ENDBRANCH   1  20
BRANCH   7  24
HETATM   24  N4  UNL     1      24.824   3.801   9.913  1.00  0.00    -0.209 N 
HETATM   25  C15 UNL     1      23.654   3.241  10.552  1.00  0.00     0.168 C 
HETATM   26  C16 UNL     1      22.545   3.114   9.554  1.00  0.00     0.188 C 
HETATM   27  O3  UNL     1      22.858   2.435   8.417  1.00  0.00    -0.388 OA
HETATM   28  C17 UNL     1      24.175   2.232   8.162  1.00  0.00     0.193 C 
HETATM   29  C18 UNL     1      25.085   3.362   8.551  1.00  0.00     0.122 C 
HETATM   30  C19 UNL     1      25.069   4.508   7.586  1.00  0.00     0.035 C 
ENDBRANCH   7  24
TORSDOF 4
ENDMDL
MODEL 2
REMARK VINA RESULT: -8.980494396      2.209      7.278
REMARK  4 active torsions:
REMARK  status: ('A' for Active; 'I' for Inactive)
REMARK    1  A    between atoms: C2_2  and  O1_4 
REMARK    2  A    between atoms: O1_4  and  C4_5 
REMARK    3  A    between atoms: C5_8  and  N2_9 
REMARK    4  A    between atoms: C14_21  and  N4_22 
ROOT
HETATM    1  C4  UNL     1      27.710   6.563  11.185  1.00  0.00     0.252 A 
HETATM    2  N1  UNL     1      26.920   6.568  12.258  1.00  0.00    -0.154 N 
ATOM      3  H1  UNL     1      27.194   7.145  13.053  1.00  0.00     0.188 HD
HETATM    4  C5  UNL     1      25.782   5.856  12.353  1.00  0.00     0.698 A 
HETATM    5  N3  UNL     1      25.458   5.107  11.273  1.00  0.00    -0.022 N 
ATOM      6  H3  UNL     1      24.603   4.552  11.302  1.00  0.00     0.203 HD
HETATM    7  C14 UNL     1      26.211   5.064  10.174  1.00  0.00     0.698 A 
HETATM    8  N5  UNL     1      27.327   5.793  10.143  1.00  0.00    -0.154 N 
ATOM      9  H5  UNL     1      27.910   5.768   9.306  1.00  0.00     0.188 HD
ENDROOT
BRANCH   4  10
HETATM   10  N2  UNL     1      24.962   5.886  13.515  1.00  0.00    -0.217 N 
HETATM   11  C6  UNL     1      23.985   4.840  13.703  1.00  0.00     0.144 C 
HETATM   12  C7  UNL     1      22.663   5.540  14.003  1.00  0.00     0.058 C 
HETATM   13  C8  UNL     1      22.864   6.308  15.287  1.00  0.00     0.067 C 
HETATM   14  C9  UNL     1      23.865   7.411  15.100  1.00  0.00     0.058 C 
HETATM   15  C11 UNL     1      21.533   6.896  15.732  1.00  0.00     0.069 C 
HETATM   16  O2  UNL     1      22.988   5.560  16.432  1.00  0.00    -0.375 OA
HETATM   17  C10 UNL     1      25.144   6.958  14.455  1.00  0.00     0.144 C 
HETATM   18  C12 UNL     1      21.675   5.843  16.804  1.00  0.00     0.121 C 
HETATM   19  C13 UNL     1      21.543   6.436  18.204  1.00  0.00     0.040 C 
ENDBRANCH   4  10
BRANCH   1  20
HETATM   20  O1  UNL     1      28.878   7.276  11.056  1.00  0.00    -0.317 OA
BRANCH  20  21
HETATM   21  C2  UNL     1      30.105   6.722  10.649  1.00  0.00     0.123 C 
HETATM   22  C1  UNL     1      30.993   6.552  11.870  1.00  0.00     0.040 C 
HETATM   23  C3  UNL     1      30.741   7.694   9.671  1.00  0.00     0.040 C 
ENDBRANCH  20  21
ENDBRANCH   1  20
BRANCH   7  24
HETATM   24  N4  UNL     1      25.853   4.275   9.057  1.00  0.00    -0.209 N 
HETATM   25  C15 UNL     1      25.547   4.834   7.759  1.00  0.00     0.168 C 
HETATM   26  C16 UNL     1      26.090   3.944   6.684  1.00  0.00     0.188 C 
HETATM   27  O3  UNL     1      25.711   2.639   6.760  1.00  0.00    -0.388 OA
HETATM   28  C17 UNL     1      25.172   2.221   7.934  1.00  0.00     0.193 C 
HETATM   29  C18 UNL     1      25.774   2.828   9.169  1.00  0.00     0.122 C 
HETATM   30  C19 UNL     1      27.091   2.227   9.554  1.00  0.00     0.035 C 
ENDBRANCH   7  24
TORSDOF 4
ENDMDL
MODEL 3
REMARK VINA RESULT: -8.971889970      1.314      1.790
REMARK  4 active torsions:
REMARK  status: ('A' for Active; 'I' for Inactive)
REMARK    1  A    between atoms: C2_2  and  O1_4 
REMARK    2  A    between atoms: O1_4  and  C4_5 
REMARK    3  A    between atoms: C5_8  and  N2_9 
REMARK    4  A    between atoms: C14_21  and  N4_22 
ROOT
HETATM    1  C4  UNL     1      26.718   6.033  11.762  1.00  0.00     0.252 A 
HETATM    2  N1  UNL     1      27.738   6.731  11.265  1.00  0.00    -0.154 N 
ATOM      3  H1  UNL     1      28.101   7.509  11.814  1.00  0.00     0.188 HD
HETATM    4  C5  UNL     1      28.316   6.469  10.079  1.00  0.00     0.698 A 
HETATM    5  N3  UNL     1      27.801   5.426   9.384  1.00  0.00    -0.022 N 
ATOM      6  H3  UNL     1      28.210   5.192   8.480  1.00  0.00     0.203 HD
HETATM    7  C14 UNL     1      26.783   4.694   9.834  1.00  0.00     0.698 A 
HETATM    8  N5  UNL     1      26.254   5.005  11.017  1.00  0.00    -0.154 N 
ATOM      9  H5  UNL     1      25.474   4.451  11.371  1.00  0.00     0.188 HD
ENDROOT
BRANCH   4  10
HETATM   10  N2  UNL     1      29.405   7.236   9.578  1.00  0.00    -0.217 N 
HETATM   11  C6  UNL     1      29.348   7.716   8.218  1.00  0.00     0.144 C 
HETATM   12  C7  UNL     1      30.668   7.314   7.567  1.00  0.00     0.058 C 
HETATM   13  C8  UNL     1      31.759   8.025   8.331  1.00  0.00     0.067 C 
HETATM   14  C9  UNL     1      31.840   7.520   9.743  1.00  0.00     0.058 C 
HETATM   15  C11 UNL     1      33.090   7.798   7.630  1.00  0.00     0.069 C 
HETATM   16  O2  UNL     1      31.832   9.386   8.165  1.00  0.00    -0.375 OA
HETATM   17  C10 UNL     1      30.515   7.500  10.450  1.00  0.00     0.144 C 
HETATM   18  C12 UNL     1      32.917   9.260   7.299  1.00  0.00     0.121 C 
HETATM   19  C13 UNL     1      34.134  10.084   7.707  1.00  0.00     0.040 C 
ENDBRANCH   4  10
BRANCH   1  20
HETATM   20  O1  UNL     1      26.105   6.274  12.969  1.00  0.00    -0.317 OA
BRANCH  20  21
HETATM   21  C2  UNL     1      24.897   6.981  13.117  1.00  0.00     0.123 C 
HETATM   22  C1  UNL     1      25.015   7.900  14.322  1.00  0.00     0.040 C 
HETATM   23  C3  UNL     1      23.797   5.960  13.344  1.00  0.00     0.040 C 
ENDBRANCH  20  21
ENDBRANCH   1  20
BRANCH   7  24
HETATM   24  N4  UNL     1      26.262   3.609   9.093  1.00  0.00    -0.209 N 
HETATM   25  C15 UNL     1      25.778   2.392   9.706  1.00  0.00     0.168 C 
HETATM   26  C16 UNL     1      24.570   1.900   8.970  1.00  0.00     0.188 C 
HETATM   27  O3  UNL     1      24.728   1.746   7.627  1.00  0.00    -0.388 OA
HETATM   28  C17 UNL     1      25.810   2.339   7.061  1.00  0.00     0.193 C 
HETATM   29  C18 UNL     1      26.189   3.671   7.642  1.00  0.00     0.122 C 
HETATM   30  C19 UNL     1      25.321   4.800   7.177  1.00  0.00     0.035 C 
ENDBRANCH   7  24
TORSDOF 4
ENDMDL
MODEL 4
REMARK VINA RESULT: -8.939273774      2.301      7.295
REMARK  4 active torsions:
REMARK  status: ('A' for Active; 'I' for Inactive)
REMARK    1  A    between atoms: C2_2  and  O1_4 
REMARK    2  A    between atoms: O1_4  and  C4_5 
REMARK    3  A    between atoms: C5_8  and  N2_9 
REMARK    4  A    between atoms: C14_21  and  N4_22 
ROOT
HETATM    1  C4  UNL     1      27.359   6.224  11.353  1.00  0.00     0.252 A 
HETATM    2  N1  UNL     1      26.395   6.377  12.261  1.00  0.00    -0.154 N 
ATOM      3  H1  UNL     1      26.528   7.079  12.988  1.00  0.00     0.188 HD
HETATM    4  C5  UNL     1      25.259   5.658  12.273  1.00  0.00     0.698 A 
HETATM    5  N3  UNL     1      25.126   4.738  11.288  1.00  0.00    -0.022 N 
ATOM      6  H3  UNL     1      24.278   4.171  11.259  1.00  0.00     0.203 HD
HETATM    7  C14 UNL     1      26.057   4.543  10.355  1.00  0.00     0.698 A 
HETATM    8  N5  UNL     1      27.162   5.288  10.398  1.00  0.00    -0.154 N 
ATOM      9  H5  UNL     1      27.881   5.147   9.688  1.00  0.00     0.188 HD
ENDROOT
BRANCH   4  10
HETATM   10  N2  UNL     1      24.250   5.849  13.258  1.00  0.00    -0.217 N 
HETATM   11  C6  UNL     1      24.148   7.134  13.908  1.00  0.00     0.144 C 
HETATM   12  C7  UNL     1      24.118   6.853  15.408  1.00  0.00     0.058 C 
HETATM   13  C8  UNL     1      22.878   6.033  15.667  1.00  0.00     0.067 C 
HETATM   14  C9  UNL     1      22.979   4.686  15.011  1.00  0.00     0.058 C 
HETATM   15  C11 UNL     1      22.698   5.858  17.168  1.00  0.00     0.069 C 
HETATM   16  O2  UNL     1      21.676   6.684  15.536  1.00  0.00    -0.375 OA
HETATM   17  C10 UNL     1      23.374   4.751  13.564  1.00  0.00     0.144 C 
HETATM   18  C12 UNL     1      21.543   6.797  16.919  1.00  0.00     0.121 C 
HETATM   19  C13 UNL     1      20.230   6.241  17.462  1.00  0.00     0.040 C 
ENDBRANCH   4  10
BRANCH   1  20
HETATM   20  O1  UNL     1      28.532   6.940  11.312  1.00  0.00    -0.317 OA
BRANCH  20  21
HETATM   21  C2  UNL     1      29.738   6.457  10.770  1.00  0.00     0.123 C 
HETATM   22  C1  UNL     1      30.817   6.537  11.836  1.00  0.00     0.040 C 
HETATM   23  C3  UNL     1      30.096   7.349   9.594  1.00  0.00     0.040 C 
ENDBRANCH  20  21
ENDBRANCH   1  20
BRANCH   7  24
HETATM   24  N4  UNL     1      25.898   3.578   9.335  1.00  0.00    -0.209 N 
HETATM   25  C15 UNL     1      25.358   2.257   9.573  1.00  0.00     0.168 C 
HETATM   26  C16 UNL     1      24.495   1.848   8.420  1.00  0.00     0.188 C 
HETATM   27  O3  UNL     1      25.083   1.927   7.195  1.00  0.00    -0.388 OA
HETATM   28  C17 UNL     1      26.230   2.647   7.105  1.00  0.00     0.193 C 
HETATM   29  C18 UNL     1      26.282   3.878   7.965  1.00  0.00     0.122 C 
HETATM   30  C19 UNL     1      25.507   5.034   7.411  1.00  0.00     0.035 C 
ENDBRANCH   7  24
TORSDOF 4
ENDMDL
MODEL 5
REMARK VINA RESULT: -8.840316769      4.523      8.319
REMARK  4 active torsions:
REMARK  status: ('A' for Active; 'I' for Inactive)
REMARK    1  A    between atoms: C2_2  and  O1_4 
REMARK    2  A    between atoms: O1_4  and  C4_5 
REMARK    3  A    between atoms: C5_8  and  N2_9 
REMARK    4  A    between atoms: C14_21  and  N4_22 
ROOT
HETATM    1  C4  UNL     1      25.512   9.353  16.638  1.00  0.00     0.252 A 
HETATM    2  N1  UNL     1      25.447   8.674  15.493  1.00  0.00    -0.154 N 
ATOM      3  H1  UNL     1      25.767   9.135  14.642  1.00  0.00     0.188 HD
HETATM    4  C5  UNL     1      24.982   7.416  15.396  1.00  0.00     0.698 A 
HETATM    5  N3  UNL     1      24.568   6.844  16.551  1.00  0.00    -0.022 N 
ATOM      6  H3  UNL     1      24.209   5.889  16.523  1.00  0.00     0.203 HD
HETATM    7  C14 UNL     1      24.611   7.476  17.723  1.00  0.00     0.698 A 
HETATM    8  N5  UNL     1      25.083   8.723  17.753  1.00  0.00    -0.154 N 
ATOM      9  H5  UNL     1      25.121   9.215  18.646  1.00  0.00     0.188 HD
ENDROOT
BRANCH   4  10
HETATM   10  N2  UNL     1      24.927   6.720  14.156  1.00  0.00    -0.217 N 
HETATM   11  C6  UNL     1      24.157   5.502  14.077  1.00  0.00     0.144 C 
HETATM   12  C7  UNL     1      25.074   4.456  13.450  1.00  0.00     0.058 C 
HETATM   13  C8  UNL     1      25.413   4.955  12.066  1.00  0.00     0.067 C 
HETATM   14  C9  UNL     1      26.230   6.213  12.135  1.00  0.00     0.058 C 
HETATM   15  C11 UNL     1      26.192   3.880  11.323  1.00  0.00     0.069 C 
HETATM   16  O2  UNL     1      24.393   4.941  11.145  1.00  0.00    -0.375 OA
HETATM   17  C10 UNL     1      25.641   7.263  13.033  1.00  0.00     0.144 C 
HETATM   18  C12 UNL     1      24.902   3.791  10.544  1.00  0.00     0.121 C 
HETATM   19  C13 UNL     1      25.133   3.930   9.042  1.00  0.00     0.040 C 
ENDBRANCH   4  10
BRANCH   1  20
HETATM   20  O1  UNL     1      25.980  10.639  16.772  1.00  0.00    -0.317 OA
BRANCH  20  21
HETATM   21  C2  UNL     1      27.001  11.023  17.661  1.00  0.00     0.123 C 
HETATM   22  C1  UNL     1      27.466  12.422  17.294  1.00  0.00     0.040 C 
HETATM   23  C3  UNL     1      28.141  10.034  17.498  1.00  0.00     0.040 C 
ENDBRANCH  20  21
ENDBRANCH   1  20
BRANCH   7  24
HETATM   24  N4  UNL     1      24.175   6.859  18.918  1.00  0.00    -0.209 N 
HETATM   25  C15 UNL     1      24.688   7.212  20.224  1.00  0.00     0.168 C 
HETATM   26  C16 UNL     1      23.580   7.174  21.230  1.00  0.00     0.188 C 
HETATM   27  O3  UNL     1      22.872   6.013  21.275  1.00  0.00    -0.388 OA
HETATM   28  C17 UNL     1      23.017   5.160  20.229  1.00  0.00     0.193 C 
HETATM   29  C18 UNL     1      23.165   5.814  18.885  1.00  0.00     0.122 C 
HETATM   30  C19 UNL     1      21.873   6.307  18.310  1.00  0.00     0.035 C 
ENDBRANCH   7  24
TORSDOF 4
ENDMDL
