MODEL 1
REMARK VINA RESULT: -7.643640114      0.000      0.000
REMARK  6 active torsions:
REMARK  status: ('A' for Active; 'I' for Inactive)
REMARK    1  A    between atoms: C2_2  and  C3_3 
REMARK    2  A    between atoms: C3_3  and  O1_4 
REMARK    3  A    between atoms: O1_4  and  C4_5 
REMARK    4  A    between atoms: C12_17  and  C13_18 
REMARK    5  A    between atoms: C13_18  and  C14_19 
REMARK    6  A    between atoms: C18_24  and  O7_25 
ROOT
HETATM    1  C4  UNL     1      28.102   4.569  10.404  1.00  0.00     0.261 C 
HETATM    2  C5  UNL     1      28.418   3.159  10.750  1.00  0.00     0.292 C 
HETATM    3  O2  UNL     1      29.174   2.471  11.472  1.00  0.00    -0.262 OA
HETATM    4  O3  UNL     1      27.428   2.777   9.859  1.00  0.00    -0.299 OA
HETATM    5  C6  UNL     1      26.751   3.985  10.249  1.00  0.00     0.168 C 
HETATM    6  C7  UNL     1      25.955   3.725  11.488  1.00  0.00     0.218 C 
HETATM    7  O4  UNL     1      25.885   4.866  12.246  1.00  0.00    -0.376 OA
HETATM    8  C8  UNL     1      24.846   4.911  13.142  1.00  0.00     0.195 C 
HETATM    9  C9  UNL     1      23.523   4.536  12.522  1.00  0.00     0.197 C 
HETATM   10  O5  UNL     1      23.579   3.388  11.778  1.00  0.00    -0.356 OA
HETATM   11  C10 UNL     1      24.600   3.429  10.880  1.00  0.00     0.169 C 
HETATM   12  C11 UNL     1      24.487   4.618   9.905  1.00  0.00     0.106 C 
HETATM   13  C12 UNL     1      25.821   4.509   9.202  1.00  0.00     0.114 C 
HETATM   14  O6  UNL     1      25.633   3.442   8.254  1.00  0.00    -0.302 OA
HETATM   15  C18 UNL     1      25.129   2.267   8.832  1.00  0.00     0.263 C 
HETATM   16  N1  UNL     1      24.652   2.247  10.034  1.00  0.00    -0.316 N 
ATOM     17  H1  UNL     1      24.298   1.365  10.405  1.00  0.00     0.166 HD
ENDROOT
BRANCH   1  18
HETATM   18  O1  UNL     1      28.302   5.416  11.486  1.00  0.00    -0.372 OA
BRANCH  18  19
HETATM   19  C3  UNL     1      28.825   6.622  11.054  1.00  0.00     0.168 C 
BRANCH  19  20
HETATM   20  C2  UNL     1      30.266   6.597  10.670  1.00  0.00     0.022 C 
HETATM   21  C1  UNL     1      31.100   6.387  11.906  1.00  0.00     0.007 C 
ENDBRANCH  19  20
ENDBRANCH  18  19
ENDBRANCH   1  18
BRANCH  13  22
HETATM   22  C13 UNL     1      26.222   5.774   8.578  1.00  0.00     0.050 C 
BRANCH  22  23
HETATM   23  C14 UNL     1      26.312   5.835   7.087  1.00  0.00    -0.049 C 
HETATM   24  C15 UNL     1      27.596   5.224   6.562  1.00  0.00     0.014 C 
HETATM   25  C16 UNL     1      25.091   5.459   6.332  1.00  0.00     0.014 C 
HETATM   26  C17 UNL     1      26.496   7.352   6.792  1.00  0.00     0.014 C 
ENDBRANCH  22  23
ENDBRANCH  13  22
BRANCH  15  27
HETATM   27  O7  UNL     1      25.148   1.108   8.085  1.00  0.00    -0.322 OA
HETATM   28  C19 UNL     1      23.994   0.585   7.478  1.00  0.00     0.213 C 
ENDBRANCH  15  27
TORSDOF 6
ENDMDL
MODEL 2
REMARK VINA RESULT: -7.347791126      1.840      4.110
REMARK  6 active torsions:
REMARK  status: ('A' for Active; 'I' for Inactive)
REMARK    1  A    between atoms: C2_2  and  C3_3 
REMARK    2  A    between atoms: C3_3  and  O1_4 
REMARK    3  A    between atoms: O1_4  and  C4_5 
REMARK    4  A    between atoms: C12_17  and  C13_18 
REMARK    5  A    between atoms: C13_18  and  C14_19 
REMARK    6  A    between atoms: C18_24  and  O7_25 
ROOT
HETATM    1  C4  UNL     1      27.899   6.405  10.774  1.00  0.00     0.261 C 
HETATM    2  C5  UNL     1      27.770   6.202   9.308  1.00  0.00     0.292 C 
HETATM    3  O2  UNL     1      28.329   6.485   8.224  1.00  0.00    -0.262 OA
HETATM    4  O3  UNL     1      26.627   5.464   9.568  1.00  0.00    -0.299 OA
HETATM    5  C6  UNL     1      27.285   5.059  10.781  1.00  0.00     0.168 C 
HETATM    6  C7  UNL     1      28.167   3.886  10.494  1.00  0.00     0.218 C 
HETATM    7  O4  UNL     1      29.255   3.906  11.330  1.00  0.00    -0.376 OA
HETATM    8  C8  UNL     1      29.886   2.698  11.497  1.00  0.00     0.195 C 
HETATM    9  C9  UNL     1      28.927   1.575  11.807  1.00  0.00     0.197 C 
HETATM   10  O5  UNL     1      27.848   1.537  10.967  1.00  0.00    -0.356 OA
HETATM   11  C10 UNL     1      27.242   2.752  10.884  1.00  0.00     0.169 C 
HETATM   12  C11 UNL     1      26.757   3.271  12.253  1.00  0.00     0.106 C 
HETATM   13  C12 UNL     1      26.336   4.671  11.870  1.00  0.00     0.114 C 
HETATM   14  O6  UNL     1      25.052   4.494  11.246  1.00  0.00    -0.302 OA
HETATM   15  C18 UNL     1      25.058   3.537  10.220  1.00  0.00     0.263 C 
HETATM   16  N1  UNL     1      26.055   2.732  10.043  1.00  0.00    -0.316 N 
ATOM     17  H1  UNL     1      26.007   2.054   9.282  1.00  0.00     0.166 HD
ENDROOT
BRANCH   1  18
HETATM   18  O1  UNL     1      29.230   6.492  11.160  1.00  0.00    -0.372 OA
BRANCH  18  19
HETATM   19  C3  UNL     1      29.852   7.531  10.490  1.00  0.00     0.168 C 
BRANCH  19  20
HETATM   20  C2  UNL     1      31.343   7.506  10.506  1.00  0.00     0.022 C 
HETATM   21  C1  UNL     1      31.805   6.250  11.196  1.00  0.00     0.007 C 
ENDBRANCH  19  20
ENDBRANCH  18  19
ENDBRANCH   1  18
BRANCH  13  22
HETATM   22  C13 UNL     1      26.300   5.573  13.025  1.00  0.00     0.050 C 
BRANCH  22  23
HETATM   23  C14 UNL     1      25.013   6.260  13.351  1.00  0.00    -0.049 C 
HETATM   24  C15 UNL     1      24.640   7.305  12.320  1.00  0.00     0.014 C 
HETATM   25  C16 UNL     1      23.891   5.394  13.792  1.00  0.00     0.014 C 
HETATM   26  C17 UNL     1      25.359   7.111  14.608  1.00  0.00     0.014 C 
ENDBRANCH  22  23
ENDBRANCH  13  22
BRANCH  15  27
HETATM   27  O7  UNL     1      23.963   3.464   9.385  1.00  0.00    -0.322 OA
HETATM   28  C19 UNL     1      23.936   2.633   8.252  1.00  0.00     0.213 C 
ENDBRANCH  15  27
TORSDOF 6
ENDMDL
MODEL 3
REMARK VINA RESULT: -7.171010727      1.913      4.713
REMARK  6 active torsions:
REMARK  status: ('A' for Active; 'I' for Inactive)
REMARK    1  A    between atoms: C2_2  and  C3_3 
REMARK    2  A    between atoms: C3_3  and  O1_4 
REMARK    3  A    between atoms: O1_4  and  C4_5 
REMARK    4  A    between atoms: C12_17  and  C13_18 
REMARK    5  A    between atoms: C13_18  and  C14_19 
REMARK    6  A    between atoms: C18_24  and  O7_25 
ROOT
HETATM    1  C4  UNL     1      26.114   5.390  12.347  1.00  0.00     0.261 C 
HETATM    2  C5  UNL     1      25.596   4.140  12.961  1.00  0.00     0.292 C 
HETATM    3  O2  UNL     1      24.603   3.683  13.570  1.00  0.00    -0.262 OA
HETATM    4  O3  UNL     1      26.778   3.528  12.577  1.00  0.00    -0.299 OA
HETATM    5  C6  UNL     1      26.745   4.408  11.439  1.00  0.00     0.168 C 
HETATM    6  C7  UNL     1      25.896   3.797  10.369  1.00  0.00     0.218 C 
HETATM    7  O4  UNL     1      25.288   4.784   9.637  1.00  0.00    -0.376 OA
HETATM    8  C8  UNL     1      24.865   4.409   8.386  1.00  0.00     0.195 C 
HETATM    9  C9  UNL     1      25.927   3.670   7.608  1.00  0.00     0.197 C 
HETATM   10  O5  UNL     1      26.527   2.671   8.325  1.00  0.00    -0.356 OA
HETATM   11  C10 UNL     1      26.963   3.122   9.532  1.00  0.00     0.169 C 
HETATM   12  C11 UNL     1      27.969   4.283   9.406  1.00  0.00     0.106 C 
HETATM   13  C12 UNL     1      28.097   4.680  10.859  1.00  0.00     0.114 C 
HETATM   14  O6  UNL     1      28.984   3.694  11.417  1.00  0.00    -0.302 OA
HETATM   15  C18 UNL     1      28.583   2.374  11.158  1.00  0.00     0.263 C 
HETATM   16  N1  UNL     1      27.658   2.098  10.296  1.00  0.00    -0.316 N 
ATOM     17  H1  UNL     1      27.406   1.121  10.147  1.00  0.00     0.166 HD
ENDROOT
BRANCH   1  18
HETATM   18  O1  UNL     1      25.085   6.162  11.823  1.00  0.00    -0.372 OA
BRANCH  18  19
HETATM   19  C3  UNL     1      24.906   7.299  12.592  1.00  0.00     0.168 C 
BRANCH  19  20
HETATM   20  C2  UNL     1      23.751   7.261  13.535  1.00  0.00     0.022 C 
HETATM   21  C1  UNL     1      24.176   7.844  14.856  1.00  0.00     0.007 C 
ENDBRANCH  19  20
ENDBRANCH  18  19
ENDBRANCH   1  18
BRANCH  13  22
HETATM   22  C13 UNL     1      28.585   6.054  11.017  1.00  0.00     0.050 C 
BRANCH  22  23
HETATM   23  C14 UNL     1      29.999   6.354  10.635  1.00  0.00    -0.049 C 
HETATM   24  C15 UNL     1      30.951   5.244  11.031  1.00  0.00     0.014 C 
HETATM   25  C16 UNL     1      30.217   6.905   9.274  1.00  0.00     0.014 C 
HETATM   26  C17 UNL     1      30.397   7.517  11.590  1.00  0.00     0.014 C 
ENDBRANCH  22  23
ENDBRANCH  13  22
BRANCH  15  27
HETATM   27  O7  UNL     1      29.201   1.354  11.849  1.00  0.00    -0.322 OA
HETATM   28  C19 UNL     1      30.410   1.539  12.542  1.00  0.00     0.213 C 
ENDBRANCH  15  27
TORSDOF 6
ENDMDL
MODEL 4
REMARK VINA RESULT: -7.106843820      2.104      4.335
REMARK  6 active torsions:
REMARK  status: ('A' for Active; 'I' for Inactive)
REMARK    1  A    between atoms: C2_2  and  C3_3 
REMARK    2  A    between atoms: C3_3  and  O1_4 
REMARK    3  A    between atoms: O1_4  and  C4_5 
REMARK    4  A    between atoms: C12_17  and  C13_18 
REMARK    5  A    between atoms: C13_18  and  C14_19 
REMARK    6  A    between atoms: C18_24  and  O7_25 
ROOT
HETATM    1  C4  UNL     1      28.298   2.994  10.769  1.00  0.00     0.261 C 
HETATM    2  C5  UNL     1      27.303   2.607   9.736  1.00  0.00     0.292 C 
HETATM    3  O2  UNL     1      26.605   1.639   9.359  1.00  0.00    -0.262 OA
HETATM    4  O3  UNL     1      27.412   3.892   9.231  1.00  0.00    -0.299 OA
HETATM    5  C6  UNL     1      27.628   4.302  10.592  1.00  0.00     0.168 C 
HETATM    6  C7  UNL     1      26.306   4.507  11.261  1.00  0.00     0.218 C 
HETATM    7  O4  UNL     1      26.409   4.214  12.597  1.00  0.00    -0.376 OA
HETATM    8  C8  UNL     1      25.443   4.775  13.395  1.00  0.00     0.195 C 
HETATM    9  C9  UNL     1      25.249   6.248  13.130  1.00  0.00     0.197 C 
HETATM   10  O5  UNL     1      25.128   6.548  11.800  1.00  0.00    -0.356 OA
HETATM   11  C10 UNL     1      26.140   6.001  11.075  1.00  0.00     0.169 C 
HETATM   12  C11 UNL     1      27.531   6.477  11.542  1.00  0.00     0.106 C 
HETATM   13  C12 UNL     1      28.412   5.570  10.714  1.00  0.00     0.114 C 
HETATM   14  O6  UNL     1      28.410   6.175   9.407  1.00  0.00    -0.302 OA
HETATM   15  C18 UNL     1      27.122   6.425   8.911  1.00  0.00     0.263 C 
HETATM   16  N1  UNL     1      26.073   6.350   9.664  1.00  0.00    -0.316 N 
ATOM     17  H1  UNL     1      25.160   6.542   9.252  1.00  0.00     0.166 HD
ENDROOT
BRANCH   1  18
HETATM   18  O1  UNL     1      28.073   2.328  11.967  1.00  0.00    -0.372 OA
BRANCH  18  19
HETATM   19  C3  UNL     1      29.163   1.536  12.282  1.00  0.00     0.168 C 
BRANCH  19  20
HETATM   20  C2  UNL     1      30.496   2.122  11.965  1.00  0.00     0.022 C 
HETATM   21  C1  UNL     1      31.466   1.755  13.057  1.00  0.00     0.007 C 
ENDBRANCH  19  20
ENDBRANCH  18  19
ENDBRANCH   1  18
BRANCH  13  22
HETATM   22  C13 UNL     1      29.754   5.430  11.286  1.00  0.00     0.050 C 
BRANCH  22  23
HETATM   23  C14 UNL     1      30.756   6.507  11.021  1.00  0.00    -0.049 C 
HETATM   24  C15 UNL     1      31.934   6.011  10.207  1.00  0.00     0.014 C 
HETATM   25  C16 UNL     1      30.219   7.825  10.600  1.00  0.00     0.014 C 
HETATM   26  C17 UNL     1      31.383   6.776  12.420  1.00  0.00     0.014 C 
ENDBRANCH  22  23
ENDBRANCH  13  22
BRANCH  15  27
HETATM   27  O7  UNL     1      26.986   6.760   7.580  1.00  0.00    -0.322 OA
HETATM   28  C19 UNL     1      27.966   7.487   6.884  1.00  0.00     0.213 C 
ENDBRANCH  15  27
TORSDOF 6
ENDMDL
MODEL 5
REMARK VINA RESULT: -7.086032048      2.080      5.636
REMARK  6 active torsions:
REMARK  status: ('A' for Active; 'I' for Inactive)
REMARK    1  A    between atoms: C2_2  and  C3_3 
REMARK    2  A    between atoms: C3_3  and  O1_4 
REMARK    3  A    between atoms: O1_4  and  C4_5 
REMARK    4  A    between atoms: C12_17  and  C13_18 
REMARK    5  A    between atoms: C13_18  and  C14_19 
REMARK    6  A    between atoms: C18_24  and  O7_25 
ROOT
HETATM    1  C4  UNL     1      23.657   2.667   9.933  1.00  0.00     0.261 C 
HETATM    2  C5  UNL     1      24.273   1.446   9.353  1.00  0.00     0.292 C 
HETATM    3  O2  UNL     1      23.988   0.421   8.692  1.00  0.00    -0.262 OA
HETATM    4  O3  UNL     1      25.483   1.878   9.870  1.00  0.00    -0.299 OA
HETATM    5  C6  UNL     1      24.998   3.210   9.622  1.00  0.00     0.168 C 
HETATM    6  C7  UNL     1      25.290   3.584   8.203  1.00  0.00     0.218 C 
HETATM    7  O4  UNL     1      24.322   4.438   7.738  1.00  0.00    -0.376 OA
HETATM    8  C8  UNL     1      24.687   5.201   6.656  1.00  0.00     0.195 C 
HETATM    9  C9  UNL     1      26.025   5.873   6.839  1.00  0.00     0.197 C 
HETATM   10  O5  UNL     1      27.001   5.024   7.287  1.00  0.00    -0.356 OA
HETATM   11  C10 UNL     1      26.592   4.335   8.386  1.00  0.00     0.169 C 
HETATM   12  C11 UNL     1      26.198   5.259   9.555  1.00  0.00     0.106 C 
HETATM   13  C12 UNL     1      25.616   4.242  10.511  1.00  0.00     0.114 C 
HETATM   14  O6  UNL     1      26.768   3.624  11.111  1.00  0.00    -0.302 OA
HETATM   15  C18 UNL     1      27.697   3.147  10.173  1.00  0.00     0.263 C 
HETATM   16  N1  UNL     1      27.628   3.465   8.921  1.00  0.00    -0.316 N 
ATOM     17  H1  UNL     1      28.330   3.090   8.282  1.00  0.00     0.166 HD
ENDROOT
BRANCH   1  18
HETATM   18  O1  UNL     1      22.598   3.121   9.157  1.00  0.00    -0.372 OA
BRANCH  18  19
HETATM   19  C3  UNL     1      21.475   3.300   9.945  1.00  0.00     0.168 C 
BRANCH  19  20
HETATM   20  C2  UNL     1      21.497   2.605  11.264  1.00  0.00     0.022 C 
HETATM   21  C1  UNL     1      21.406   3.631  12.361  1.00  0.00     0.007 C 
ENDBRANCH  19  20
ENDBRANCH  18  19
ENDBRANCH   1  18
BRANCH  13  22
HETATM   22  C13 UNL     1      24.711   4.855  11.488  1.00  0.00     0.050 C 
BRANCH  22  23
HETATM   23  C14 UNL     1      25.284   5.337  12.782  1.00  0.00    -0.049 C 
HETATM   24  C15 UNL     1      25.781   4.199  13.651  1.00  0.00     0.014 C 
HETATM   25  C16 UNL     1      26.193   6.508  12.712  1.00  0.00     0.014 C 
HETATM   26  C17 UNL     1      24.042   5.859  13.561  1.00  0.00     0.014 C 
ENDBRANCH  22  23
ENDBRANCH  13  22
BRANCH  15  27
HETATM   27  O7  UNL     1      28.706   2.316  10.613  1.00  0.00    -0.322 OA
HETATM   28  C19 UNL     1      28.802   1.893  11.950  1.00  0.00     0.213 C 
ENDBRANCH  15  27
TORSDOF 6
ENDMDL
