MODEL 1
REMARK VINA RESULT: -9.264208384      0.000      0.000
REMARK  8 active torsions:
REMARK  status: ('A' for Active; 'I' for Inactive)
REMARK    1  A    between atoms: C2_2  and  C3_3 
REMARK    2  A    between atoms: C5_5  and  O1_6 
REMARK    3  A    between atoms: C8_10  and  O2_11 
REMARK    4  A    between atoms: C10_13  and  C11_14 
REMARK    5  A    between atoms: C12_18  and  O4_19 
REMARK    6  A    between atoms: O4_19  and  C13_20 
REMARK    7  A    between atoms: C16_23  and  C17_24 
REMARK    8  A    between atoms: C18_25  and  O5_26 
ROOT
HETATM    1  C11 UNL     1       5.383 -37.364  -3.960  1.00  0.00     0.180 C 
HETATM    2  N1  UNL     1       4.713 -36.999  -2.921  1.00  0.00    -0.239 N 
ATOM      3  H1  UNL     1       4.052 -36.222  -2.922  1.00  0.00     0.197 HD
HETATM    4  O3  UNL     1       4.980 -37.756  -1.826  1.00  0.00    -0.217 OA
HETATM    5  C12 UNL     1       5.711 -38.896  -2.261  1.00  0.00     0.451 C 
HETATM    6  O7  UNL     1       6.143 -38.433  -3.526  1.00  0.00    -0.276 OA
ENDROOT
BRANCH   5   7
HETATM    7  O4  UNL     1       6.781 -39.177  -1.430  1.00  0.00    -0.295 OA
BRANCH   7   8
HETATM    8  C13 UNL     1       8.078 -39.490  -1.797  1.00  0.00     0.074 A 
HETATM    9  C14 UNL     1       8.823 -40.326  -0.970  1.00  0.00     0.038 A 
HETATM   10  C15 UNL     1      10.120 -40.677  -1.279  1.00  0.00     0.015 A 
HETATM   11  C16 UNL     1      10.754 -40.225  -2.419  1.00  0.00    -0.016 A 
HETATM   12  C21 UNL     1      10.020 -39.397  -3.243  1.00  0.00     0.015 A 
HETATM   13  C22 UNL     1       8.706 -39.037  -2.936  1.00  0.00     0.038 A 
BRANCH  11  14
HETATM   14  C17 UNL     1      12.125 -40.611  -2.737  1.00  0.00     0.093 A 
HETATM   15  C18 UNL     1      13.194 -39.743  -2.748  1.00  0.00     0.159 A 
HETATM   16  N2  UNL     1      14.449 -40.162  -3.052  1.00  0.00    -0.313 N 
HETATM   17  C19 UNL     1      14.666 -41.456  -3.352  1.00  0.00     0.180 A 
ATOM     18  H2  UNL     1      15.224 -39.499  -3.053  1.00  0.00     0.170 HD
HETATM   19  S1  UNL     1      16.205 -41.924  -3.714  1.00  0.00    -0.040 SA
HETATM   20  N3  UNL     1      13.639 -42.319  -3.348  1.00  0.00    -0.299 N 
HETATM   21  C20 UNL     1      12.380 -41.930  -3.049  1.00  0.00     0.263 A 
ATOM     22  H3  UNL     1      13.814 -43.297  -3.577  1.00  0.00     0.171 HD
HETATM   23  O6  UNL     1      11.424 -42.763  -3.051  1.00  0.00    -0.267 OA
BRANCH  15  24
HETATM   24  O5  UNL     1      12.978 -38.408  -2.439  1.00  0.00    -0.345 OA
ATOM     25  H5  UNL     1      13.264 -37.743  -3.054  1.00  0.00     0.219 HD
ENDBRANCH  15  24
ENDBRANCH  11  14
ENDBRANCH   7   8
ENDBRANCH   5   7
BRANCH   1  26
HETATM   26  C10 UNL     1       5.307 -36.734  -5.295  1.00  0.00     0.060 A 
HETATM   27  C3  UNL     1       6.412 -36.358  -6.020  1.00  0.00    -0.038 A 
HETATM   28  C4  UNL     1       6.287 -35.791  -7.303  1.00  0.00     0.048 A 
HETATM   29  C5  UNL     1       5.052 -35.597  -7.860  1.00  0.00     0.110 A 
HETATM   30  C7  UNL     1       3.945 -35.968  -7.142  1.00  0.00     0.183 A 
HETATM   31  F1  UNL     1       2.726 -35.783  -7.680  1.00  0.00    -0.200 F 
HETATM   32  C8  UNL     1       4.073 -36.535  -5.862  1.00  0.00     0.124 A 
BRANCH  27  33
HETATM   33  C2  UNL     1       7.760 -36.532  -5.467  1.00  0.00     0.035 C 
HETATM   34  C1  UNL     1       8.799 -35.611  -6.068  1.00  0.00     0.010 C 
ENDBRANCH  27  33
BRANCH  29  35
HETATM   35  O1  UNL     1       4.974 -35.034  -9.128  1.00  0.00    -0.353 OA
HETATM   36  C6  UNL     1       4.936 -35.793 -10.305  1.00  0.00     0.210 C 
ENDBRANCH  29  35
BRANCH  32  37
HETATM   37  O2  UNL     1       2.895 -36.875  -5.214  1.00  0.00    -0.352 OA
HETATM   38  C9  UNL     1       2.023 -35.855  -4.699  1.00  0.00     0.210 C 
ENDBRANCH  32  37
ENDBRANCH   1  26
TORSDOF 8
ENDMDL
MODEL 2
REMARK VINA RESULT: -9.220392417      4.494      9.254
REMARK  8 active torsions:
REMARK  status: ('A' for Active; 'I' for Inactive)
REMARK    1  A    between atoms: C2_2  and  C3_3 
REMARK    2  A    between atoms: C5_5  and  O1_6 
REMARK    3  A    between atoms: C8_10  and  O2_11 
REMARK    4  A    between atoms: C10_13  and  C11_14 
REMARK    5  A    between atoms: C12_18  and  O4_19 
REMARK    6  A    between atoms: O4_19  and  C13_20 
REMARK    7  A    between atoms: C16_23  and  C17_24 
REMARK    8  A    between atoms: C18_25  and  O5_26 
ROOT
HETATM    1  C11 UNL     1       7.627 -39.567  -1.997  1.00  0.00     0.180 C 
HETATM    2  N1  UNL     1       6.767 -40.500  -2.225  1.00  0.00    -0.239 N 
ATOM      3  H1  UNL     1       7.001 -41.382  -2.680  1.00  0.00     0.197 HD
HETATM    4  O3  UNL     1       5.518 -40.186  -1.795  1.00  0.00    -0.217 OA
HETATM    5  C12 UNL     1       5.627 -39.030  -0.972  1.00  0.00     0.451 C 
HETATM    6  O7  UNL     1       6.901 -38.569  -1.376  1.00  0.00    -0.276 OA
ENDROOT
BRANCH   5   7
HETATM    7  O4  UNL     1       4.639 -38.101  -1.245  1.00  0.00    -0.295 OA
BRANCH   7   8
HETATM    8  C13 UNL     1       4.261 -37.607  -2.481  1.00  0.00     0.074 A 
HETATM    9  C14 UNL     1       4.008 -36.244  -2.607  1.00  0.00     0.038 A 
HETATM   10  C15 UNL     1       3.629 -35.689  -3.811  1.00  0.00     0.015 A 
HETATM   11  C16 UNL     1       3.479 -36.445  -4.956  1.00  0.00    -0.016 A 
HETATM   12  C21 UNL     1       3.729 -37.796  -4.837  1.00  0.00     0.015 A 
HETATM   13  C22 UNL     1       4.112 -38.366  -3.622  1.00  0.00     0.038 A 
BRANCH  11  14
HETATM   14  C17 UNL     1       3.084 -35.842  -6.225  1.00  0.00     0.093 A 
HETATM   15  C18 UNL     1       3.964 -35.447  -7.207  1.00  0.00     0.159 A 
HETATM   16  N2  UNL     1       3.535 -34.891  -8.369  1.00  0.00    -0.313 N 
HETATM   17  C19 UNL     1       2.217 -34.718  -8.578  1.00  0.00     0.180 A 
ATOM     18  H2  UNL     1       4.208 -34.607  -9.080  1.00  0.00     0.170 HD
HETATM   19  S1  UNL     1       1.737 -34.041 -10.003  1.00  0.00    -0.040 SA
HETATM   20  N3  UNL     1       1.341 -35.095  -7.635  1.00  0.00    -0.299 N 
HETATM   21  C20 UNL     1       1.739 -35.650  -6.469  1.00  0.00     0.263 A 
ATOM     22  H3  UNL     1       0.344 -34.959  -7.803  1.00  0.00     0.171 HD
HETATM   23  O6  UNL     1       0.893 -36.000  -5.592  1.00  0.00    -0.267 OA
BRANCH  15  24
HETATM   24  O5  UNL     1       5.325 -35.624  -6.998  1.00  0.00    -0.345 OA
ATOM     25  H5  UNL     1       5.653 -35.639  -6.107  1.00  0.00     0.219 HD
ENDBRANCH  15  24
ENDBRANCH  11  14
ENDBRANCH   7   8
ENDBRANCH   5   7
BRANCH   1  26
HETATM   26  C10 UNL     1       9.062 -39.617  -2.349  1.00  0.00     0.060 A 
HETATM   27  C3  UNL     1       9.622 -38.870  -3.357  1.00  0.00    -0.038 A 
HETATM   28  C4  UNL     1      11.002 -38.930  -3.631  1.00  0.00     0.048 A 
HETATM   29  C5  UNL     1      11.823 -39.742  -2.896  1.00  0.00     0.110 A 
HETATM   30  C7  UNL     1      11.271 -40.491  -1.891  1.00  0.00     0.183 A 
HETATM   31  F1  UNL     1      12.068 -41.293  -1.161  1.00  0.00    -0.200 F 
HETATM   32  C8  UNL     1       9.893 -40.429  -1.618  1.00  0.00     0.124 A 
BRANCH  27  33
HETATM   33  C2  UNL     1       8.788 -37.991  -4.183  1.00  0.00     0.035 C 
HETATM   34  C1  UNL     1       9.570 -36.989  -5.005  1.00  0.00     0.010 C 
ENDBRANCH  27  33
BRANCH  29  35
HETATM   35  O1  UNL     1      13.178 -39.771  -3.201  1.00  0.00    -0.353 OA
HETATM   36  C6  UNL     1      13.865 -40.944  -3.541  1.00  0.00     0.210 C 
ENDBRANCH  29  35
BRANCH  32  37
HETATM   37  O2  UNL     1       9.429 -41.226  -0.583  1.00  0.00    -0.352 OA
HETATM   38  C9  UNL     1       9.547 -40.792   0.783  1.00  0.00     0.210 C 
ENDBRANCH  32  37
ENDBRANCH   1  26
TORSDOF 8
ENDMDL
MODEL 3
REMARK VINA RESULT: -9.148900336      1.253      2.091
REMARK  8 active torsions:
REMARK  status: ('A' for Active; 'I' for Inactive)
REMARK    1  A    between atoms: C2_2  and  C3_3 
REMARK    2  A    between atoms: C5_5  and  O1_6 
REMARK    3  A    between atoms: C8_10  and  O2_11 
REMARK    4  A    between atoms: C10_13  and  C11_14 
REMARK    5  A    between atoms: C12_18  and  O4_19 
REMARK    6  A    between atoms: O4_19  and  C13_20 
REMARK    7  A    between atoms: C16_23  and  C17_24 
REMARK    8  A    between atoms: C18_25  and  O5_26 
ROOT
HETATM    1  C11 UNL     1       4.529 -37.058  -3.807  1.00  0.00     0.180 C 
HETATM    2  N1  UNL     1       4.363 -36.420  -2.700  1.00  0.00    -0.239 N 
ATOM      3  H1  UNL     1       4.297 -35.404  -2.641  1.00  0.00     0.197 HD
HETATM    4  O3  UNL     1       4.284 -37.241  -1.622  1.00  0.00    -0.217 OA
HETATM    5  C12 UNL     1       4.128 -38.570  -2.106  1.00  0.00     0.451 C 
HETATM    6  O7  UNL     1       4.562 -38.390  -3.440  1.00  0.00    -0.276 OA
ENDROOT
BRANCH   5   7
HETATM    7  O4  UNL     1       4.929 -39.470  -1.426  1.00  0.00    -0.295 OA
BRANCH   7   8
HETATM    8  C13 UNL     1       6.265 -39.752  -1.654  1.00  0.00     0.074 A 
HETATM    9  C14 UNL     1       6.662 -40.111  -2.940  1.00  0.00     0.038 A 
HETATM   10  C15 UNL     1       7.977 -40.404  -3.233  1.00  0.00     0.015 A 
HETATM   11  C16 UNL     1       8.973 -40.359  -2.277  1.00  0.00    -0.016 A 
HETATM   12  C21 UNL     1       8.584 -40.004  -1.002  1.00  0.00     0.015 A 
HETATM   13  C22 UNL     1       7.255 -39.707  -0.697  1.00  0.00     0.038 A 
BRANCH  11  14
HETATM   14  C17 UNL     1      10.362 -40.665  -2.603  1.00  0.00     0.093 A 
HETATM   15  C18 UNL     1      10.943 -41.903  -2.448  1.00  0.00     0.159 A 
HETATM   16  N2  UNL     1      12.243 -42.127  -2.770  1.00  0.00    -0.313 N 
HETATM   17  C19 UNL     1      12.992 -41.120  -3.255  1.00  0.00     0.180 A 
ATOM     18  H2  UNL     1      12.649 -43.054  -2.646  1.00  0.00     0.170 HD
HETATM   19  S1  UNL     1      14.566 -41.433  -3.635  1.00  0.00    -0.040 SA
HETATM   20  N3  UNL     1      12.447 -39.904  -3.414  1.00  0.00    -0.299 N 
HETATM   21  C20 UNL     1      11.156 -39.653  -3.102  1.00  0.00     0.263 A 
ATOM     22  H3  UNL     1      13.024 -39.148  -3.781  1.00  0.00     0.171 HD
HETATM   23  O6  UNL     1      10.662 -38.497  -3.260  1.00  0.00    -0.267 OA
BRANCH  15  24
HETATM   24  O5  UNL     1      10.176 -42.946  -1.950  1.00  0.00    -0.345 OA
ATOM     25  H5  UNL     1      10.182 -43.779  -2.406  1.00  0.00     0.219 HD
ENDBRANCH  15  24
ENDBRANCH  11  14
ENDBRANCH   7   8
ENDBRANCH   5   7
BRANCH   1  26
HETATM   26  C10 UNL     1       4.649 -36.441  -5.145  1.00  0.00     0.060 A 
HETATM   27  C3  UNL     1       5.788 -36.506  -5.910  1.00  0.00    -0.038 A 
HETATM   28  C4  UNL     1       5.841 -35.927  -7.194  1.00  0.00     0.048 A 
HETATM   29  C5  UNL     1       4.751 -35.280  -7.710  1.00  0.00     0.110 A 
HETATM   30  C7  UNL     1       3.612 -35.211  -6.952  1.00  0.00     0.183 A 
HETATM   31  F1  UNL     1       2.534 -34.578  -7.450  1.00  0.00    -0.200 F 
HETATM   32  C8  UNL     1       3.561 -35.789  -5.671  1.00  0.00     0.124 A 
BRANCH  27  33
HETATM   33  C2  UNL     1       6.989 -37.177  -5.402  1.00  0.00     0.035 C 
HETATM   34  C1  UNL     1       8.286 -36.494  -5.780  1.00  0.00     0.010 C 
ENDBRANCH  27  33
BRANCH  29  35
HETATM   35  O1  UNL     1       4.847 -34.725  -8.980  1.00  0.00    -0.353 OA
HETATM   36  C6  UNL     1       4.752 -35.477 -10.158  1.00  0.00     0.210 C 
ENDBRANCH  29  35
BRANCH  32  37
HETATM   37  O2  UNL     1       2.366 -35.664  -4.981  1.00  0.00    -0.352 OA
HETATM   38  C9  UNL     1       1.346 -36.672  -5.096  1.00  0.00     0.210 C 
ENDBRANCH  32  37
ENDBRANCH   1  26
TORSDOF 8
ENDMDL
MODEL 4
REMARK VINA RESULT: -9.131451600      0.108      1.388
REMARK  8 active torsions:
REMARK  status: ('A' for Active; 'I' for Inactive)
REMARK    1  A    between atoms: C2_2  and  C3_3 
REMARK    2  A    between atoms: C5_5  and  O1_6 
REMARK    3  A    between atoms: C8_10  and  O2_11 
REMARK    4  A    between atoms: C10_13  and  C11_14 
REMARK    5  A    between atoms: C12_18  and  O4_19 
REMARK    6  A    between atoms: O4_19  and  C13_20 
REMARK    7  A    between atoms: C16_23  and  C17_24 
REMARK    8  A    between atoms: C18_25  and  O5_26 
ROOT
HETATM    1  C11 UNL     1       5.375 -37.367  -3.943  1.00  0.00     0.180 C 
HETATM    2  N1  UNL     1       4.698 -37.002  -2.909  1.00  0.00    -0.239 N 
ATOM      3  H1  UNL     1       4.036 -36.226  -2.915  1.00  0.00     0.197 HD
HETATM    4  O3  UNL     1       4.957 -37.758  -1.811  1.00  0.00    -0.217 OA
HETATM    5  C12 UNL     1       5.693 -38.897  -2.241  1.00  0.00     0.451 C 
HETATM    6  O7  UNL     1       6.134 -38.435  -3.502  1.00  0.00    -0.276 OA
ENDROOT
BRANCH   5   7
HETATM    7  O4  UNL     1       6.757 -39.177  -1.401  1.00  0.00    -0.295 OA
BRANCH   7   8
HETATM    8  C13 UNL     1       8.051 -39.514  -1.759  1.00  0.00     0.074 A 
HETATM    9  C14 UNL     1       8.785 -40.338  -0.911  1.00  0.00     0.038 A 
HETATM   10  C15 UNL     1      10.079 -40.711  -1.210  1.00  0.00     0.015 A 
HETATM   11  C16 UNL     1      10.719 -40.294  -2.359  1.00  0.00    -0.016 A 
HETATM   12  C21 UNL     1       9.995 -39.476  -3.203  1.00  0.00     0.015 A 
HETATM   13  C22 UNL     1       8.686 -39.094  -2.907  1.00  0.00     0.038 A 
BRANCH  11  14
HETATM   14  C17 UNL     1      12.086 -40.702  -2.665  1.00  0.00     0.093 A 
HETATM   15  C18 UNL     1      12.453 -41.976  -3.037  1.00  0.00     0.159 A 
HETATM   16  N2  UNL     1      13.744 -42.296  -3.310  1.00  0.00    -0.313 N 
HETATM   17  C19 UNL     1      14.698 -41.351  -3.219  1.00  0.00     0.180 A 
ATOM     18  H2  UNL     1      13.989 -43.247  -3.583  1.00  0.00     0.170 HD
HETATM   19  S1  UNL     1      16.253 -41.779  -3.560  1.00  0.00    -0.040 SA
HETATM   20  N3  UNL     1      14.364 -40.103  -2.858  1.00  0.00    -0.299 N 
HETATM   21  C20 UNL     1      13.087 -39.757  -2.581  1.00  0.00     0.263 A 
ATOM     22  H3  UNL     1      15.094 -39.394  -2.792  1.00  0.00     0.171 HD
HETATM   23  O6  UNL     1      12.794 -38.571  -2.242  1.00  0.00    -0.267 OA
BRANCH  15  24
HETATM   24  O5  UNL     1      11.474 -42.954  -3.134  1.00  0.00    -0.345 OA
ATOM     25  H5  UNL     1      11.382 -43.432  -3.949  1.00  0.00     0.219 HD
ENDBRANCH  15  24
ENDBRANCH  11  14
ENDBRANCH   7   8
ENDBRANCH   5   7
BRANCH   1  26
HETATM   26  C10 UNL     1       5.309 -36.738  -5.279  1.00  0.00     0.060 A 
HETATM   27  C3  UNL     1       6.419 -36.364  -5.996  1.00  0.00    -0.038 A 
HETATM   28  C4  UNL     1       6.302 -35.797  -7.281  1.00  0.00     0.048 A 
HETATM   29  C5  UNL     1       5.071 -35.603  -7.846  1.00  0.00     0.110 A 
HETATM   30  C7  UNL     1       3.960 -35.973  -7.135  1.00  0.00     0.183 A 
HETATM   31  F1  UNL     1       2.744 -35.788  -7.682  1.00  0.00    -0.200 F 
HETATM   32  C8  UNL     1       4.078 -36.539  -5.854  1.00  0.00     0.124 A 
BRANCH  27  33
HETATM   33  C2  UNL     1       7.763 -36.538  -5.435  1.00  0.00     0.035 C 
HETATM   34  C1  UNL     1       8.814 -35.644  -6.056  1.00  0.00     0.010 C 
ENDBRANCH  27  33
BRANCH  29  35
HETATM   35  O1  UNL     1       5.002 -35.041  -9.115  1.00  0.00    -0.353 OA
HETATM   36  C6  UNL     1       4.940 -35.802 -10.290  1.00  0.00     0.210 C 
ENDBRANCH  29  35
BRANCH  32  37
HETATM   37  O2  UNL     1       2.897 -36.879  -5.214  1.00  0.00    -0.352 OA
HETATM   38  C9  UNL     1       2.019 -35.858  -4.709  1.00  0.00     0.210 C 
ENDBRANCH  32  37
ENDBRANCH   1  26
TORSDOF 8
ENDMDL
MODEL 5
REMARK VINA RESULT: -9.122645411      4.488      9.286
REMARK  8 active torsions:
REMARK  status: ('A' for Active; 'I' for Inactive)
REMARK    1  A    between atoms: C2_2  and  C3_3 
REMARK    2  A    between atoms: C5_5  and  O1_6 
REMARK    3  A    between atoms: C8_10  and  O2_11 
REMARK    4  A    between atoms: C10_13  and  C11_14 
REMARK    5  A    between atoms: C12_18  and  O4_19 
REMARK    6  A    between atoms: O4_19  and  C13_20 
REMARK    7  A    between atoms: C16_23  and  C17_24 
REMARK    8  A    between atoms: C18_25  and  O5_26 
ROOT
HETATM    1  C11 UNL     1       7.681 -39.623  -1.988  1.00  0.00     0.180 C 
HETATM    2  N1  UNL     1       6.822 -40.545  -2.260  1.00  0.00    -0.239 N 
ATOM      3  H1  UNL     1       7.060 -41.410  -2.747  1.00  0.00     0.197 HD
HETATM    4  O3  UNL     1       5.570 -40.247  -1.830  1.00  0.00    -0.217 OA
HETATM    5  C12 UNL     1       5.671 -39.125  -0.962  1.00  0.00     0.451 C 
HETATM    6  O7  UNL     1       6.950 -38.649  -1.335  1.00  0.00    -0.276 OA
ENDROOT
BRANCH   5   7
HETATM    7  O4  UNL     1       4.687 -38.184  -1.208  1.00  0.00    -0.295 OA
BRANCH   7   8
HETATM    8  C13 UNL     1       4.280 -37.686  -2.434  1.00  0.00     0.074 A 
HETATM    9  C14 UNL     1       4.048 -36.319  -2.556  1.00  0.00     0.038 A 
HETATM   10  C15 UNL     1       3.643 -35.760  -3.750  1.00  0.00     0.015 A 
HETATM   11  C16 UNL     1       3.444 -36.516  -4.888  1.00  0.00    -0.016 A 
HETATM   12  C21 UNL     1       3.673 -37.872  -4.772  1.00  0.00     0.015 A 
HETATM   13  C22 UNL     1       4.083 -38.445  -3.567  1.00  0.00     0.038 A 
BRANCH  11  14
HETATM   14  C17 UNL     1       3.021 -35.909  -6.145  1.00  0.00     0.093 A 
HETATM   15  C18 UNL     1       1.710 -35.672  -6.493  1.00  0.00     0.159 A 
HETATM   16  N2  UNL     1       1.379 -35.104  -7.680  1.00  0.00    -0.313 N 
HETATM   17  C19 UNL     1       2.348 -34.758  -8.548  1.00  0.00     0.180 A 
ATOM     18  H2  UNL     1       0.400 -34.939  -7.914  1.00  0.00     0.170 HD
HETATM   19  S1  UNL     1       1.903 -34.069  -9.978  1.00  0.00    -0.040 SA
HETATM   20  N3  UNL     1       3.632 -34.980  -8.231  1.00  0.00    -0.299 N 
HETATM   21  C20 UNL     1       3.991 -35.544  -7.056  1.00  0.00     0.263 A 
ATOM     22  H3  UNL     1       4.359 -34.715  -8.895  1.00  0.00     0.171 HD
HETATM   23  O6  UNL     1       5.211 -35.745  -6.777  1.00  0.00    -0.267 OA
BRANCH  15  24
HETATM   24  O5  UNL     1       0.706 -36.026  -5.603  1.00  0.00    -0.345 OA
ATOM     25  H5  UNL     1       0.009 -35.405  -5.429  1.00  0.00     0.219 HD
ENDBRANCH  15  24
ENDBRANCH  11  14
ENDBRANCH   7   8
ENDBRANCH   5   7
BRANCH   1  26
HETATM   26  C10 UNL     1       9.119 -39.661  -2.328  1.00  0.00     0.060 A 
HETATM   27  C3  UNL     1       9.680 -38.912  -3.333  1.00  0.00    -0.038 A 
HETATM   28  C4  UNL     1      11.064 -38.961  -3.596  1.00  0.00     0.048 A 
HETATM   29  C5  UNL     1      11.885 -39.763  -2.852  1.00  0.00     0.110 A 
HETATM   30  C7  UNL     1      11.331 -40.515  -1.848  1.00  0.00     0.183 A 
HETATM   31  F1  UNL     1      12.130 -41.307  -1.109  1.00  0.00    -0.200 F 
HETATM   32  C8  UNL     1       9.951 -40.464  -1.587  1.00  0.00     0.124 A 
BRANCH  27  33
HETATM   33  C2  UNL     1       8.846 -38.043  -4.170  1.00  0.00     0.035 C 
HETATM   34  C1  UNL     1       9.614 -36.962  -4.899  1.00  0.00     0.010 C 
ENDBRANCH  27  33
BRANCH  29  35
HETATM   35  O1  UNL     1      13.243 -39.781  -3.145  1.00  0.00    -0.353 OA
HETATM   36  C6  UNL     1      13.913 -40.916  -3.620  1.00  0.00     0.210 C 
ENDBRANCH  29  35
BRANCH  32  37
HETATM   37  O2  UNL     1       9.485 -41.262  -0.554  1.00  0.00    -0.352 OA
HETATM   38  C9  UNL     1       9.598 -40.827   0.813  1.00  0.00     0.210 C 
ENDBRANCH  32  37
ENDBRANCH   1  26
TORSDOF 8
ENDMDL
