MODEL 1
REMARK VINA RESULT: -7.680845093      0.000      0.000
REMARK  13 active torsions:
REMARK  status: ('A' for Active; 'I' for Inactive)
REMARK    1  A    between atoms: C2_2  and  C3_3 
REMARK    2  A    between atoms: C3_3  and  O1_4 
REMARK    3  A    between atoms: C3_3  and  C16_23 
REMARK    4  A    between atoms: O1_4  and  N1_5 
REMARK    5  A    between atoms: C5_7  and  C6_8 
REMARK    6  A    between atoms: C6_8  and  O2_9 
REMARK       I    between atoms: N2_11  and  C8_13 
REMARK    7  A    between atoms: C13_19  and  O4_20 
REMARK    8  A    between atoms: C18_26  and  C19_27 
REMARK    9  A    between atoms: C19_27  and  C20_28 
REMARK   10  A    between atoms: C20_28  and  O5_29 
REMARK   11  A    between atoms: C20_28  and  N3_31 
REMARK   12  A    between atoms: N3_31  and  O6_33 
REMARK   13  A    between atoms: C22_37  and  O7_38 
ROOT
HETATM    1  C3  UNL     1       7.709 -38.663  -3.527  1.00  0.00     0.195 C 
ENDROOT
BRANCH   1   2
HETATM    2  C2  UNL     1       6.367 -39.387  -3.540  1.00  0.00     0.036 C 
HETATM    3  C1  UNL     1       6.412 -40.709  -4.247  1.00  0.00     0.008 C 
ENDBRANCH   1   2
BRANCH   1   4
HETATM    4  O1  UNL     1       8.768 -39.469  -3.692  1.00  0.00    -0.268 OA
BRANCH   4   5
HETATM    5  N1  UNL     1       9.518 -39.833  -2.666  1.00  0.00    -0.266 N 
HETATM    6  C4  UNL     1      10.915 -39.681  -2.775  1.00  0.00     0.129 C 
HETATM    7  C5  UNL     1      11.774 -40.481  -2.114  1.00  0.00     0.021 C 
HETATM    8  C10 UNL     1      11.234 -41.445  -1.197  1.00  0.00     0.013 C 
HETATM    9  C11 UNL     1      12.100 -41.421   0.080  1.00  0.00     0.023 C 
HETATM   10  C12 UNL     1      11.376 -42.830  -1.802  1.00  0.00     0.023 C 
HETATM   11  C13 UNL     1       9.785 -41.293  -0.743  1.00  0.00     0.153 C 
HETATM   12  C15 UNL     1       8.946 -40.341  -1.473  1.00  0.00     0.188 C 
BRANCH   7  13
HETATM   13  C6  UNL     1      13.169 -40.198  -2.333  1.00  0.00     0.153 C 
HETATM   14  N2  UNL     1      14.355 -40.703  -2.782  1.00  0.00    -0.303 N 
HETATM   15  C7  UNL     1      15.562 -39.782  -2.428  1.00  0.00     0.161 C 
HETATM   16  C8  UNL     1      14.820 -41.753  -3.553  1.00  0.00     0.221 C 
HETATM   17  C9  UNL     1      16.338 -41.870  -3.839  1.00  0.00     0.117 C 
HETATM   18  O3  UNL     1      14.175 -42.660  -4.075  1.00  0.00    -0.273 OA
BRANCH  13  19
HETATM   19  O2  UNL     1      13.454 -38.875  -1.931  1.00  0.00    -0.345 OA
ATOM     20  H2  UNL     1      13.840 -38.398  -2.656  1.00  0.00     0.219 HD
ENDBRANCH  13  19
ENDBRANCH   7  13
BRANCH  11  21
HETATM   21  O4  UNL     1       9.266 -42.575  -0.622  1.00  0.00    -0.388 OA
HETATM   22  C14 UNL     1       7.946 -42.655  -0.341  1.00  0.00     0.202 C 
ENDBRANCH  11  21
ENDBRANCH   4   5
ENDBRANCH   1   4
BRANCH   1  23
HETATM   23  C16 UNL     1       7.604 -37.611  -4.575  1.00  0.00     0.051 A 
HETATM   24  S1  UNL     1       6.245 -37.179  -5.502  1.00  0.00    -0.086 SA
HETATM   25  C17 UNL     1       6.889 -35.946  -6.483  1.00  0.00     0.047 A 
HETATM   26  C18 UNL     1       6.294 -35.125  -7.516  1.00  0.00     0.026 C 
HETATM   27  C21 UNL     1       8.205 -35.910  -6.034  1.00  0.00     0.167 A 
HETATM   28  F1  UNL     1       9.095 -35.001  -6.606  1.00  0.00    -0.202 F 
HETATM   29  C22 UNL     1       8.555 -36.756  -5.069  1.00  0.00     0.121 A 
BRANCH  26  30
HETATM   30  C19 UNL     1       5.116 -35.068  -7.995  1.00  0.00     0.059 C 
BRANCH  30  31
HETATM   31  C20 UNL     1       4.536 -35.437  -9.256  1.00  0.00     0.159 C 
BRANCH  31  32
HETATM   32  O5  UNL     1       3.114 -35.319  -9.368  1.00  0.00    -0.345 OA
ATOM     33  H5  UNL     1       2.756 -35.305 -10.248  1.00  0.00     0.219 HD
ENDBRANCH  31  32
BRANCH  31  34
HETATM   34  N3  UNL     1       5.089 -35.859 -10.309  1.00  0.00    -0.248 N 
ATOM     35  H3  UNL     1       5.880 -36.494 -10.200  1.00  0.00     0.196 HD
BRANCH  34  36
HETATM   36  O6  UNL     1       4.719 -35.540 -11.573  1.00  0.00    -0.288 OA
ATOM     37  H6  UNL     1       4.246 -36.109 -12.169  1.00  0.00     0.244 HD
ENDBRANCH  34  36
ENDBRANCH  31  34
ENDBRANCH  30  31
ENDBRANCH  26  30
BRANCH  29  38
HETATM   38  O7  UNL     1       9.861 -36.826  -4.517  1.00  0.00    -0.357 OA
ATOM     39  H7  UNL     1      10.285 -37.676  -4.489  1.00  0.00     0.218 HD
ENDBRANCH  29  38
ENDBRANCH   1  23
TORSDOF 13
ENDMDL
MODEL 2
REMARK VINA RESULT: -7.576573518      3.306      9.795
REMARK  13 active torsions:
REMARK  status: ('A' for Active; 'I' for Inactive)
REMARK    1  A    between atoms: C2_2  and  C3_3 
REMARK    2  A    between atoms: C3_3  and  O1_4 
REMARK    3  A    between atoms: C3_3  and  C16_23 
REMARK    4  A    between atoms: O1_4  and  N1_5 
REMARK    5  A    between atoms: C5_7  and  C6_8 
REMARK    6  A    between atoms: C6_8  and  O2_9 
REMARK       I    between atoms: N2_11  and  C8_13 
REMARK    7  A    between atoms: C13_19  and  O4_20 
REMARK    8  A    between atoms: C18_26  and  C19_27 
REMARK    9  A    between atoms: C19_27  and  C20_28 
REMARK   10  A    between atoms: C20_28  and  O5_29 
REMARK   11  A    between atoms: C20_28  and  N3_31 
REMARK   12  A    between atoms: N3_31  and  O6_33 
REMARK   13  A    between atoms: C22_37  and  O7_38 
ROOT
HETATM    1  C3  UNL     1       7.502 -37.807  -4.520  1.00  0.00     0.195 C 
ENDROOT
BRANCH   1   2
HETATM    2  C2  UNL     1       8.535 -37.338  -5.539  1.00  0.00     0.036 C 
HETATM    3  C1  UNL     1       8.795 -35.861  -5.485  1.00  0.00     0.008 C 
ENDBRANCH   1   2
BRANCH   1   4
HETATM    4  O1  UNL     1       6.476 -38.488  -5.052  1.00  0.00    -0.268 OA
BRANCH   4   5
HETATM    5  N1  UNL     1       5.239 -38.029  -4.982  1.00  0.00    -0.266 N 
HETATM    6  C4  UNL     1       4.917 -36.869  -5.716  1.00  0.00     0.129 C 
HETATM    7  C5  UNL     1       3.951 -36.018  -5.319  1.00  0.00     0.021 C 
HETATM    8  C10 UNL     1       3.168 -36.372  -4.169  1.00  0.00     0.013 C 
HETATM    9  C11 UNL     1       1.691 -36.056  -4.486  1.00  0.00     0.023 C 
HETATM   10  C12 UNL     1       3.571 -35.480  -3.008  1.00  0.00     0.023 C 
HETATM   11  C13 UNL     1       3.207 -37.813  -3.669  1.00  0.00     0.153 C 
HETATM   12  C15 UNL     1       4.245 -38.688  -4.216  1.00  0.00     0.188 C 
BRANCH   7  13
HETATM   13  C6  UNL     1       3.746 -34.879  -6.176  1.00  0.00     0.153 C 
HETATM   14  N2  UNL     1       3.070 -34.407  -7.264  1.00  0.00    -0.303 N 
HETATM   15  C7  UNL     1       3.633 -33.040  -7.761  1.00  0.00     0.161 C 
HETATM   16  C8  UNL     1       1.958 -34.721  -8.023  1.00  0.00     0.221 C 
HETATM   17  C9  UNL     1       1.545 -33.788  -9.187  1.00  0.00     0.117 C 
HETATM   18  O3  UNL     1       1.204 -35.686  -7.908  1.00  0.00    -0.273 OA
BRANCH  13  19
HETATM   19  O2  UNL     1       4.553 -33.806  -5.741  1.00  0.00    -0.345 OA
ATOM     20  H2  UNL     1       4.347 -33.597  -4.838  1.00  0.00     0.219 HD
ENDBRANCH  13  19
ENDBRANCH   7  13
BRANCH  11  21
HETATM   21  O4  UNL     1       3.141 -37.760  -2.283  1.00  0.00    -0.388 OA
HETATM   22  C14 UNL     1       2.992 -38.946  -1.652  1.00  0.00     0.202 C 
ENDBRANCH  11  21
ENDBRANCH   4   5
ENDBRANCH   1   4
BRANCH   1  23
HETATM   23  C16 UNL     1       8.266 -38.590  -3.511  1.00  0.00     0.051 A 
HETATM   24  S1  UNL     1       9.883 -39.110  -3.585  1.00  0.00    -0.086 SA
HETATM   25  C17 UNL     1      10.029 -39.953  -2.113  1.00  0.00     0.047 A 
HETATM   26  C18 UNL     1      11.140 -40.662  -1.514  1.00  0.00     0.026 C 
HETATM   27  C21 UNL     1       8.752 -39.794  -1.588  1.00  0.00     0.167 A 
HETATM   28  F1  UNL     1       8.450 -40.358  -0.348  1.00  0.00    -0.202 F 
HETATM   29  C22 UNL     1       7.869 -39.103  -2.303  1.00  0.00     0.121 A 
BRANCH  26  30
HETATM   30  C19 UNL     1      12.338 -40.862  -1.895  1.00  0.00     0.059 C 
BRANCH  30  31
HETATM   31  C20 UNL     1      13.276 -40.095  -2.666  1.00  0.00     0.159 C 
BRANCH  31  32
HETATM   32  O5  UNL     1      13.905 -40.765  -3.764  1.00  0.00    -0.345 OA
ATOM     33  H5  UNL     1      14.850 -40.847  -3.728  1.00  0.00     0.219 HD
ENDBRANCH  31  32
BRANCH  31  34
HETATM   34  N3  UNL     1      13.649 -38.896  -2.531  1.00  0.00    -0.248 N 
ATOM     35  H3  UNL     1      14.553 -38.735  -2.089  1.00  0.00     0.196 HD
BRANCH  34  36
HETATM   36  O6  UNL     1      12.946 -37.806  -2.925  1.00  0.00    -0.288 OA
ATOM     37  H6  UNL     1      12.014 -37.677  -2.797  1.00  0.00     0.244 HD
ENDBRANCH  34  36
ENDBRANCH  31  34
ENDBRANCH  30  31
ENDBRANCH  26  30
BRANCH  29  38
HETATM   38  O7  UNL     1       6.532 -38.863  -1.888  1.00  0.00    -0.357 OA
ATOM     39  H7  UNL     1       6.315 -37.993  -1.573  1.00  0.00     0.218 HD
ENDBRANCH  29  38
ENDBRANCH   1  23
TORSDOF 13
ENDMDL
MODEL 3
REMARK VINA RESULT: -7.567764887      1.895      2.133
REMARK  13 active torsions:
REMARK  status: ('A' for Active; 'I' for Inactive)
REMARK    1  A    between atoms: C2_2  and  C3_3 
REMARK    2  A    between atoms: C3_3  and  O1_4 
REMARK    3  A    between atoms: C3_3  and  C16_23 
REMARK    4  A    between atoms: O1_4  and  N1_5 
REMARK    5  A    between atoms: C5_7  and  C6_8 
REMARK    6  A    between atoms: C6_8  and  O2_9 
REMARK       I    between atoms: N2_11  and  C8_13 
REMARK    7  A    between atoms: C13_19  and  O4_20 
REMARK    8  A    between atoms: C18_26  and  C19_27 
REMARK    9  A    between atoms: C19_27  and  C20_28 
REMARK   10  A    between atoms: C20_28  and  O5_29 
REMARK   11  A    between atoms: C20_28  and  N3_31 
REMARK   12  A    between atoms: N3_31  and  O6_33 
REMARK   13  A    between atoms: C22_37  and  O7_38 
ROOT
HETATM    1  C3  UNL     1       7.298 -38.600  -4.297  1.00  0.00     0.195 C 
ENDROOT
BRANCH   1   2
HETATM    2  C2  UNL     1       6.856 -39.861  -5.031  1.00  0.00     0.036 C 
HETATM    3  C1  UNL     1       5.941 -40.731  -4.219  1.00  0.00     0.008 C 
ENDBRANCH   1   2
BRANCH   1   4
HETATM    4  O1  UNL     1       8.628 -38.481  -4.164  1.00  0.00    -0.268 OA
BRANCH   4   5
HETATM    5  N1  UNL     1       9.264 -39.010  -3.134  1.00  0.00    -0.266 N 
HETATM    6  C4  UNL     1      10.673 -39.055  -3.172  1.00  0.00     0.129 C 
HETATM    7  C5  UNL     1      11.374 -40.008  -2.528  1.00  0.00     0.021 C 
HETATM    8  C10 UNL     1      10.656 -40.936  -1.701  1.00  0.00     0.013 C 
HETATM    9  C11 UNL     1      11.449 -41.113  -0.389  1.00  0.00     0.023 C 
HETATM   10  C12 UNL     1      10.632 -42.289  -2.390  1.00  0.00     0.023 C 
HETATM   11  C13 UNL     1       9.221 -40.604  -1.302  1.00  0.00     0.153 C 
HETATM   12  C15 UNL     1       8.564 -39.500  -2.002  1.00  0.00     0.188 C 
BRANCH   7  13
HETATM   13  C6  UNL     1      12.805 -39.917  -2.668  1.00  0.00     0.153 C 
HETATM   14  N2  UNL     1      13.953 -40.619  -2.894  1.00  0.00    -0.303 N 
HETATM   15  C7  UNL     1      15.230 -39.769  -2.619  1.00  0.00     0.161 C 
HETATM   16  C8  UNL     1      14.346 -41.847  -3.393  1.00  0.00     0.221 C 
HETATM   17  C9  UNL     1      15.856 -42.172  -3.506  1.00  0.00     0.117 C 
HETATM   18  O3  UNL     1      13.639 -42.775  -3.783  1.00  0.00    -0.273 OA
BRANCH  13  19
HETATM   19  O2  UNL     1      13.212 -38.574  -2.512  1.00  0.00    -0.345 OA
ATOM     20  H2  UNL     1      13.935 -38.529  -1.898  1.00  0.00     0.219 HD
ENDBRANCH  13  19
ENDBRANCH   7  13
BRANCH  11  21
HETATM   21  O4  UNL     1       8.521 -41.803  -1.288  1.00  0.00    -0.388 OA
HETATM   22  C14 UNL     1       7.254 -41.743  -0.820  1.00  0.00     0.202 C 
ENDBRANCH  11  21
ENDBRANCH   4   5
ENDBRANCH   1   4
BRANCH   1  23
HETATM   23  C16 UNL     1       6.680 -37.469  -5.042  1.00  0.00     0.051 A 
HETATM   24  S1  UNL     1       5.082 -36.897  -4.951  1.00  0.00    -0.086 SA
HETATM   25  C17 UNL     1       5.116 -35.631  -6.089  1.00  0.00     0.047 A 
HETATM   26  C18 UNL     1       4.096 -34.704  -6.532  1.00  0.00     0.026 C 
HETATM   27  C21 UNL     1       6.436 -35.699  -6.522  1.00  0.00     0.167 A 
HETATM   28  F1  UNL     1       6.882 -34.799  -7.490  1.00  0.00    -0.202 F 
HETATM   29  C22 UNL     1       7.217 -36.632  -5.986  1.00  0.00     0.121 A 
BRANCH  26  30
HETATM   30  C19 UNL     1       2.877 -34.548  -6.203  1.00  0.00     0.059 C 
BRANCH  30  31
HETATM   31  C20 UNL     1       1.659 -34.386  -6.947  1.00  0.00     0.159 C 
BRANCH  31  32
HETATM   32  O5  UNL     1       0.761 -35.500  -6.961  1.00  0.00    -0.345 OA
ATOM     33  H5  UNL     1       0.588 -35.918  -6.127  1.00  0.00     0.219 HD
ENDBRANCH  31  32
BRANCH  31  34
HETATM   34  N3  UNL     1       1.240 -33.396  -7.609  1.00  0.00    -0.248 N 
ATOM     35  H3  UNL     1       1.125 -33.521  -8.615  1.00  0.00     0.196 HD
BRANCH  34  36
HETATM   36  O6  UNL     1       0.929 -32.181  -7.094  1.00  0.00    -0.288 OA
ATOM     37  H6  UNL     1       1.099 -31.346  -7.513  1.00  0.00     0.244 HD
ENDBRANCH  34  36
ENDBRANCH  31  34
ENDBRANCH  30  31
ENDBRANCH  26  30
BRANCH  29  38
HETATM   38  O7  UNL     1       8.582 -36.814  -6.334  1.00  0.00    -0.357 OA
ATOM     39  H7  UNL     1       9.052 -37.531  -5.925  1.00  0.00     0.218 HD
ENDBRANCH  29  38
ENDBRANCH   1  23
TORSDOF 13
ENDMDL
MODEL 4
REMARK VINA RESULT: -7.507134203      3.693     10.067
REMARK  13 active torsions:
REMARK  status: ('A' for Active; 'I' for Inactive)
REMARK    1  A    between atoms: C2_2  and  C3_3 
REMARK    2  A    between atoms: C3_3  and  O1_4 
REMARK    3  A    between atoms: C3_3  and  C16_23 
REMARK    4  A    between atoms: O1_4  and  N1_5 
REMARK    5  A    between atoms: C5_7  and  C6_8 
REMARK    6  A    between atoms: C6_8  and  O2_9 
REMARK       I    between atoms: N2_11  and  C8_13 
REMARK    7  A    between atoms: C13_19  and  O4_20 
REMARK    8  A    between atoms: C18_26  and  C19_27 
REMARK    9  A    between atoms: C19_27  and  C20_28 
REMARK   10  A    between atoms: C20_28  and  O5_29 
REMARK   11  A    between atoms: C20_28  and  N3_31 
REMARK   12  A    between atoms: N3_31  and  O6_33 
REMARK   13  A    between atoms: C22_37  and  O7_38 
ROOT
HETATM    1  C3  UNL     1       7.978 -37.004  -5.142  1.00  0.00     0.195 C 
ENDROOT
BRANCH   1   2
HETATM    2  C2  UNL     1       9.167 -36.539  -5.976  1.00  0.00     0.036 C 
HETATM    3  C1  UNL     1       9.168 -35.062  -6.238  1.00  0.00     0.008 C 
ENDBRANCH   1   2
BRANCH   1   4
HETATM    4  O1  UNL     1       6.895 -37.329  -5.864  1.00  0.00    -0.268 OA
BRANCH   4   5
HETATM    5  N1  UNL     1       5.777 -36.631  -5.775  1.00  0.00    -0.266 N 
HETATM    6  C4  UNL     1       4.788 -37.071  -4.870  1.00  0.00     0.129 C 
HETATM    7  C5  UNL     1       3.478 -36.833  -5.074  1.00  0.00     0.021 C 
HETATM    8  C10 UNL     1       3.103 -36.019  -6.195  1.00  0.00     0.013 C 
HETATM    9  C11 UNL     1       2.010 -35.037  -5.723  1.00  0.00     0.023 C 
HETATM   10  C12 UNL     1       2.473 -36.905  -7.256  1.00  0.00     0.023 C 
HETATM   11  C13 UNL     1       4.175 -35.179  -6.883  1.00  0.00     0.153 C 
HETATM   12  C15 UNL     1       5.572 -35.456  -6.541  1.00  0.00     0.188 C 
BRANCH   7  13
HETATM   13  C6  UNL     1       2.596 -37.350  -4.059  1.00  0.00     0.153 C 
HETATM   14  N2  UNL     1       1.486 -38.110  -3.825  1.00  0.00    -0.303 N 
HETATM   15  C7  UNL     1       0.975 -37.971  -2.358  1.00  0.00     0.161 C 
HETATM   16  C8  UNL     1       0.712 -39.058  -4.468  1.00  0.00     0.221 C 
HETATM   17  C9  UNL     1      -0.478 -39.704  -3.716  1.00  0.00     0.117 C 
HETATM   18  O3  UNL     1       0.831 -39.491  -5.613  1.00  0.00    -0.273 OA
BRANCH  13  19
HETATM   19  O2  UNL     1       3.025 -36.912  -2.789  1.00  0.00    -0.345 OA
ATOM     20  H2  UNL     1       2.534 -36.140  -2.534  1.00  0.00     0.219 HD
ENDBRANCH  13  19
ENDBRANCH   7  13
BRANCH  11  21
HETATM   21  O4  UNL     1       3.881 -35.186  -8.240  1.00  0.00    -0.388 OA
HETATM   22  C14 UNL     1       4.935 -35.334  -9.073  1.00  0.00     0.202 C 
ENDBRANCH  11  21
ENDBRANCH   4   5
ENDBRANCH   1   4
BRANCH   1  23
HETATM   23  C16 UNL     1       8.489 -38.128  -4.312  1.00  0.00     0.051 A 
HETATM   24  S1  UNL     1      10.035 -38.317  -3.631  1.00  0.00    -0.086 SA
HETATM   25  C17 UNL     1       9.878 -39.829  -2.864  1.00  0.00     0.047 A 
HETATM   26  C18 UNL     1      10.811 -40.618  -2.086  1.00  0.00     0.026 C 
HETATM   27  C21 UNL     1       8.563 -40.152  -3.179  1.00  0.00     0.167 A 
HETATM   28  F1  UNL     1       8.029 -41.357  -2.721  1.00  0.00    -0.202 F 
HETATM   29  C22 UNL     1       7.870 -39.285  -3.911  1.00  0.00     0.121 A 
BRANCH  26  30
HETATM   30  C19 UNL     1      12.018 -40.420  -1.734  1.00  0.00     0.059 C 
BRANCH  30  31
HETATM   31  C20 UNL     1      13.202 -40.007  -2.433  1.00  0.00     0.159 C 
BRANCH  31  32
HETATM   32  O5  UNL     1      13.891 -41.015  -3.182  1.00  0.00    -0.345 OA
ATOM     33  H5  UNL     1      13.989 -41.862  -2.765  1.00  0.00     0.219 HD
ENDBRANCH  31  32
BRANCH  31  34
HETATM   34  N3  UNL     1      13.752 -38.872  -2.497  1.00  0.00    -0.248 N 
ATOM     35  H3  UNL     1      14.751 -38.825  -2.300  1.00  0.00     0.196 HD
BRANCH  34  36
HETATM   36  O6  UNL     1      13.124 -37.712  -2.807  1.00  0.00    -0.288 OA
ATOM     37  H6  UNL     1      12.355 -37.633  -3.359  1.00  0.00     0.244 HD
ENDBRANCH  34  36
ENDBRANCH  31  34
ENDBRANCH  30  31
ENDBRANCH  26  30
BRANCH  29  38
HETATM   38  O7  UNL     1       6.520 -39.485  -4.304  1.00  0.00    -0.357 OA
ATOM     39  H7  UNL     1       5.847 -39.395  -3.640  1.00  0.00     0.218 HD
ENDBRANCH  29  38
ENDBRANCH   1  23
TORSDOF 13
ENDMDL
MODEL 5
REMARK VINA RESULT: -7.487008398      2.585      3.175
REMARK  13 active torsions:
REMARK  status: ('A' for Active; 'I' for Inactive)
REMARK    1  A    between atoms: C2_2  and  C3_3 
REMARK    2  A    between atoms: C3_3  and  O1_4 
REMARK    3  A    between atoms: C3_3  and  C16_23 
REMARK    4  A    between atoms: O1_4  and  N1_5 
REMARK    5  A    between atoms: C5_7  and  C6_8 
REMARK    6  A    between atoms: C6_8  and  O2_9 
REMARK       I    between atoms: N2_11  and  C8_13 
REMARK    7  A    between atoms: C13_19  and  O4_20 
REMARK    8  A    between atoms: C18_26  and  C19_27 
REMARK    9  A    between atoms: C19_27  and  C20_28 
REMARK   10  A    between atoms: C20_28  and  O5_29 
REMARK   11  A    between atoms: C20_28  and  N3_31 
REMARK   12  A    between atoms: N3_31  and  O6_33 
REMARK   13  A    between atoms: C22_37  and  O7_38 
ROOT
HETATM    1  C3  UNL     1       5.221 -38.086  -3.992  1.00  0.00     0.195 C 
ENDROOT
BRANCH   1   2
HETATM    2  C2  UNL     1       3.911 -38.824  -4.248  1.00  0.00     0.036 C 
HETATM    3  C1  UNL     1       3.039 -38.925  -3.030  1.00  0.00     0.008 C 
ENDBRANCH   1   2
BRANCH   1   4
HETATM    4  O1  UNL     1       6.311 -38.864  -4.065  1.00  0.00    -0.268 OA
BRANCH   4   5
HETATM    5  N1  UNL     1       7.062 -39.092  -3.002  1.00  0.00    -0.266 N 
HETATM    6  C4  UNL     1       8.437 -39.340  -3.199  1.00  0.00     0.129 C 
HETATM    7  C5  UNL     1       9.153 -40.104  -2.351  1.00  0.00     0.021 C 
HETATM    8  C10 UNL     1       8.506 -40.587  -1.164  1.00  0.00     0.013 C 
HETATM    9  C11 UNL     1       9.488 -40.414   0.014  1.00  0.00     0.023 C 
HETATM   10  C12 UNL     1       8.255 -42.077  -1.314  1.00  0.00     0.023 C 
HETATM   11  C13 UNL     1       7.191 -39.946  -0.732  1.00  0.00     0.153 C 
HETATM   12  C15 UNL     1       6.522 -39.067  -1.693  1.00  0.00     0.188 C 
BRANCH   7  13
HETATM   13  C6  UNL     1      10.543 -40.263  -2.693  1.00  0.00     0.153 C 
HETATM   14  N2  UNL     1      11.583 -41.144  -2.763  1.00  0.00    -0.303 N 
HETATM   15  C7  UNL     1      12.947 -40.429  -3.010  1.00  0.00     0.161 C 
HETATM   16  C8  UNL     1      11.798 -42.509  -2.778  1.00  0.00     0.221 C 
HETATM   17  C9  UNL     1      13.240 -43.049  -2.940  1.00  0.00     0.117 C 
HETATM   18  O3  UNL     1      10.970 -43.413  -2.675  1.00  0.00    -0.273 OA
BRANCH  13  19
HETATM   19  O2  UNL     1      11.066 -39.029  -3.136  1.00  0.00    -0.345 OA
ATOM     20  H2  UNL     1      12.012 -39.090  -3.203  1.00  0.00     0.219 HD
ENDBRANCH  13  19
ENDBRANCH   7  13
BRANCH  11  21
HETATM   21  O4  UNL     1       6.404 -40.960  -0.203  1.00  0.00    -0.388 OA
HETATM   22  C14 UNL     1       5.070 -40.741  -0.215  1.00  0.00     0.202 C 
ENDBRANCH  11  21
ENDBRANCH   4   5
ENDBRANCH   1   4
BRANCH   1  23
HETATM   23  C16 UNL     1       5.238 -36.959  -4.964  1.00  0.00     0.051 A 
HETATM   24  S1  UNL     1       4.004 -35.840  -5.302  1.00  0.00    -0.086 SA
HETATM   25  C17 UNL     1       4.734 -34.895  -6.515  1.00  0.00     0.047 A 
HETATM   26  C18 UNL     1       4.255 -33.756  -7.269  1.00  0.00     0.026 C 
HETATM   27  C21 UNL     1       5.976 -35.512  -6.621  1.00  0.00     0.167 A 
HETATM   28  F1  UNL     1       6.904 -35.020  -7.539  1.00  0.00    -0.202 F 
HETATM   29  C22 UNL     1       6.220 -36.554  -5.832  1.00  0.00     0.121 A 
BRANCH  26  30
HETATM   30  C19 UNL     1       3.157 -33.113  -7.250  1.00  0.00     0.059 C 
BRANCH  30  31
HETATM   31  C20 UNL     1       1.777 -33.499  -7.348  1.00  0.00     0.159 C 
BRANCH  31  32
HETATM   32  O5  UNL     1       0.805 -32.467  -7.148  1.00  0.00    -0.345 OA
ATOM     33  H5  UNL     1       0.938 -31.897  -6.400  1.00  0.00     0.219 HD
ENDBRANCH  31  32
BRANCH  31  34
HETATM   34  N3  UNL     1       1.266 -34.629  -7.587  1.00  0.00    -0.248 N 
ATOM     35  H3  UNL     1       1.429 -35.028  -8.511  1.00  0.00     0.196 HD
BRANCH  34  36
HETATM   36  O6  UNL     1       0.521 -35.354  -6.718  1.00  0.00    -0.288 OA
ATOM     37  H6  UNL     1      -0.324 -35.743  -6.910  1.00  0.00     0.244 HD
ENDBRANCH  34  36
ENDBRANCH  31  34
ENDBRANCH  30  31
ENDBRANCH  26  30
BRANCH  29  38
HETATM   38  O7  UNL     1       7.443 -37.276  -5.834  1.00  0.00    -0.357 OA
ATOM     39  H7  UNL     1       7.895 -37.379  -6.664  1.00  0.00     0.218 HD
ENDBRANCH  29  38
ENDBRANCH   1  23
TORSDOF 13
ENDMDL
