MODEL 1
REMARK VINA RESULT: -7.238768660      0.000      0.000
REMARK  10 active torsions:
REMARK  status: ('A' for Active; 'I' for Inactive)
REMARK    1  A    between atoms: O1_2  and  C2_3 
REMARK    2  A    between atoms: C4_7  and  O2_8 
REMARK    3  A    between atoms: O2_8  and  C5_9 
REMARK    4  A    between atoms: C6_11  and  C7_12 
REMARK    5  A    between atoms: C7_12  and  O4_13 
REMARK    6  A    between atoms: O4_13  and  C8_14 
REMARK    7  A    between atoms: C14_20  and  O5_21 
REMARK    8  A    between atoms: C15_23  and  O6_24 
REMARK    9  A    between atoms: C16_26  and  O7_27 
REMARK   10  A    between atoms: C17_29  and  C18_30 
ROOT
HETATM    1  C5  UNL     1       3.858 -37.784  -5.020  1.00  0.00     0.298 C 
HETATM    2  O3  UNL     1       3.381 -36.759  -5.860  1.00  0.00    -0.348 OA
HETATM    3  C6  UNL     1       2.031 -36.592  -5.772  1.00  0.00     0.179 C 
HETATM    4  C14 UNL     1       1.676 -36.290  -4.329  1.00  0.00     0.180 C 
HETATM    5  C15 UNL     1       1.808 -37.626  -3.592  1.00  0.00     0.183 C 
HETATM    6  C16 UNL     1       2.775 -38.527  -4.342  1.00  0.00     0.205 C 
ENDROOT
BRANCH   1   7
HETATM    7  O2  UNL     1       4.865 -37.249  -4.171  1.00  0.00    -0.314 OA
BRANCH   7   8
HETATM    8  C4  UNL     1       6.255 -37.481  -4.430  1.00  0.00     0.115 A 
HETATM    9  C3  UNL     1       6.863 -36.708  -5.400  1.00  0.00     0.111 A 
HETATM   10  S1  UNL     1       8.468 -37.259  -5.417  1.00  0.00    -0.050 SA
HETATM   11 CL1  UNL     1       6.098 -35.434  -6.384  1.00  0.00    -0.073 Cl
HETATM   12  C2  UNL     1       8.353 -38.451  -4.209  1.00  0.00     0.124 A 
HETATM   13  C17 UNL     1       7.045 -38.389  -3.813  1.00  0.00     0.051 A 
BRANCH  12  14
HETATM   14  O1  UNL     1       9.359 -39.319  -3.708  1.00  0.00    -0.348 OA
HETATM   15  C1  UNL     1      10.648 -38.796  -3.489  1.00  0.00     0.211 C 
ENDBRANCH  12  14
BRANCH  13  16
HETATM   16  C18 UNL     1       6.611 -39.319  -2.707  1.00  0.00    -0.013 A 
HETATM   17  C19 UNL     1       6.342 -40.627  -2.917  1.00  0.00     0.020 A 
HETATM   18  C20 UNL     1       5.942 -41.364  -1.842  1.00  0.00     0.050 A 
HETATM   19  S2  UNL     1       5.948 -40.232  -0.569  1.00  0.00    -0.113 SA
HETATM   20  C21 UNL     1       6.459 -38.848  -1.436  1.00  0.00     0.062 A 
ENDBRANCH  13  16
ENDBRANCH   7   8
ENDBRANCH   1   7
BRANCH   6  21
HETATM   21  O7  UNL     1       3.269 -39.415  -3.404  1.00  0.00    -0.388 OA
ATOM     22  H7  UNL     1       2.829 -39.324  -2.567  1.00  0.00     0.210 HD
ENDBRANCH   6  21
BRANCH   3  23
HETATM   23  C7  UNL     1       1.517 -35.506  -6.698  1.00  0.00     0.203 C 
BRANCH  23  24
HETATM   24  O4  UNL     1       2.319 -34.370  -6.634  1.00  0.00    -0.383 OA
BRANCH  24  25
HETATM   25  C8  UNL     1       2.475 -33.757  -7.859  1.00  0.00     0.121 C 
HETATM   26  C9  UNL     1       1.427 -34.281  -8.810  1.00  0.00     0.032 C 
HETATM   27  C10 UNL     1       1.870 -34.293 -10.244  1.00  0.00     0.002 C 
HETATM   28  C11 UNL     1       3.146 -35.045 -10.482  1.00  0.00     0.000 C 
HETATM   29  C12 UNL     1       3.951 -35.190  -9.216  1.00  0.00     0.002 C 
HETATM   30  C13 UNL     1       3.866 -33.881  -8.437  1.00  0.00     0.032 C 
ENDBRANCH  24  25
ENDBRANCH  23  24
ENDBRANCH   3  23
BRANCH   5  31
HETATM   31  O6  UNL     1       0.561 -38.233  -3.626  1.00  0.00    -0.390 OA
ATOM     32  H6  UNL     1       0.630 -38.976  -4.214  1.00  0.00     0.210 HD
ENDBRANCH   5  31
BRANCH   4  33
HETATM   33  O5  UNL     1       2.621 -35.422  -3.829  1.00  0.00    -0.390 OA
ATOM     34  H5  UNL     1       2.352 -34.536  -4.045  1.00  0.00     0.210 HD
ENDBRANCH   4  33
TORSDOF 10
ENDMDL
MODEL 2
REMARK VINA RESULT: -7.212002111      2.064      3.269
REMARK  10 active torsions:
REMARK  status: ('A' for Active; 'I' for Inactive)
REMARK    1  A    between atoms: O1_2  and  C2_3 
REMARK    2  A    between atoms: C4_7  and  O2_8 
REMARK    3  A    between atoms: O2_8  and  C5_9 
REMARK    4  A    between atoms: C6_11  and  C7_12 
REMARK    5  A    between atoms: C7_12  and  O4_13 
REMARK    6  A    between atoms: O4_13  and  C8_14 
REMARK    7  A    between atoms: C14_20  and  O5_21 
REMARK    8  A    between atoms: C15_23  and  O6_24 
REMARK    9  A    between atoms: C16_26  and  O7_27 
REMARK   10  A    between atoms: C17_29  and  C18_30 
ROOT
HETATM    1  C5  UNL     1       4.230 -38.529  -3.041  1.00  0.00     0.298 C 
HETATM    2  O3  UNL     1       4.185 -38.142  -4.395  1.00  0.00    -0.348 OA
HETATM    3  C6  UNL     1       3.066 -37.428  -4.701  1.00  0.00     0.179 C 
HETATM    4  C14 UNL     1       3.015 -36.203  -3.807  1.00  0.00     0.180 C 
HETATM    5  C15 UNL     1       2.604 -36.727  -2.428  1.00  0.00     0.183 C 
HETATM    6  C16 UNL     1       2.996 -38.189  -2.302  1.00  0.00     0.205 C 
ENDROOT
BRANCH   1   7
HETATM    7  O2  UNL     1       5.442 -38.055  -2.469  1.00  0.00    -0.314 OA
BRANCH   7   8
HETATM    8  C4  UNL     1       6.575 -38.918  -2.311  1.00  0.00     0.115 A 
HETATM    9  C3  UNL     1       6.485 -39.928  -1.372  1.00  0.00     0.111 A 
HETATM   10  S1  UNL     1       7.982 -40.720  -1.477  1.00  0.00    -0.050 SA
HETATM   11 CL1  UNL     1       5.096 -40.280  -0.313  1.00  0.00    -0.073 Cl
HETATM   12  C2  UNL     1       8.698 -39.774  -2.697  1.00  0.00     0.124 A 
HETATM   13  C17 UNL     1       7.737 -38.849  -2.999  1.00  0.00     0.051 A 
BRANCH  12  14
HETATM   14  O1  UNL     1       9.986 -39.894  -3.283  1.00  0.00    -0.348 OA
HETATM   15  C1  UNL     1      11.058 -40.308  -2.469  1.00  0.00     0.211 C 
ENDBRANCH  12  14
BRANCH  13  16
HETATM   16  C18 UNL     1       8.051 -37.854  -4.090  1.00  0.00    -0.013 A 
HETATM   17  C19 UNL     1       7.290 -37.726  -5.199  1.00  0.00     0.020 A 
HETATM   18  C20 UNL     1       7.684 -36.804  -6.124  1.00  0.00     0.050 A 
HETATM   19  S2  UNL     1       9.094 -36.138  -5.436  1.00  0.00    -0.113 SA
HETATM   20  C21 UNL     1       9.147 -37.050  -3.989  1.00  0.00     0.062 A 
ENDBRANCH  13  16
ENDBRANCH   7   8
ENDBRANCH   1   7
BRANCH   6  21
HETATM   21  O7  UNL     1       3.125 -38.429  -0.947  1.00  0.00    -0.388 OA
ATOM     22  H7  UNL     1       3.744 -37.835  -0.540  1.00  0.00     0.210 HD
ENDBRANCH   6  21
BRANCH   3  23
HETATM   23  C7  UNL     1       3.007 -37.035  -6.165  1.00  0.00     0.203 C 
BRANCH  23  24
HETATM   24  O4  UNL     1       4.225 -36.515  -6.595  1.00  0.00    -0.383 OA
BRANCH  24  25
HETATM   25  C8  UNL     1       4.078 -35.395  -7.385  1.00  0.00     0.121 C 
HETATM   26  C9  UNL     1       2.706 -35.410  -8.013  1.00  0.00     0.032 C 
HETATM   27  C10 UNL     1       2.653 -34.741  -9.356  1.00  0.00     0.002 C 
HETATM   28  C11 UNL     1       3.636 -35.288 -10.349  1.00  0.00     0.000 C 
HETATM   29  C12 UNL     1       4.769 -36.012  -9.669  1.00  0.00     0.002 C 
HETATM   30  C13 UNL     1       5.165 -35.227  -8.421  1.00  0.00     0.032 C 
ENDBRANCH  24  25
ENDBRANCH  23  24
ENDBRANCH   3  23
BRANCH   5  31
HETATM   31  O6  UNL     1       1.220 -36.658  -2.365  1.00  0.00    -0.390 OA
ATOM     32  H6  UNL     1       0.904 -37.546  -2.247  1.00  0.00     0.210 HD
ENDBRANCH   5  31
BRANCH   4  33
HETATM   33  O5  UNL     1       4.289 -35.688  -3.716  1.00  0.00    -0.390 OA
ATOM     34  H5  UNL     1       4.395 -35.315  -2.849  1.00  0.00     0.210 HD
ENDBRANCH   4  33
TORSDOF 10
ENDMDL
MODEL 3
REMARK VINA RESULT: -7.097397837      1.981      4.904
REMARK  10 active torsions:
REMARK  status: ('A' for Active; 'I' for Inactive)
REMARK    1  A    between atoms: O1_2  and  C2_3 
REMARK    2  A    between atoms: C4_7  and  O2_8 
REMARK    3  A    between atoms: O2_8  and  C5_9 
REMARK    4  A    between atoms: C6_11  and  C7_12 
REMARK    5  A    between atoms: C7_12  and  O4_13 
REMARK    6  A    between atoms: O4_13  and  C8_14 
REMARK    7  A    between atoms: C14_20  and  O5_21 
REMARK    8  A    between atoms: C15_23  and  O6_24 
REMARK    9  A    between atoms: C16_26  and  O7_27 
REMARK   10  A    between atoms: C17_29  and  C18_30 
ROOT
HETATM    1  C5  UNL     1       4.247 -35.688  -5.385  1.00  0.00     0.298 C 
HETATM    2  O3  UNL     1       3.785 -36.087  -4.116  1.00  0.00    -0.348 OA
HETATM    3  C6  UNL     1       2.427 -36.043  -4.011  1.00  0.00     0.179 C 
HETATM    4  C14 UNL     1       1.832 -36.933  -5.085  1.00  0.00     0.180 C 
HETATM    5  C15 UNL     1       2.005 -36.158  -6.395  1.00  0.00     0.183 C 
HETATM    6  C16 UNL     1       3.167 -35.189  -6.262  1.00  0.00     0.205 C 
ENDROOT
BRANCH   1   7
HETATM    7  O2  UNL     1       5.051 -36.728  -5.928  1.00  0.00    -0.314 OA
BRANCH   7   8
HETATM    8  C4  UNL     1       6.450 -36.814  -5.633  1.00  0.00     0.115 A 
HETATM    9  C3  UNL     1       7.282 -35.862  -6.191  1.00  0.00     0.111 A 
HETATM   10  S1  UNL     1       8.825 -36.283  -5.624  1.00  0.00    -0.050 SA
HETATM   11 CL1  UNL     1       6.801 -34.518  -7.256  1.00  0.00    -0.073 Cl
HETATM   12  C2  UNL     1       8.405 -37.646  -4.696  1.00  0.00     0.124 A 
HETATM   13  C17 UNL     1       7.049 -37.742  -4.852  1.00  0.00     0.051 A 
BRANCH  12  14
HETATM   14  O1  UNL     1       9.242 -38.501  -3.930  1.00  0.00    -0.348 OA
HETATM   15  C1  UNL     1      10.617 -38.205  -3.858  1.00  0.00     0.211 C 
ENDBRANCH  12  14
BRANCH  13  16
HETATM   16  C18 UNL     1       6.344 -38.855  -4.117  1.00  0.00    -0.013 A 
HETATM   17  C19 UNL     1       6.263 -40.113  -4.605  1.00  0.00     0.020 A 
HETATM   18  C20 UNL     1       5.585 -41.031  -3.858  1.00  0.00     0.050 A 
HETATM   19  S2  UNL     1       5.078 -40.132  -2.502  1.00  0.00    -0.113 SA
HETATM   20  C21 UNL     1       5.741 -38.611  -2.919  1.00  0.00     0.062 A 
ENDBRANCH  13  16
ENDBRANCH   7   8
ENDBRANCH   1   7
BRANCH   6  21
HETATM   21  O7  UNL     1       3.615 -34.958  -7.549  1.00  0.00    -0.388 OA
ATOM     22  H7  UNL     1       4.487 -35.309  -7.689  1.00  0.00     0.210 HD
ENDBRANCH   6  21
BRANCH   3  23
HETATM   23  C7  UNL     1       1.934 -36.446  -2.635  1.00  0.00     0.203 C 
BRANCH  23  24
HETATM   24  O4  UNL     1       2.285 -37.761  -2.341  1.00  0.00    -0.383 OA
BRANCH  24  25
HETATM   25  C8  UNL     1       1.273 -38.457  -1.715  1.00  0.00     0.121 C 
HETATM   26  C9  UNL     1       1.871 -39.347  -0.653  1.00  0.00     0.032 C 
HETATM   27  C10 UNL     1       1.088 -40.606  -0.414  1.00  0.00     0.002 C 
HETATM   28  C11 UNL     1       0.861 -41.426  -1.649  1.00  0.00     0.000 C 
HETATM   29  C12 UNL     1       1.016 -40.602  -2.902  1.00  0.00     0.002 C 
HETATM   30  C13 UNL     1       0.386 -39.234  -2.660  1.00  0.00     0.032 C 
ENDBRANCH  24  25
ENDBRANCH  23  24
ENDBRANCH   3  23
BRANCH   5  31
HETATM   31  O6  UNL     1       0.853 -35.407  -6.576  1.00  0.00    -0.390 OA
ATOM     32  H6  UNL     1       0.950 -34.945  -7.401  1.00  0.00     0.210 HD
ENDBRANCH   5  31
BRANCH   4  33
HETATM   33  O5  UNL     1       2.589 -38.082  -5.155  1.00  0.00    -0.390 OA
ATOM     34  H5  UNL     1       2.078 -38.795  -4.789  1.00  0.00     0.210 HD
ENDBRANCH   4  33
TORSDOF 10
ENDMDL
MODEL 4
REMARK VINA RESULT: -7.093892145      2.723      5.173
REMARK  10 active torsions:
REMARK  status: ('A' for Active; 'I' for Inactive)
REMARK    1  A    between atoms: O1_2  and  C2_3 
REMARK    2  A    between atoms: C4_7  and  O2_8 
REMARK    3  A    between atoms: O2_8  and  C5_9 
REMARK    4  A    between atoms: C6_11  and  C7_12 
REMARK    5  A    between atoms: C7_12  and  O4_13 
REMARK    6  A    between atoms: O4_13  and  C8_14 
REMARK    7  A    between atoms: C14_20  and  O5_21 
REMARK    8  A    between atoms: C15_23  and  O6_24 
REMARK    9  A    between atoms: C16_26  and  O7_27 
REMARK   10  A    between atoms: C17_29  and  C18_30 
ROOT
HETATM    1  C5  UNL     1       2.616 -38.139  -4.597  1.00  0.00     0.298 C 
HETATM    2  O3  UNL     1       3.877 -37.712  -5.057  1.00  0.00    -0.348 OA
HETATM    3  C6  UNL     1       3.792 -36.681  -5.944  1.00  0.00     0.179 C 
HETATM    4  C14 UNL     1       3.063 -35.530  -5.276  1.00  0.00     0.180 C 
HETATM    5  C15 UNL     1       1.591 -35.949  -5.243  1.00  0.00     0.183 C 
HETATM    6  C16 UNL     1       1.493 -37.465  -5.280  1.00  0.00     0.205 C 
ENDROOT
BRANCH   1   7
HETATM    7  O2  UNL     1       2.601 -38.078  -3.177  1.00  0.00    -0.314 OA
BRANCH   7   8
HETATM    8  C4  UNL     1       3.466 -38.904  -2.389  1.00  0.00     0.115 A 
HETATM    9  C3  UNL     1       4.342 -38.274  -1.525  1.00  0.00     0.111 A 
HETATM   10  S1  UNL     1       5.176 -39.551  -0.783  1.00  0.00    -0.050 SA
HETATM   11 CL1  UNL     1       4.520 -36.518  -1.280  1.00  0.00    -0.073 Cl
HETATM   12  C2  UNL     1       4.416 -40.857  -1.566  1.00  0.00     0.124 A 
HETATM   13  C17 UNL     1       3.513 -40.256  -2.401  1.00  0.00     0.051 A 
BRANCH  12  14
HETATM   14  O1  UNL     1       4.642 -42.250  -1.410  1.00  0.00    -0.348 OA
HETATM   15  C1  UNL     1       5.927 -42.756  -1.686  1.00  0.00     0.211 C 
ENDBRANCH  12  14
BRANCH  13  16
HETATM   16  C18 UNL     1       2.636 -41.155  -3.236  1.00  0.00    -0.013 A 
HETATM   17  C19 UNL     1       3.099 -41.830  -4.311  1.00  0.00     0.020 A 
HETATM   18  C20 UNL     1       2.206 -42.600  -4.998  1.00  0.00     0.050 A 
HETATM   19  S2  UNL     1       0.752 -42.371  -4.140  1.00  0.00    -0.113 SA
HETATM   20  C21 UNL     1       1.316 -41.302  -2.928  1.00  0.00     0.062 A 
ENDBRANCH  13  16
ENDBRANCH   7   8
ENDBRANCH   1   7
BRANCH   6  21
HETATM   21  O7  UNL     1       0.276 -37.779  -4.703  1.00  0.00    -0.388 OA
ATOM     22  H7  UNL     1      -0.453 -37.515  -5.252  1.00  0.00     0.210 HD
ENDBRANCH   6  21
BRANCH   3  23
HETATM   23  C7  UNL     1       5.149 -36.240  -6.458  1.00  0.00     0.203 C 
BRANCH  23  24
HETATM   24  O4  UNL     1       6.101 -36.259  -5.442  1.00  0.00    -0.383 OA
BRANCH  24  25
HETATM   25  C8  UNL     1       7.060 -37.233  -5.626  1.00  0.00     0.121 C 
HETATM   26  C9  UNL     1       7.275 -37.965  -4.323  1.00  0.00     0.032 C 
HETATM   27  C10 UNL     1       8.671 -38.490  -4.154  1.00  0.00     0.002 C 
HETATM   28  C11 UNL     1       9.737 -37.444  -4.294  1.00  0.00     0.000 C 
HETATM   29  C12 UNL     1       9.239 -36.238  -5.047  1.00  0.00     0.002 C 
HETATM   30  C13 UNL     1       8.359 -36.717  -6.198  1.00  0.00     0.032 C 
ENDBRANCH  24  25
ENDBRANCH  23  24
ENDBRANCH   3  23
BRANCH   5  31
HETATM   31  O6  UNL     1       1.005 -35.464  -6.403  1.00  0.00    -0.390 OA
ATOM     32  H6  UNL     1       0.564 -36.197  -6.818  1.00  0.00     0.210 HD
ENDBRANCH   5  31
BRANCH   4  33
HETATM   33  O5  UNL     1       3.518 -35.431  -3.980  1.00  0.00    -0.390 OA
ATOM     34  H5  UNL     1       3.988 -34.609  -3.894  1.00  0.00     0.210 HD
ENDBRANCH   4  33
TORSDOF 10
ENDMDL
MODEL 5
REMARK VINA RESULT: -7.075469143      2.513      6.854
REMARK  10 active torsions:
REMARK  status: ('A' for Active; 'I' for Inactive)
REMARK    1  A    between atoms: O1_2  and  C2_3 
REMARK    2  A    between atoms: C4_7  and  O2_8 
REMARK    3  A    between atoms: O2_8  and  C5_9 
REMARK    4  A    between atoms: C6_11  and  C7_12 
REMARK    5  A    between atoms: C7_12  and  O4_13 
REMARK    6  A    between atoms: O4_13  and  C8_14 
REMARK    7  A    between atoms: C14_20  and  O5_21 
REMARK    8  A    between atoms: C15_23  and  O6_24 
REMARK    9  A    between atoms: C16_26  and  O7_27 
REMARK   10  A    between atoms: C17_29  and  C18_30 
ROOT
HETATM    1  C5  UNL     1       3.050 -37.081  -4.227  1.00  0.00     0.298 C 
HETATM    2  O3  UNL     1       3.586 -37.710  -3.086  1.00  0.00    -0.348 OA
HETATM    3  C6  UNL     1       2.648 -38.393  -2.372  1.00  0.00     0.179 C 
HETATM    4  C14 UNL     1       2.005 -39.423  -3.282  1.00  0.00     0.180 C 
HETATM    5  C15 UNL     1       1.080 -38.625  -4.205  1.00  0.00     0.183 C 
HETATM    6  C16 UNL     1       1.580 -37.194  -4.312  1.00  0.00     0.205 C 
ENDROOT
BRANCH   1   7
HETATM    7  O2  UNL     1       3.770 -37.519  -5.372  1.00  0.00    -0.314 OA
BRANCH   7   8
HETATM    8  C4  UNL     1       5.032 -36.938  -5.723  1.00  0.00     0.115 A 
HETATM    9  C3  UNL     1       6.175 -37.620  -5.352  1.00  0.00     0.111 A 
HETATM   10  S1  UNL     1       7.439 -36.646  -5.930  1.00  0.00    -0.050 SA
HETATM   11 CL1  UNL     1       6.257 -39.165  -4.469  1.00  0.00    -0.073 Cl
HETATM   12  C2  UNL     1       6.516 -35.399  -6.628  1.00  0.00     0.124 A 
HETATM   13  C17 UNL     1       5.223 -35.778  -6.391  1.00  0.00     0.051 A 
BRANCH  12  14
HETATM   14  O1  UNL     1       6.956 -34.229  -7.303  1.00  0.00    -0.348 OA
HETATM   15  C1  UNL     1       8.162 -33.630  -6.893  1.00  0.00     0.211 C 
ENDBRANCH  12  14
BRANCH  13  16
HETATM   16  C18 UNL     1       4.130 -34.882  -6.920  1.00  0.00    -0.013 A 
HETATM   17  C19 UNL     1       3.689 -33.796  -6.247  1.00  0.00     0.020 A 
HETATM   18  C20 UNL     1       2.684 -33.072  -6.818  1.00  0.00     0.050 A 
HETATM   19  S2  UNL     1       2.376 -33.910  -8.270  1.00  0.00    -0.113 SA
HETATM   20  C21 UNL     1       3.533 -35.161  -8.113  1.00  0.00     0.062 A 
ENDBRANCH  13  16
ENDBRANCH   7   8
ENDBRANCH   1   7
BRANCH   6  21
HETATM   21  O7  UNL     1       1.095 -36.714  -5.514  1.00  0.00    -0.388 OA
ATOM     22  H7  UNL     1       0.335 -36.157  -5.392  1.00  0.00     0.210 HD
ENDBRANCH   6  21
BRANCH   3  23
HETATM   23  C7  UNL     1       3.222 -39.047  -1.130  1.00  0.00     0.203 C 
BRANCH  23  24
HETATM   24  O4  UNL     1       3.788 -40.283  -1.429  1.00  0.00    -0.383 OA
BRANCH  24  25
HETATM   25  C8  UNL     1       4.926 -40.542  -0.694  1.00  0.00     0.121 C 
HETATM   26  C9  UNL     1       5.957 -39.482  -0.992  1.00  0.00     0.032 C 
HETATM   27  C10 UNL     1       7.372 -39.972  -0.879  1.00  0.00     0.002 C 
HETATM   28  C11 UNL     1       7.669 -41.175  -1.725  1.00  0.00     0.000 C 
HETATM   29  C12 UNL     1       6.412 -41.915  -2.102  1.00  0.00     0.002 C 
HETATM   30  C13 UNL     1       5.481 -41.934  -0.892  1.00  0.00     0.032 C 
ENDBRANCH  24  25
ENDBRANCH  23  24
ENDBRANCH   3  23
BRANCH   5  31
HETATM   31  O6  UNL     1      -0.166 -38.588  -3.598  1.00  0.00    -0.390 OA
ATOM     32  H6  UNL     1      -0.782 -38.269  -4.247  1.00  0.00     0.210 HD
ENDBRANCH   5  31
BRANCH   4  33
HETATM   33  O5  UNL     1       2.997 -39.996  -4.047  1.00  0.00    -0.390 OA
ATOM     34  H5  UNL     1       2.982 -39.587  -4.904  1.00  0.00     0.210 HD
ENDBRANCH   4  33
TORSDOF 10
ENDMDL
