MODEL 1
REMARK VINA RESULT: -7.230847871      0.000      0.000
REMARK  11 active torsions:
REMARK  status: ('A' for Active; 'I' for Inactive)
REMARK    1  A    between atoms: O1_2  and  C2_3 
REMARK    2  A    between atoms: C5_6  and  C6_7 
REMARK    3  A    between atoms: C6_7  and  C7_8 
REMARK    4  A    between atoms: C7_8  and  N1_9 
REMARK    5  A    between atoms: N1_9  and  C8_12 
REMARK    6  A    between atoms: C8_12  and  C9_13 
REMARK    7  A    between atoms: C9_13  and  C10_14 
REMARK    8  A    between atoms: C9_13  and  N2_22 
REMARK    9  A    between atoms: C10_14  and  O2_15 
REMARK   10  A    between atoms: O2_15  and  C11_16 
REMARK   11  A    between atoms: C18_27  and  C19_28 
ROOT
HETATM    1  N1  UNL     1      34.276  10.347  13.098  1.00  0.00    -0.073 N 
ATOM      2  H11 UNL     1      34.078   9.573  12.464  1.00  0.00     0.277 HD
ATOM      3  H12 UNL     1      33.358  10.417  13.537  1.00  0.00     0.277 HD
ENDROOT
BRANCH   1   4
HETATM    4  C7  UNL     1      34.632  11.557  12.385  1.00  0.00     0.237 C 
BRANCH   4   5
HETATM    5  C6  UNL     1      34.248  11.489  10.942  1.00  0.00     0.067 C 
BRANCH   5   6
HETATM    6  C5  UNL     1      35.377  11.013  10.138  1.00  0.00    -0.039 A 
HETATM    7  C4  UNL     1      36.661  11.142  10.673  1.00  0.00     0.011 A 
HETATM    8  C3  UNL     1      37.775  10.749   9.970  1.00  0.00     0.037 A 
HETATM    9  C2  UNL     1      37.662  10.210   8.704  1.00  0.00     0.069 A 
HETATM   10  C20 UNL     1      36.388  10.097   8.209  1.00  0.00     0.055 A 
HETATM   11  C18 UNL     1      35.236  10.488   8.903  1.00  0.00     0.049 A 
BRANCH   9  12
HETATM   12  O1  UNL     1      38.795   9.818   8.005  1.00  0.00    -0.356 OA
HETATM   13  C1  UNL     1      40.050  10.271   8.476  1.00  0.00     0.210 C 
ENDBRANCH   9  12
BRANCH  11  14
HETATM   14  C19 UNL     1      33.967  10.261   8.269  1.00  0.00     0.210 C 
HETATM   15  O3  UNL     1      33.551  11.186   7.467  1.00  0.00    -0.644 OA
HETATM   16  O4  UNL     1      33.122   9.196   8.385  1.00  0.00    -0.644 OA
ENDBRANCH  11  14
ENDBRANCH   5   6
ENDBRANCH   4   5
ENDBRANCH   1   4
BRANCH   1  17
HETATM   17  C8  UNL     1      35.300  10.018  14.043  1.00  0.00     0.259 C 
BRANCH  17  18
HETATM   18  C9  UNL     1      35.157   8.602  14.542  1.00  0.00     0.133 C 
BRANCH  18  19
HETATM   19  C10 UNL     1      36.106   7.696  13.836  1.00  0.00     0.202 C 
BRANCH  19  20
HETATM   20  O2  UNL     1      36.009   7.851  12.418  1.00  0.00    -0.349 OA
BRANCH  20  21
HETATM   21  C11 UNL     1      37.085   7.538  11.624  1.00  0.00     0.068 A 
HETATM   22  C12 UNL     1      38.407   7.702  11.993  1.00  0.00     0.037 A 
HETATM   23  C13 UNL     1      39.454   7.373  11.164  1.00  0.00     0.003 A 
HETATM   24  C14 UNL     1      39.215   6.855   9.902  1.00  0.00     0.000 A 
HETATM   25  C15 UNL     1      37.900   6.686   9.522  1.00  0.00     0.003 A 
HETATM   26  C16 UNL     1      36.855   7.016  10.353  1.00  0.00     0.037 A 
ENDBRANCH  20  21
ENDBRANCH  19  20
ENDBRANCH  18  19
BRANCH  18  27
HETATM   27  N2  UNL     1      35.203   8.517  15.948  1.00  0.00    -0.359 N 
HETATM   28  C17 UNL     1      34.731   7.781  16.823  1.00  0.00     0.197 C 
HETATM   29  N3  UNL     1      35.043   8.063  18.203  1.00  0.00    -0.067 NA
HETATM   30  N4  UNL     1      33.903   6.677  16.577  1.00  0.00    -0.067 NA
ATOM     31  H2  UNL     1      35.776   9.258  16.350  1.00  0.00     0.162 HD
ENDBRANCH  18  27
ENDBRANCH  17  18
ENDBRANCH   1  17
TORSDOF 11
ENDMDL
MODEL 2
REMARK VINA RESULT: -7.095817300      2.781      4.973
REMARK  11 active torsions:
REMARK  status: ('A' for Active; 'I' for Inactive)
REMARK    1  A    between atoms: O1_2  and  C2_3 
REMARK    2  A    between atoms: C5_6  and  C6_7 
REMARK    3  A    between atoms: C6_7  and  C7_8 
REMARK    4  A    between atoms: C7_8  and  N1_9 
REMARK    5  A    between atoms: N1_9  and  C8_12 
REMARK    6  A    between atoms: C8_12  and  C9_13 
REMARK    7  A    between atoms: C9_13  and  C10_14 
REMARK    8  A    between atoms: C9_13  and  N2_22 
REMARK    9  A    between atoms: C10_14  and  O2_15 
REMARK   10  A    between atoms: O2_15  and  C11_16 
REMARK   11  A    between atoms: C18_27  and  C19_28 
ROOT
HETATM    1  N1  UNL     1      35.531  10.465  11.925  1.00  0.00    -0.073 N 
ATOM      2  H11 UNL     1      35.408   9.460  12.050  1.00  0.00     0.277 HD
ATOM      3  H12 UNL     1      35.566  10.484  10.905  1.00  0.00     0.277 HD
ENDROOT
BRANCH   1   4
HETATM    4  C7  UNL     1      36.762  10.941  12.522  1.00  0.00     0.237 C 
BRANCH   4   5
HETATM    5  C6  UNL     1      37.839   9.905  12.484  1.00  0.00     0.067 C 
BRANCH   5   6
HETATM    6  C5  UNL     1      38.503   9.910  11.177  1.00  0.00    -0.039 A 
HETATM    7  C4  UNL     1      39.363  10.972  10.884  1.00  0.00     0.011 A 
HETATM    8  C3  UNL     1      39.998  11.068   9.669  1.00  0.00     0.037 A 
HETATM    9  C2  UNL     1      39.806  10.113   8.690  1.00  0.00     0.069 A 
HETATM   10  C20 UNL     1      38.957   9.084   9.011  1.00  0.00     0.055 A 
HETATM   11  C18 UNL     1      38.298   8.962  10.240  1.00  0.00     0.049 A 
BRANCH   9  12
HETATM   12  O1  UNL     1      40.454  10.222   7.468  1.00  0.00    -0.356 OA
HETATM   13  C1  UNL     1      41.039  11.468   7.141  1.00  0.00     0.210 C 
ENDBRANCH   9  12
BRANCH  11  14
HETATM   14  C19 UNL     1      37.476   7.800  10.442  1.00  0.00     0.210 C 
HETATM   15  O3  UNL     1      38.097   6.689  10.667  1.00  0.00    -0.644 OA
HETATM   16  O4  UNL     1      36.116   7.692  10.434  1.00  0.00    -0.644 OA
ENDBRANCH  11  14
ENDBRANCH   5   6
ENDBRANCH   4   5
ENDBRANCH   1   4
BRANCH   1  17
HETATM   17  C8  UNL     1      34.420  11.209  12.438  1.00  0.00     0.259 C 
BRANCH  17  18
HETATM   18  C9  UNL     1      34.329  12.573  11.800  1.00  0.00     0.133 C 
BRANCH  18  19
HETATM   19  C10 UNL     1      34.381  12.465  10.314  1.00  0.00     0.202 C 
BRANCH  19  20
HETATM   20  O2  UNL     1      33.648  11.327   9.854  1.00  0.00    -0.349 OA
BRANCH  20  21
HETATM   21  C11 UNL     1      34.098  10.622   8.764  1.00  0.00     0.068 A 
HETATM   22  C12 UNL     1      33.286   9.923   7.893  1.00  0.00     0.037 A 
HETATM   23  C13 UNL     1      33.781   9.231   6.812  1.00  0.00     0.003 A 
HETATM   24  C14 UNL     1      35.142   9.210   6.553  1.00  0.00     0.000 A 
HETATM   25  C15 UNL     1      35.963   9.906   7.416  1.00  0.00     0.003 A 
HETATM   26  C16 UNL     1      35.465  10.596   8.496  1.00  0.00     0.037 A 
ENDBRANCH  20  21
ENDBRANCH  19  20
ENDBRANCH  18  19
BRANCH  18  27
HETATM   27  N2  UNL     1      33.248  13.330  12.294  1.00  0.00    -0.359 N 
HETATM   28  C17 UNL     1      32.038  13.158  12.482  1.00  0.00     0.197 C 
HETATM   29  N3  UNL     1      31.263  14.243  13.031  1.00  0.00    -0.067 NA
HETATM   30  N4  UNL     1      31.346  11.971  12.198  1.00  0.00    -0.067 NA
ATOM     31  H2  UNL     1      33.541  14.267  12.570  1.00  0.00     0.162 HD
ENDBRANCH  18  27
ENDBRANCH  17  18
ENDBRANCH   1  17
TORSDOF 11
ENDMDL
MODEL 3
REMARK VINA RESULT: -6.843674199      2.835      5.516
REMARK  11 active torsions:
REMARK  status: ('A' for Active; 'I' for Inactive)
REMARK    1  A    between atoms: O1_2  and  C2_3 
REMARK    2  A    between atoms: C5_6  and  C6_7 
REMARK    3  A    between atoms: C6_7  and  C7_8 
REMARK    4  A    between atoms: C7_8  and  N1_9 
REMARK    5  A    between atoms: N1_9  and  C8_12 
REMARK    6  A    between atoms: C8_12  and  C9_13 
REMARK    7  A    between atoms: C9_13  and  C10_14 
REMARK    8  A    between atoms: C9_13  and  N2_22 
REMARK    9  A    between atoms: C10_14  and  O2_15 
REMARK   10  A    between atoms: O2_15  and  C11_16 
REMARK   11  A    between atoms: C18_27  and  C19_28 
ROOT
HETATM    1  N1  UNL     1      34.625  10.371  11.650  1.00  0.00    -0.073 N 
ATOM      2  H11 UNL     1      33.877   9.695  11.491  1.00  0.00     0.277 HD
ATOM      3  H12 UNL     1      34.788  10.642  10.680  1.00  0.00     0.277 HD
ENDROOT
BRANCH   1   4
HETATM    4  C7  UNL     1      35.793   9.757  12.248  1.00  0.00     0.237 C 
BRANCH   4   5
HETATM    5  C6  UNL     1      37.049  10.123  11.524  1.00  0.00     0.067 C 
BRANCH   5   6
HETATM    6  C5  UNL     1      37.524   8.988  10.728  1.00  0.00    -0.039 A 
HETATM    7  C4  UNL     1      36.936   7.740  10.952  1.00  0.00     0.011 A 
HETATM    8  C3  UNL     1      37.347   6.619  10.271  1.00  0.00     0.037 A 
HETATM    9  C2  UNL     1      38.361   6.688   9.336  1.00  0.00     0.069 A 
HETATM   10  C20 UNL     1      38.916   7.928   9.139  1.00  0.00     0.055 A 
HETATM   11  C18 UNL     1      38.516   9.086   9.819  1.00  0.00     0.049 A 
BRANCH   9  12
HETATM   12  O1  UNL     1      38.766   5.549   8.655  1.00  0.00    -0.356 OA
HETATM   13  C1  UNL     1      40.105   5.494   8.201  1.00  0.00     0.210 C 
ENDBRANCH   9  12
BRANCH  11  14
HETATM   14  C19 UNL     1      39.162  10.320   9.468  1.00  0.00     0.210 C 
HETATM   15  O3  UNL     1      39.004  10.725   8.250  1.00  0.00    -0.644 OA
HETATM   16  O4  UNL     1      39.929  11.143  10.239  1.00  0.00    -0.644 OA
ENDBRANCH  11  14
ENDBRANCH   5   6
ENDBRANCH   4   5
ENDBRANCH   1   4
BRANCH   1  17
HETATM   17  C8  UNL     1      34.189  11.475  12.451  1.00  0.00     0.259 C 
BRANCH  17  18
HETATM   18  C9  UNL     1      33.890  12.687  11.604  1.00  0.00     0.133 C 
BRANCH  18  19
HETATM   19  C10 UNL     1      34.653  12.638  10.326  1.00  0.00     0.202 C 
BRANCH  19  20
HETATM   20  O2  UNL     1      33.792  12.349   9.222  1.00  0.00    -0.349 OA
BRANCH  20  21
HETATM   21  C11 UNL     1      34.118  11.338   8.351  1.00  0.00     0.068 A 
HETATM   22  C12 UNL     1      33.247  10.782   7.434  1.00  0.00     0.037 A 
HETATM   23  C13 UNL     1      33.617   9.770   6.579  1.00  0.00     0.003 A 
HETATM   24  C14 UNL     1      34.905   9.260   6.608  1.00  0.00     0.000 A 
HETATM   25  C15 UNL     1      35.784   9.808   7.519  1.00  0.00     0.003 A 
HETATM   26  C16 UNL     1      35.411  10.819   8.373  1.00  0.00     0.037 A 
ENDBRANCH  20  21
ENDBRANCH  19  20
ENDBRANCH  18  19
BRANCH  18  27
HETATM   27  N2  UNL     1      32.507  12.912  11.453  1.00  0.00    -0.359 N 
HETATM   28  C17 UNL     1      31.588  13.373  12.139  1.00  0.00     0.197 C 
HETATM   29  N3  UNL     1      30.262  13.422  11.574  1.00  0.00    -0.067 NA
HETATM   30  N4  UNL     1      31.733  13.862  13.446  1.00  0.00    -0.067 NA
ATOM     31  H2  UNL     1      32.177  12.615  10.535  1.00  0.00     0.162 HD
ENDBRANCH  18  27
ENDBRANCH  17  18
ENDBRANCH   1  17
TORSDOF 11
ENDMDL
MODEL 4
REMARK VINA RESULT: -6.827932576      2.694      4.284
REMARK  11 active torsions:
REMARK  status: ('A' for Active; 'I' for Inactive)
REMARK    1  A    between atoms: O1_2  and  C2_3 
REMARK    2  A    between atoms: C5_6  and  C6_7 
REMARK    3  A    between atoms: C6_7  and  C7_8 
REMARK    4  A    between atoms: C7_8  and  N1_9 
REMARK    5  A    between atoms: N1_9  and  C8_12 
REMARK    6  A    between atoms: C8_12  and  C9_13 
REMARK    7  A    between atoms: C9_13  and  C10_14 
REMARK    8  A    between atoms: C9_13  and  N2_22 
REMARK    9  A    between atoms: C10_14  and  O2_15 
REMARK   10  A    between atoms: O2_15  and  C11_16 
REMARK   11  A    between atoms: C18_27  and  C19_28 
ROOT
HETATM    1  N1  UNL     1      35.741   8.437  11.482  1.00  0.00    -0.073 N 
ATOM      2  H11 UNL     1      34.843   8.017  11.238  1.00  0.00     0.277 HD
ATOM      3  H12 UNL     1      35.725   9.214  10.822  1.00  0.00     0.277 HD
ENDROOT
BRANCH   1   4
HETATM    4  C7  UNL     1      36.848   7.536  11.236  1.00  0.00     0.237 C 
BRANCH   4   5
HETATM    5  C6  UNL     1      37.031   7.261   9.778  1.00  0.00     0.067 C 
BRANCH   5   6
HETATM    6  C5  UNL     1      38.133   8.066   9.244  1.00  0.00    -0.039 A 
HETATM    7  C4  UNL     1      39.433   7.576   9.392  1.00  0.00     0.011 A 
HETATM    8  C3  UNL     1      40.523   8.286   8.948  1.00  0.00     0.037 A 
HETATM    9  C2  UNL     1      40.370   9.514   8.337  1.00  0.00     0.069 A 
HETATM   10  C20 UNL     1      39.081   9.966   8.207  1.00  0.00     0.055 A 
HETATM   11  C18 UNL     1      37.953   9.263   8.649  1.00  0.00     0.049 A 
BRANCH   9  12
HETATM   12  O1  UNL     1      41.480  10.221   7.894  1.00  0.00    -0.356 OA
HETATM   13  C1  UNL     1      41.268  11.513   7.359  1.00  0.00     0.210 C 
ENDBRANCH   9  12
BRANCH  11  14
HETATM   14  C19 UNL     1      36.665   9.848   8.397  1.00  0.00     0.210 C 
HETATM   15  O3  UNL     1      36.277   9.874   7.164  1.00  0.00    -0.644 OA
HETATM   16  O4  UNL     1      35.772  10.385   9.279  1.00  0.00    -0.644 OA
ENDBRANCH  11  14
ENDBRANCH   5   6
ENDBRANCH   4   5
ENDBRANCH   1   4
BRANCH   1  17
HETATM   17  C8  UNL     1      35.771   8.887  12.841  1.00  0.00     0.259 C 
BRANCH  17  18
HETATM   18  C9  UNL     1      35.387  10.342  12.950  1.00  0.00     0.133 C 
BRANCH  18  19
HETATM   19  C10 UNL     1      36.599  11.200  13.067  1.00  0.00     0.202 C 
BRANCH  19  20
HETATM   20  O2  UNL     1      37.294  11.286  11.821  1.00  0.00    -0.349 OA
BRANCH  20  21
HETATM   21  C11 UNL     1      38.651  11.075  11.782  1.00  0.00     0.068 A 
HETATM   22  C12 UNL     1      39.297  10.017  12.391  1.00  0.00     0.037 A 
HETATM   23  C13 UNL     1      40.660   9.844  12.324  1.00  0.00     0.003 A 
HETATM   24  C14 UNL     1      41.450  10.744  11.627  1.00  0.00     0.000 A 
HETATM   25  C15 UNL     1      40.815  11.804  11.014  1.00  0.00     0.003 A 
HETATM   26  C16 UNL     1      39.453  11.974  11.083  1.00  0.00     0.037 A 
ENDBRANCH  20  21
ENDBRANCH  19  20
ENDBRANCH  18  19
BRANCH  18  27
HETATM   27  N2  UNL     1      34.484  10.739  11.943  1.00  0.00    -0.359 N 
HETATM   28  C17 UNL     1      33.517  11.503  11.849  1.00  0.00     0.197 C 
HETATM   29  N3  UNL     1      32.847  11.616  10.577  1.00  0.00    -0.067 NA
HETATM   30  N4  UNL     1      33.009  12.282  12.900  1.00  0.00    -0.067 NA
ATOM     31  H2  UNL     1      34.680  10.272  11.058  1.00  0.00     0.162 HD
ENDBRANCH  18  27
ENDBRANCH  17  18
ENDBRANCH   1  17
TORSDOF 11
ENDMDL
MODEL 5
REMARK VINA RESULT: -6.822981395      2.501      5.260
REMARK  11 active torsions:
REMARK  status: ('A' for Active; 'I' for Inactive)
REMARK    1  A    between atoms: O1_2  and  C2_3 
REMARK    2  A    between atoms: C5_6  and  C6_7 
REMARK    3  A    between atoms: C6_7  and  C7_8 
REMARK    4  A    between atoms: C7_8  and  N1_9 
REMARK    5  A    between atoms: N1_9  and  C8_12 
REMARK    6  A    between atoms: C8_12  and  C9_13 
REMARK    7  A    between atoms: C9_13  and  C10_14 
REMARK    8  A    between atoms: C9_13  and  N2_22 
REMARK    9  A    between atoms: C10_14  and  O2_15 
REMARK   10  A    between atoms: O2_15  and  C11_16 
REMARK   11  A    between atoms: C18_27  and  C19_28 
ROOT
HETATM    1  N1  UNL     1      35.446   9.300  12.421  1.00  0.00    -0.073 N 
ATOM      2  H11 UNL     1      34.739   8.606  12.664  1.00  0.00     0.277 HD
ATOM      3  H12 UNL     1      35.622   9.002  11.461  1.00  0.00     0.277 HD
ENDROOT
BRANCH   1   4
HETATM    4  C7  UNL     1      36.627   9.187  13.252  1.00  0.00     0.237 C 
BRANCH   4   5
HETATM    5  C6  UNL     1      37.224   7.817  13.192  1.00  0.00     0.067 C 
BRANCH   5   6
HETATM    6  C5  UNL     1      38.418   7.822  12.343  1.00  0.00    -0.039 A 
HETATM    7  C4  UNL     1      39.626   8.233  12.913  1.00  0.00     0.011 A 
HETATM    8  C3  UNL     1      40.784   8.296  12.176  1.00  0.00     0.037 A 
HETATM    9  C2  UNL     1      40.795   7.953  10.839  1.00  0.00     0.069 A 
HETATM   10  C20 UNL     1      39.593   7.553  10.310  1.00  0.00     0.055 A 
HETATM   11  C18 UNL     1      38.399   7.479  11.038  1.00  0.00     0.049 A 
BRANCH   9  12
HETATM   12  O1  UNL     1      41.971   8.022  10.106  1.00  0.00    -0.356 OA
HETATM   13  C1  UNL     1      41.930   7.611   8.753  1.00  0.00     0.210 C 
ENDBRANCH   9  12
BRANCH  11  14
HETATM   14  C19 UNL     1      37.232   6.996  10.354  1.00  0.00     0.210 C 
HETATM   15  O3  UNL     1      37.250   5.754   9.994  1.00  0.00    -0.644 OA
HETATM   16  O4  UNL     1      36.087   7.660  10.022  1.00  0.00    -0.644 OA
ENDBRANCH  11  14
ENDBRANCH   5   6
ENDBRANCH   4   5
ENDBRANCH   1   4
BRANCH   1  17
HETATM   17  C8  UNL     1      34.932  10.635  12.483  1.00  0.00     0.259 C 
BRANCH  17  18
HETATM   18  C9  UNL     1      34.876  11.269  11.115  1.00  0.00     0.133 C 
BRANCH  18  19
HETATM   19  C10 UNL     1      36.212  11.803  10.726  1.00  0.00     0.202 C 
BRANCH  19  20
HETATM   20  O2  UNL     1      37.049  10.768  10.206  1.00  0.00    -0.349 OA
BRANCH  20  21
HETATM   21  C11 UNL     1      38.390  11.003  10.024  1.00  0.00     0.068 A 
HETATM   22  C12 UNL     1      39.228  11.540  10.982  1.00  0.00     0.037 A 
HETATM   23  C13 UNL     1      40.568  11.758  10.757  1.00  0.00     0.003 A 
HETATM   24  C14 UNL     1      41.136  11.439   9.534  1.00  0.00     0.000 A 
HETATM   25  C15 UNL     1      40.309  10.901   8.570  1.00  0.00     0.003 A 
HETATM   26  C16 UNL     1      38.970  10.685   8.798  1.00  0.00     0.037 A 
ENDBRANCH  20  21
ENDBRANCH  19  20
ENDBRANCH  18  19
BRANCH  18  27
HETATM   27  N2  UNL     1      34.278  10.430  10.155  1.00  0.00    -0.359 N 
HETATM   28  C17 UNL     1      33.662  10.570   9.092  1.00  0.00     0.197 C 
HETATM   29  N3  UNL     1      33.205   9.392   8.397  1.00  0.00    -0.067 NA
HETATM   30  N4  UNL     1      33.366  11.806   8.498  1.00  0.00    -0.067 NA
ATOM     31  H2  UNL     1      34.380   9.446  10.402  1.00  0.00     0.162 HD
ENDBRANCH  18  27
ENDBRANCH  17  18
ENDBRANCH   1  17
TORSDOF 11
ENDMDL
