MODEL 1
REMARK VINA RESULT: -7.500567105      0.000      0.000
REMARK  13 active torsions:
REMARK  status: ('A' for Active; 'I' for Inactive)
REMARK    1  A    between atoms: C1_4  and  C2_6 
REMARK    2  A    between atoms: C5_9  and  C6_10 
REMARK    3  A    between atoms: C6_10  and  C7_11 
REMARK    4  A    between atoms: C7_11  and  C8_12 
REMARK    5  A    between atoms: C8_12  and  C9_13 
REMARK    6  A    between atoms: C8_12  and  N4_28 
REMARK    7  A    between atoms: C9_13  and  C10_14 
REMARK    8  A    between atoms: C13_17  and  O1_18 
REMARK    9  A    between atoms: O1_18  and  C14_19 
REMARK   10  A    between atoms: C14_19  and  C15_20 
REMARK   11  A    between atoms: C15_20  and  C16_21 
REMARK   12  A    between atoms: C16_21  and  N3_22 
REMARK   13  A    between atoms: C19_30  and  O2_32 
ROOT
HETATM    1  C8  UNL     1      33.511  12.276  10.093  1.00  0.00     0.092 C 
ENDROOT
BRANCH   1   2
HETATM    2  C7  UNL     1      33.452  12.428   8.613  1.00  0.00     0.053 C 
BRANCH   2   3
HETATM    3  C6  UNL     1      33.798  11.279   7.764  1.00  0.00    -0.013 C 
BRANCH   3   4
HETATM    4  C5  UNL     1      34.813  10.329   8.133  1.00  0.00    -0.040 A 
HETATM    5  C4  UNL     1      34.496   9.212   8.876  1.00  0.00     0.012 A 
HETATM    6  C3  UNL     1      35.420   8.276   9.280  1.00  0.00     0.015 A 
HETATM    7  C2  UNL     1      36.739   8.420   8.945  1.00  0.00     0.004 A 
HETATM    8  C21 UNL     1      37.079   9.546   8.192  1.00  0.00     0.015 A 
HETATM    9  C20 UNL     1      36.154  10.482   7.790  1.00  0.00     0.012 A 
BRANCH   7  10
HETATM   10  C1  UNL     1      37.784   7.489   9.322  1.00  0.00     0.120 C 
HETATM   11  N1  UNL     1      37.596   6.227   9.208  1.00  0.00    -0.387 N 
ATOM     12  H12 UNL     1      38.332   5.572   9.473  1.00  0.00     0.157 HD
ATOM     13  H11 UNL     1      36.704   5.886   8.849  1.00  0.00     0.157 HD
HETATM   14  N2  UNL     1      39.014   7.959   9.816  1.00  0.00    -0.082 NA
ENDBRANCH   7  10
ENDBRANCH   3   4
ENDBRANCH   2   3
ENDBRANCH   1   2
BRANCH   1  15
HETATM   15  C9  UNL     1      34.825  12.754  10.680  1.00  0.00     0.064 C 
BRANCH  15  16
HETATM   16  C10 UNL     1      35.640  11.720  11.311  1.00  0.00    -0.056 A 
HETATM   17  C11 UNL     1      35.025  10.772  12.101  1.00  0.00     0.010 A 
HETATM   18  C12 UNL     1      35.793   9.774  12.714  1.00  0.00     0.037 A 
HETATM   19  C13 UNL     1      37.148   9.728  12.537  1.00  0.00     0.068 A 
HETATM   20  C17 UNL     1      37.755  10.711  11.723  1.00  0.00     0.037 A 
HETATM   21  C18 UNL     1      37.011  11.681  11.128  1.00  0.00     0.010 A 
BRANCH  19  22
HETATM   22  O1  UNL     1      37.935   8.800  13.100  1.00  0.00    -0.351 OA
BRANCH  22  23
HETATM   23  C14 UNL     1      38.877   8.766  14.086  1.00  0.00     0.177 C 
BRANCH  23  24
HETATM   24  C15 UNL     1      38.473   9.568  15.290  1.00  0.00     0.054 C 
BRANCH  24  25
HETATM   25  C16 UNL     1      39.252  10.892  15.299  1.00  0.00     0.231 C 
BRANCH  25  26
HETATM   26  N3  UNL     1      38.314  11.984  15.100  1.00  0.00    -0.079 N 
ATOM     27  H33 UNL     1      37.462  11.871  15.649  1.00  0.00     0.274 HD
ATOM     28  H32 UNL     1      38.636  12.857  15.519  1.00  0.00     0.274 HD
ATOM     29  H31 UNL     1      38.126  12.074  14.102  1.00  0.00     0.274 HD
ENDBRANCH  25  26
ENDBRANCH  24  25
ENDBRANCH  23  24
ENDBRANCH  22  23
ENDBRANCH  19  22
ENDBRANCH  15  16
ENDBRANCH   1  15
BRANCH   1  30
HETATM   30  N4  UNL     1      32.510  13.110  10.710  1.00  0.00    -0.354 N 
HETATM   31  C19 UNL     1      31.745  12.856  11.686  1.00  0.00     0.225 C 
HETATM   32  N5  UNL     1      30.841  13.921  12.062  1.00  0.00    -0.057 NA
ATOM     33  H4  UNL     1      32.402  14.037  10.300  1.00  0.00     0.163 HD
BRANCH  31  34
HETATM   34  O2  UNL     1      31.643  11.719  12.447  1.00  0.00    -0.335 OA
ATOM     35  H2  UNL     1      31.895  11.569  13.351  1.00  0.00     0.220 HD
ENDBRANCH  31  34
ENDBRANCH   1  30
TORSDOF 13
ENDMDL
MODEL 2
REMARK VINA RESULT: -7.453462788      1.930      2.084
REMARK  13 active torsions:
REMARK  status: ('A' for Active; 'I' for Inactive)
REMARK    1  A    between atoms: C1_4  and  C2_6 
REMARK    2  A    between atoms: C5_9  and  C6_10 
REMARK    3  A    between atoms: C6_10  and  C7_11 
REMARK    4  A    between atoms: C7_11  and  C8_12 
REMARK    5  A    between atoms: C8_12  and  C9_13 
REMARK    6  A    between atoms: C8_12  and  N4_28 
REMARK    7  A    between atoms: C9_13  and  C10_14 
REMARK    8  A    between atoms: C13_17  and  O1_18 
REMARK    9  A    between atoms: O1_18  and  C14_19 
REMARK   10  A    between atoms: C14_19  and  C15_20 
REMARK   11  A    between atoms: C15_20  and  C16_21 
REMARK   12  A    between atoms: C16_21  and  N3_22 
REMARK   13  A    between atoms: C19_30  and  O2_32 
ROOT
HETATM    1  C8  UNL     1      33.518  12.295  10.287  1.00  0.00     0.092 C 
ENDROOT
BRANCH   1   2
HETATM    2  C7  UNL     1      33.554  12.501   8.812  1.00  0.00     0.053 C 
BRANCH   2   3
HETATM    3  C6  UNL     1      33.866  11.359   7.941  1.00  0.00    -0.013 C 
BRANCH   3   4
HETATM    4  C5  UNL     1      34.864  10.382   8.282  1.00  0.00    -0.040 A 
HETATM    5  C4  UNL     1      34.534   9.267   9.024  1.00  0.00     0.012 A 
HETATM    6  C3  UNL     1      35.442   8.306   9.402  1.00  0.00     0.015 A 
HETATM    7  C2  UNL     1      36.757   8.420   9.043  1.00  0.00     0.004 A 
HETATM    8  C21 UNL     1      37.111   9.542   8.291  1.00  0.00     0.015 A 
HETATM    9  C20 UNL     1      36.202  10.504   7.914  1.00  0.00     0.012 A 
BRANCH   7  10
HETATM   10  C1  UNL     1      37.786   7.460   9.392  1.00  0.00     0.120 C 
HETATM   11  N1  UNL     1      37.643   6.223   9.092  1.00  0.00    -0.387 N 
ATOM     12  H12 UNL     1      38.367   5.548   9.337  1.00  0.00     0.157 HD
ATOM     13  H11 UNL     1      36.799   5.922   8.604  1.00  0.00     0.157 HD
HETATM   14  N2  UNL     1      38.950   7.875  10.063  1.00  0.00    -0.082 NA
ENDBRANCH   7  10
ENDBRANCH   3   4
ENDBRANCH   2   3
ENDBRANCH   1   2
BRANCH   1  15
HETATM   15  C9  UNL     1      34.852  12.577  10.952  1.00  0.00     0.064 C 
BRANCH  15  16
HETATM   16  C10 UNL     1      35.381  11.495  11.776  1.00  0.00    -0.056 A 
HETATM   17  C11 UNL     1      34.556  10.897  12.706  1.00  0.00     0.010 A 
HETATM   18  C12 UNL     1      35.048   9.858  13.505  1.00  0.00     0.037 A 
HETATM   19  C13 UNL     1      36.339   9.428  13.374  1.00  0.00     0.068 A 
HETATM   20  C17 UNL     1      37.164  10.055  12.414  1.00  0.00     0.037 A 
HETATM   21  C18 UNL     1      36.688  11.065  11.637  1.00  0.00     0.010 A 
BRANCH  19  22
HETATM   22  O1  UNL     1      36.867   8.441  14.112  1.00  0.00    -0.351 OA
BRANCH  22  23
HETATM   23  C14 UNL     1      36.706   7.956  15.377  1.00  0.00     0.177 C 
BRANCH  23  24
HETATM   24  C15 UNL     1      35.641   6.899  15.452  1.00  0.00     0.054 C 
BRANCH  24  25
HETATM   25  C16 UNL     1      34.591   7.314  16.494  1.00  0.00     0.231 C 
BRANCH  25  26
HETATM   26  N3  UNL     1      33.360   6.590  16.226  1.00  0.00    -0.079 N 
ATOM     27  H33 UNL     1      33.474   5.580  16.312  1.00  0.00     0.274 HD
ATOM     28  H32 UNL     1      32.664   6.716  16.961  1.00  0.00     0.274 HD
ATOM     29  H31 UNL     1      33.014   6.866  15.307  1.00  0.00     0.274 HD
ENDBRANCH  25  26
ENDBRANCH  24  25
ENDBRANCH  23  24
ENDBRANCH  22  23
ENDBRANCH  19  22
ENDBRANCH  15  16
ENDBRANCH   1  15
BRANCH   1  30
HETATM   30  N4  UNL     1      32.603  13.232  10.889  1.00  0.00    -0.354 N 
HETATM   31  C19 UNL     1      31.729  13.038  11.783  1.00  0.00     0.225 C 
HETATM   32  N5  UNL     1      30.964  14.203  12.171  1.00  0.00    -0.057 NA
ATOM     33  H4  UNL     1      32.670  14.189  10.544  1.00  0.00     0.163 HD
BRANCH  31  34
HETATM   34  O2  UNL     1      31.395  11.884  12.447  1.00  0.00    -0.335 OA
ATOM     35  H2  UNL     1      31.372  10.988  12.132  1.00  0.00     0.220 HD
ENDBRANCH  31  34
ENDBRANCH   1  30
TORSDOF 13
ENDMDL
MODEL 3
REMARK VINA RESULT: -7.452225205      1.938      2.441
REMARK  13 active torsions:
REMARK  status: ('A' for Active; 'I' for Inactive)
REMARK    1  A    between atoms: C1_4  and  C2_6 
REMARK    2  A    between atoms: C5_9  and  C6_10 
REMARK    3  A    between atoms: C6_10  and  C7_11 
REMARK    4  A    between atoms: C7_11  and  C8_12 
REMARK    5  A    between atoms: C8_12  and  C9_13 
REMARK    6  A    between atoms: C8_12  and  N4_28 
REMARK    7  A    between atoms: C9_13  and  C10_14 
REMARK    8  A    between atoms: C13_17  and  O1_18 
REMARK    9  A    between atoms: O1_18  and  C14_19 
REMARK   10  A    between atoms: C14_19  and  C15_20 
REMARK   11  A    between atoms: C15_20  and  C16_21 
REMARK   12  A    between atoms: C16_21  and  N3_22 
REMARK   13  A    between atoms: C19_30  and  O2_32 
ROOT
HETATM    1  C8  UNL     1      33.514  12.284  10.295  1.00  0.00     0.092 C 
ENDROOT
BRANCH   1   2
HETATM    2  C7  UNL     1      33.560  12.485   8.819  1.00  0.00     0.053 C 
BRANCH   2   3
HETATM    3  C6  UNL     1      33.913  11.349   7.956  1.00  0.00    -0.013 C 
BRANCH   3   4
HETATM    4  C5  UNL     1      34.885  10.363   8.343  1.00  0.00    -0.040 A 
HETATM    5  C4  UNL     1      36.209  10.497   7.980  1.00  0.00     0.012 A 
HETATM    6  C3  UNL     1      37.184   9.581   8.299  1.00  0.00     0.015 A 
HETATM    7  C2  UNL     1      36.870   8.461   9.018  1.00  0.00     0.004 A 
HETATM    8  C21 UNL     1      35.534   8.307   9.396  1.00  0.00     0.015 A 
HETATM    9  C20 UNL     1      34.559   9.223   9.075  1.00  0.00     0.012 A 
BRANCH   7  10
HETATM   10  C1  UNL     1      37.826   7.441   9.403  1.00  0.00     0.120 C 
HETATM   11  N1  UNL     1      37.632   6.218   9.075  1.00  0.00    -0.387 N 
ATOM     12  H12 UNL     1      38.305   5.501   9.346  1.00  0.00     0.157 HD
ATOM     13  H11 UNL     1      36.799   5.970   8.541  1.00  0.00     0.157 HD
HETATM   14  N2  UNL     1      38.975   7.782  10.139  1.00  0.00    -0.082 NA
ENDBRANCH   7  10
ENDBRANCH   3   4
ENDBRANCH   2   3
ENDBRANCH   1   2
BRANCH   1  15
HETATM   15  C9  UNL     1      34.843  12.569  10.967  1.00  0.00     0.064 C 
BRANCH  15  16
HETATM   16  C10 UNL     1      35.366  11.491  11.800  1.00  0.00    -0.056 A 
HETATM   17  C11 UNL     1      36.676  11.092  11.635  1.00  0.00     0.010 A 
HETATM   18  C12 UNL     1      37.192  10.058  12.425  1.00  0.00     0.037 A 
HETATM   19  C13 UNL     1      36.412   9.439  13.361  1.00  0.00     0.068 A 
HETATM   20  C17 UNL     1      35.073   9.865  13.512  1.00  0.00     0.037 A 
HETATM   21  C18 UNL     1      34.570  10.868  12.745  1.00  0.00     0.010 A 
BRANCH  19  22
HETATM   22  O1  UNL     1      36.849   8.442  14.145  1.00  0.00    -0.351 OA
BRANCH  22  23
HETATM   23  C14 UNL     1      36.648   8.032  15.430  1.00  0.00     0.177 C 
BRANCH  23  24
HETATM   24  C15 UNL     1      35.624   6.937  15.525  1.00  0.00     0.054 C 
BRANCH  24  25
HETATM   25  C16 UNL     1      34.509   7.371  16.489  1.00  0.00     0.231 C 
BRANCH  25  26
HETATM   26  N3  UNL     1      33.327   6.570  16.222  1.00  0.00    -0.079 N 
ATOM     27  H33 UNL     1      33.555   5.655  15.832  1.00  0.00     0.274 HD
ATOM     28  H32 UNL     1      32.871   6.248  17.076  1.00  0.00     0.274 HD
ATOM     29  H31 UNL     1      32.700   7.105  15.622  1.00  0.00     0.274 HD
ENDBRANCH  25  26
ENDBRANCH  24  25
ENDBRANCH  23  24
ENDBRANCH  22  23
ENDBRANCH  19  22
ENDBRANCH  15  16
ENDBRANCH   1  15
BRANCH   1  30
HETATM   30  N4  UNL     1      32.595  13.224  10.886  1.00  0.00    -0.354 N 
HETATM   31  C19 UNL     1      31.722  13.036  11.783  1.00  0.00     0.225 C 
HETATM   32  N5  UNL     1      30.953  14.202  12.159  1.00  0.00    -0.057 NA
ATOM     33  H4  UNL     1      32.657  14.178  10.531  1.00  0.00     0.163 HD
BRANCH  31  34
HETATM   34  O2  UNL     1      31.393  11.887  12.459  1.00  0.00    -0.335 OA
ATOM     35  H2  UNL     1      30.656  11.301  12.336  1.00  0.00     0.220 HD
ENDBRANCH  31  34
ENDBRANCH   1  30
TORSDOF 13
ENDMDL
MODEL 4
REMARK VINA RESULT: -7.228126296      1.420      1.695
REMARK  13 active torsions:
REMARK  status: ('A' for Active; 'I' for Inactive)
REMARK    1  A    between atoms: C1_4  and  C2_6 
REMARK    2  A    between atoms: C5_9  and  C6_10 
REMARK    3  A    between atoms: C6_10  and  C7_11 
REMARK    4  A    between atoms: C7_11  and  C8_12 
REMARK    5  A    between atoms: C8_12  and  C9_13 
REMARK    6  A    between atoms: C8_12  and  N4_28 
REMARK    7  A    between atoms: C9_13  and  C10_14 
REMARK    8  A    between atoms: C13_17  and  O1_18 
REMARK    9  A    between atoms: O1_18  and  C14_19 
REMARK   10  A    between atoms: C14_19  and  C15_20 
REMARK   11  A    between atoms: C15_20  and  C16_21 
REMARK   12  A    between atoms: C16_21  and  N3_22 
REMARK   13  A    between atoms: C19_30  and  O2_32 
ROOT
HETATM    1  C8  UNL     1      33.546  12.271  10.147  1.00  0.00     0.092 C 
ENDROOT
BRANCH   1   2
HETATM    2  C7  UNL     1      33.546  12.450   8.668  1.00  0.00     0.053 C 
BRANCH   2   3
HETATM    3  C6  UNL     1      33.868  11.299   7.811  1.00  0.00    -0.013 C 
BRANCH   3   4
HETATM    4  C5  UNL     1      34.872  10.333   8.167  1.00  0.00    -0.040 A 
HETATM    5  C4  UNL     1      34.540   9.205   8.887  1.00  0.00     0.012 A 
HETATM    6  C3  UNL     1      35.453   8.253   9.277  1.00  0.00     0.015 A 
HETATM    7  C2  UNL     1      36.775   8.391   8.953  1.00  0.00     0.004 A 
HETATM    8  C21 UNL     1      37.131   9.527   8.224  1.00  0.00     0.015 A 
HETATM    9  C20 UNL     1      36.217  10.480   7.835  1.00  0.00     0.012 A 
BRANCH   7  10
HETATM   10  C1  UNL     1      37.809   7.443   9.318  1.00  0.00     0.120 C 
HETATM   11  N1  UNL     1      37.626   6.187   9.141  1.00  0.00    -0.387 N 
ATOM     12  H12 UNL     1      38.353   5.521   9.398  1.00  0.00     0.157 HD
ATOM     13  H11 UNL     1      36.745   5.863   8.741  1.00  0.00     0.157 HD
HETATM   14  N2  UNL     1      39.024   7.889   9.870  1.00  0.00    -0.082 NA
ENDBRANCH   7  10
ENDBRANCH   3   4
ENDBRANCH   2   3
ENDBRANCH   1   2
BRANCH   1  15
HETATM   15  C9  UNL     1      34.839  12.726  10.793  1.00  0.00     0.064 C 
BRANCH  15  16
HETATM   16  C10 UNL     1      35.647  11.666  11.389  1.00  0.00    -0.056 A 
HETATM   17  C11 UNL     1      35.025  10.695  12.145  1.00  0.00     0.010 A 
HETATM   18  C12 UNL     1      35.785   9.672  12.724  1.00  0.00     0.037 A 
HETATM   19  C13 UNL     1      37.140   9.624  12.547  1.00  0.00     0.068 A 
HETATM   20  C17 UNL     1      37.755  10.629  11.768  1.00  0.00     0.037 A 
HETATM   21  C18 UNL     1      37.017  11.624  11.205  1.00  0.00     0.010 A 
BRANCH  19  22
HETATM   22  O1  UNL     1      37.921   8.671  13.078  1.00  0.00    -0.351 OA
BRANCH  22  23
HETATM   23  C14 UNL     1      38.166   8.172  14.324  1.00  0.00     0.177 C 
BRANCH  23  24
HETATM   24  C15 UNL     1      37.821   6.714  14.432  1.00  0.00     0.054 C 
BRANCH  24  25
HETATM   25  C16 UNL     1      38.998   5.877  13.910  1.00  0.00     0.231 C 
BRANCH  25  26
HETATM   26  N3  UNL     1      39.078   6.037  12.468  1.00  0.00    -0.079 N 
ATOM     27  H33 UNL     1      39.597   6.871  12.195  1.00  0.00     0.274 HD
ATOM     28  H32 UNL     1      39.686   5.344  12.030  1.00  0.00     0.274 HD
ATOM     29  H31 UNL     1      38.132   6.023  12.086  1.00  0.00     0.274 HD
ENDBRANCH  25  26
ENDBRANCH  24  25
ENDBRANCH  23  24
ENDBRANCH  22  23
ENDBRANCH  19  22
ENDBRANCH  15  16
ENDBRANCH   1  15
BRANCH   1  30
HETATM   30  N4  UNL     1      32.528  13.102  10.738  1.00  0.00    -0.354 N 
HETATM   31  C19 UNL     1      31.749  12.852  11.703  1.00  0.00     0.225 C 
HETATM   32  N5  UNL     1      30.830  13.913  12.054  1.00  0.00    -0.057 NA
ATOM     33  H4  UNL     1      32.420  14.025  10.318  1.00  0.00     0.163 HD
BRANCH  31  34
HETATM   34  O2  UNL     1      31.643  11.722  12.474  1.00  0.00    -0.335 OA
ATOM     35  H2  UNL     1      32.286  11.309  13.038  1.00  0.00     0.220 HD
ENDBRANCH  31  34
ENDBRANCH   1  30
TORSDOF 13
ENDMDL
MODEL 5
REMARK VINA RESULT: -6.691067081      2.255      2.880
REMARK  13 active torsions:
REMARK  status: ('A' for Active; 'I' for Inactive)
REMARK    1  A    between atoms: C1_4  and  C2_6 
REMARK    2  A    between atoms: C5_9  and  C6_10 
REMARK    3  A    between atoms: C6_10  and  C7_11 
REMARK    4  A    between atoms: C7_11  and  C8_12 
REMARK    5  A    between atoms: C8_12  and  C9_13 
REMARK    6  A    between atoms: C8_12  and  N4_28 
REMARK    7  A    between atoms: C9_13  and  C10_14 
REMARK    8  A    between atoms: C13_17  and  O1_18 
REMARK    9  A    between atoms: O1_18  and  C14_19 
REMARK   10  A    between atoms: C14_19  and  C15_20 
REMARK   11  A    between atoms: C15_20  and  C16_21 
REMARK   12  A    between atoms: C16_21  and  N3_22 
REMARK   13  A    between atoms: C19_30  and  O2_32 
ROOT
HETATM    1  C8  UNL     1      34.489  10.878  10.703  1.00  0.00     0.092 C 
ENDROOT
BRANCH   1   2
HETATM    2  C7  UNL     1      34.216  11.044   9.248  1.00  0.00     0.053 C 
BRANCH   2   3
HETATM    3  C6  UNL     1      34.796  10.081   8.300  1.00  0.00    -0.013 C 
BRANCH   3   4
HETATM    4  C5  UNL     1      36.047   9.417   8.549  1.00  0.00    -0.040 A 
HETATM    5  C4  UNL     1      36.076   8.141   9.073  1.00  0.00     0.012 A 
HETATM    6  C3  UNL     1      37.236   7.457   9.354  1.00  0.00     0.015 A 
HETATM    7  C2  UNL     1      38.452   8.035   9.114  1.00  0.00     0.004 A 
HETATM    8  C21 UNL     1      38.444   9.327   8.583  1.00  0.00     0.015 A 
HETATM    9  C20 UNL     1      37.283  10.010   8.303  1.00  0.00     0.012 A 
BRANCH   7  10
HETATM   10  C1  UNL     1      39.727   7.396   9.375  1.00  0.00     0.120 C 
HETATM   11  N1  UNL     1      39.982   6.916  10.536  1.00  0.00    -0.387 N 
ATOM     12  H12 UNL     1      40.879   6.467  10.719  1.00  0.00     0.157 HD
ATOM     13  H11 UNL     1      39.280   6.989  11.272  1.00  0.00     0.157 HD
HETATM   14  N2  UNL     1      40.696   7.295   8.361  1.00  0.00    -0.082 NA
ENDBRANCH   7  10
ENDBRANCH   3   4
ENDBRANCH   2   3
ENDBRANCH   1   2
BRANCH   1  15
HETATM   15  C9  UNL     1      35.545  11.839  11.215  1.00  0.00     0.064 C 
BRANCH  15  16
HETATM   16  C10 UNL     1      36.836  11.236  11.533  1.00  0.00    -0.056 A 
HETATM   17  C11 UNL     1      36.865  10.010  12.163  1.00  0.00     0.010 A 
HETATM   18  C12 UNL     1      38.095   9.419  12.476  1.00  0.00     0.037 A 
HETATM   19  C13 UNL     1      39.270  10.044  12.163  1.00  0.00     0.068 A 
HETATM   20  C17 UNL     1      39.214  11.299  11.517  1.00  0.00     0.037 A 
HETATM   21  C18 UNL     1      38.020  11.875  11.212  1.00  0.00     0.010 A 
BRANCH  19  22
HETATM   22  O1  UNL     1      40.476   9.530  12.440  1.00  0.00    -0.351 OA
BRANCH  22  23
HETATM   23  C14 UNL     1      41.775   9.931  12.323  1.00  0.00     0.177 C 
BRANCH  23  24
HETATM   24  C15 UNL     1      42.486   9.242  11.193  1.00  0.00     0.054 C 
BRANCH  24  25
HETATM   25  C16 UNL     1      42.386  10.111   9.930  1.00  0.00     0.231 C 
BRANCH  25  26
HETATM   26  N3  UNL     1      43.664  10.770   9.717  1.00  0.00    -0.079 N 
ATOM     27  H33 UNL     1      44.039  11.180  10.573  1.00  0.00     0.274 HD
ATOM     28  H32 UNL     1      44.419  10.108   9.536  1.00  0.00     0.274 HD
ATOM     29  H31 UNL     1      43.556  11.455   8.970  1.00  0.00     0.274 HD
ENDBRANCH  25  26
ENDBRANCH  24  25
ENDBRANCH  23  24
ENDBRANCH  22  23
ENDBRANCH  19  22
ENDBRANCH  15  16
ENDBRANCH   1  15
BRANCH   1  30
HETATM   30  N4  UNL     1      33.305  11.197  11.460  1.00  0.00    -0.354 N 
HETATM   31  C19 UNL     1      32.609  12.255  11.453  1.00  0.00     0.225 C 
HETATM   32  N5  UNL     1      31.469  12.256  12.344  1.00  0.00    -0.057 NA
ATOM     33  H4  UNL     1      32.981  10.466  12.093  1.00  0.00     0.163 HD
BRANCH  31  34
HETATM   34  O2  UNL     1      32.771  13.406  10.724  1.00  0.00    -0.335 OA
ATOM     35  H2  UNL     1      32.595  14.308  10.966  1.00  0.00     0.220 HD
ENDBRANCH  31  34
ENDBRANCH   1  30
TORSDOF 13
ENDMDL
