MODEL 1
REMARK VINA RESULT: -7.585598101      0.000      0.000
REMARK  11 active torsions:
REMARK  status: ('A' for Active; 'I' for Inactive)
REMARK    1  A    between atoms: C1_2  and  C2_7 
REMARK    2  A    between atoms: N2_3  and  O1_5 
REMARK    3  A    between atoms: C5_10  and  C6_11 
REMARK    4  A    between atoms: C6_11  and  C7_12 
REMARK    5  A    between atoms: C7_12  and  N3_13 
REMARK    6  A    between atoms: N3_13  and  C8_16 
REMARK    7  A    between atoms: C8_16  and  C9_17 
REMARK    8  A    between atoms: C9_17  and  N4_18 
REMARK    9  A    between atoms: N4_18  and  S1_20 
REMARK   10  A    between atoms: S1_20  and  C10_23 
REMARK   11  A    between atoms: C10_23  and  C11_24 
ROOT
HETATM    1  N3  UNL     1      33.616  11.279  10.819  1.00  0.00    -0.070 N 
ATOM      2  H31 UNL     1      32.844  10.829  11.311  1.00  0.00     0.277 HD
ATOM      3  H32 UNL     1      33.863  10.535  10.166  1.00  0.00     0.277 HD
ENDROOT
BRANCH   1   4
HETATM    4  C7  UNL     1      34.694  11.535  11.712  1.00  0.00     0.237 C 
BRANCH   4   5
HETATM    5  C6  UNL     1      35.711  10.432  11.637  1.00  0.00     0.066 C 
BRANCH   5   6
HETATM    6  C5  UNL     1      35.600   9.557  12.816  1.00  0.00    -0.057 A 
HETATM    7  C4  UNL     1      34.953   9.924  13.972  1.00  0.00     0.008 A 
HETATM    8  C3  UNL     1      34.856   9.078  15.084  1.00  0.00     0.015 A 
HETATM    9  C2  UNL     1      35.404   7.819  15.090  1.00  0.00     0.007 A 
HETATM   10  C18 UNL     1      36.058   7.462  13.907  1.00  0.00     0.015 A 
HETATM   11  C17 UNL     1      36.157   8.285  12.814  1.00  0.00     0.008 A 
BRANCH   9  12
HETATM   12  C1  UNL     1      35.361   6.875  16.176  1.00  0.00     0.146 C 
HETATM   13  N1  UNL     1      36.631   6.532  16.809  1.00  0.00    -0.080 NA
HETATM   14  N2  UNL     1      34.335   6.317  16.630  1.00  0.00    -0.255 N 
ATOM     15  H2  UNL     1      34.527   5.680  17.403  1.00  0.00     0.195 HD
BRANCH  14  16
HETATM   16  O1  UNL     1      33.043   6.387  16.309  1.00  0.00    -0.288 OA
ATOM     17  H1  UNL     1      32.573   6.791  15.589  1.00  0.00     0.244 HD
ENDBRANCH  14  16
ENDBRANCH   9  12
ENDBRANCH   5   6
ENDBRANCH   4   5
ENDBRANCH   1   4
BRANCH   1  18
HETATM   18  C8  UNL     1      33.146  12.451  10.100  1.00  0.00     0.277 C 
BRANCH  18  19
HETATM   19  C9  UNL     1      33.213  12.232   8.593  1.00  0.00     0.100 C 
BRANCH  19  20
HETATM   20  N4  UNL     1      34.302  11.440   8.203  1.00  0.00    -0.294 N 
ATOM     21  H4  UNL     1      35.252  11.792   8.318  1.00  0.00     0.177 HD
BRANCH  20  22
HETATM   22  S1  UNL     1      34.049   9.914   7.548  1.00  0.00     0.253 S 
HETATM   23  O2  UNL     1      33.178   9.975   6.290  1.00  0.00    -0.201 OA
HETATM   24  O3  UNL     1      33.086   9.201   8.531  1.00  0.00    -0.201 OA
BRANCH  22  25
HETATM   25  C10 UNL     1      35.391   8.860   7.365  1.00  0.00     0.143 C 
BRANCH  25  26
HETATM   26  C11 UNL     1      36.483   8.814   8.290  1.00  0.00    -0.024 A 
HETATM   27  C12 UNL     1      37.414   9.851   8.388  1.00  0.00     0.012 A 
HETATM   28  C13 UNL     1      38.504   9.785   9.238  1.00  0.00     0.001 A 
HETATM   29  C14 UNL     1      38.710   8.674  10.026  1.00  0.00     0.000 A 
HETATM   30  C15 UNL     1      37.806   7.638   9.949  1.00  0.00     0.001 A 
HETATM   31  C16 UNL     1      36.711   7.717   9.088  1.00  0.00     0.012 A 
ENDBRANCH  25  26
ENDBRANCH  22  25
ENDBRANCH  20  22
ENDBRANCH  19  20
ENDBRANCH  18  19
ENDBRANCH   1  18
TORSDOF 11
ENDMDL
MODEL 2
REMARK VINA RESULT: -7.534638350      3.584      6.433
REMARK  11 active torsions:
REMARK  status: ('A' for Active; 'I' for Inactive)
REMARK    1  A    between atoms: C1_2  and  C2_7 
REMARK    2  A    between atoms: N2_3  and  O1_5 
REMARK    3  A    between atoms: C5_10  and  C6_11 
REMARK    4  A    between atoms: C6_11  and  C7_12 
REMARK    5  A    between atoms: C7_12  and  N3_13 
REMARK    6  A    between atoms: N3_13  and  C8_16 
REMARK    7  A    between atoms: C8_16  and  C9_17 
REMARK    8  A    between atoms: C9_17  and  N4_18 
REMARK    9  A    between atoms: N4_18  and  S1_20 
REMARK   10  A    between atoms: S1_20  and  C10_23 
REMARK   11  A    between atoms: C10_23  and  C11_24 
ROOT
HETATM    1  N3  UNL     1      35.465   8.978  12.701  1.00  0.00    -0.070 N 
ATOM      2  H31 UNL     1      35.101   8.059  12.957  1.00  0.00     0.277 HD
ATOM      3  H32 UNL     1      34.966   9.124  11.824  1.00  0.00     0.277 HD
ENDROOT
BRANCH   1   4
HETATM    4  C7  UNL     1      36.867   8.912  12.470  1.00  0.00     0.237 C 
BRANCH   4   5
HETATM    5  C6  UNL     1      37.152   8.247  11.154  1.00  0.00     0.066 C 
BRANCH   5   6
HETATM    6  C5  UNL     1      38.158   9.014  10.403  1.00  0.00    -0.057 A 
HETATM    7  C4  UNL     1      38.425  10.343  10.636  1.00  0.00     0.008 A 
HETATM    8  C3  UNL     1      39.388  11.058   9.912  1.00  0.00     0.015 A 
HETATM    9  C2  UNL     1      40.132  10.472   8.917  1.00  0.00     0.007 A 
HETATM   10  C18 UNL     1      39.848   9.122   8.694  1.00  0.00     0.015 A 
HETATM   11  C17 UNL     1      38.906   8.415   9.398  1.00  0.00     0.008 A 
BRANCH   9  12
HETATM   12  C1  UNL     1      41.142  11.115   8.117  1.00  0.00     0.146 C 
HETATM   13  N1  UNL     1      40.763  11.517   6.766  1.00  0.00    -0.080 NA
HETATM   14  N2  UNL     1      42.319  11.363   8.471  1.00  0.00    -0.255 N 
ATOM     15  H2  UNL     1      42.871  11.824   7.749  1.00  0.00     0.195 HD
BRANCH  14  16
HETATM   16  O1  UNL     1      42.995  11.146   9.599  1.00  0.00    -0.288 OA
ATOM     17  H1  UNL     1      43.919  11.027   9.790  1.00  0.00     0.244 HD
ENDBRANCH  14  16
ENDBRANCH   9  12
ENDBRANCH   5   6
ENDBRANCH   4   5
ENDBRANCH   1   4
BRANCH   1  18
HETATM   18  C8  UNL     1      35.068   9.972  13.684  1.00  0.00     0.277 C 
BRANCH  18  19
HETATM   19  C9  UNL     1      34.594  11.253  13.006  1.00  0.00     0.100 C 
BRANCH  19  20
HETATM   20  N4  UNL     1      33.883  11.014  11.822  1.00  0.00    -0.294 N 
ATOM     21  H4  UNL     1      33.553  10.073  11.609  1.00  0.00     0.177 HD
BRANCH  20  22
HETATM   22  S1  UNL     1      33.572  12.270  10.751  1.00  0.00     0.253 S 
HETATM   23  O2  UNL     1      34.618  13.383  10.865  1.00  0.00    -0.201 OA
HETATM   24  O3  UNL     1      32.323  12.991  11.319  1.00  0.00    -0.201 OA
BRANCH  22  25
HETATM   25  C10 UNL     1      33.189  11.893   9.122  1.00  0.00     0.143 C 
BRANCH  25  26
HETATM   26  C11 UNL     1      33.929  10.947   8.342  1.00  0.00    -0.024 A 
HETATM   27  C12 UNL     1      35.318  10.829   8.443  1.00  0.00     0.012 A 
HETATM   28  C13 UNL     1      36.043   9.958   7.649  1.00  0.00     0.001 A 
HETATM   29  C14 UNL     1      35.407   9.167   6.717  1.00  0.00     0.000 A 
HETATM   30  C15 UNL     1      34.038   9.264   6.598  1.00  0.00     0.001 A 
HETATM   31  C16 UNL     1      33.319  10.146   7.405  1.00  0.00     0.012 A 
ENDBRANCH  25  26
ENDBRANCH  22  25
ENDBRANCH  20  22
ENDBRANCH  19  20
ENDBRANCH  18  19
ENDBRANCH   1  18
TORSDOF 11
ENDMDL
MODEL 3
REMARK VINA RESULT: -7.378552570      4.188      6.704
REMARK  11 active torsions:
REMARK  status: ('A' for Active; 'I' for Inactive)
REMARK    1  A    between atoms: C1_2  and  C2_7 
REMARK    2  A    between atoms: N2_3  and  O1_5 
REMARK    3  A    between atoms: C5_10  and  C6_11 
REMARK    4  A    between atoms: C6_11  and  C7_12 
REMARK    5  A    between atoms: C7_12  and  N3_13 
REMARK    6  A    between atoms: N3_13  and  C8_16 
REMARK    7  A    between atoms: C8_16  and  C9_17 
REMARK    8  A    between atoms: C9_17  and  N4_18 
REMARK    9  A    between atoms: N4_18  and  S1_20 
REMARK   10  A    between atoms: S1_20  and  C10_23 
REMARK   11  A    between atoms: C10_23  and  C11_24 
ROOT
HETATM    1  N3  UNL     1      36.319  10.007  12.304  1.00  0.00    -0.070 N 
ATOM      2  H31 UNL     1      36.656   9.044  12.283  1.00  0.00     0.277 HD
ATOM      3  H32 UNL     1      35.854  10.047  11.398  1.00  0.00     0.277 HD
ENDROOT
BRANCH   1   4
HETATM    4  C7  UNL     1      37.412  10.917  12.343  1.00  0.00     0.237 C 
BRANCH   4   5
HETATM    5  C6  UNL     1      37.646  11.514  10.985  1.00  0.00     0.066 C 
BRANCH   5   6
HETATM    6  C5  UNL     1      38.972  11.125  10.479  1.00  0.00    -0.057 A 
HETATM    7  C4  UNL     1      39.156  10.318   9.381  1.00  0.00     0.008 A 
HETATM    8  C3  UNL     1      40.426   9.959   8.913  1.00  0.00     0.015 A 
HETATM    9  C2  UNL     1      41.577  10.393   9.525  1.00  0.00     0.007 A 
HETATM   10  C18 UNL     1      41.371  11.211  10.639  1.00  0.00     0.015 A 
HETATM   11  C17 UNL     1      40.130  11.568  11.104  1.00  0.00     0.008 A 
BRANCH   9  12
HETATM   12  C1  UNL     1      42.925  10.083   9.125  1.00  0.00     0.146 C 
HETATM   13  N1  UNL     1      43.513   8.860   9.665  1.00  0.00    -0.080 NA
HETATM   14  N2  UNL     1      43.643  10.764   8.357  1.00  0.00    -0.255 N 
ATOM     15  H2  UNL     1      44.569  10.364   8.206  1.00  0.00     0.195 HD
BRANCH  14  16
HETATM   16  O1  UNL     1      43.444  11.905   7.697  1.00  0.00    -0.288 OA
ATOM     17  H1  UNL     1      44.003  12.447   7.152  1.00  0.00     0.244 HD
ENDBRANCH  14  16
ENDBRANCH   9  12
ENDBRANCH   5   6
ENDBRANCH   4   5
ENDBRANCH   1   4
BRANCH   1  18
HETATM   18  C8  UNL     1      35.356  10.185  13.378  1.00  0.00     0.277 C 
BRANCH  18  19
HETATM   19  C9  UNL     1      34.278  11.188  12.985  1.00  0.00     0.100 C 
BRANCH  19  20
HETATM   20  N4  UNL     1      33.797  10.993  11.684  1.00  0.00    -0.294 N 
ATOM     21  H4  UNL     1      33.601  10.049  11.351  1.00  0.00     0.177 HD
BRANCH  20  22
HETATM   22  S1  UNL     1      33.542  12.306  10.668  1.00  0.00     0.253 S 
HETATM   23  O2  UNL     1      34.597  13.396  10.876  1.00  0.00    -0.201 OA
HETATM   24  O3  UNL     1      32.282  13.016  11.226  1.00  0.00    -0.201 OA
BRANCH  22  25
HETATM   25  C10 UNL     1      33.215  12.018   9.008  1.00  0.00     0.143 C 
BRANCH  25  26
HETATM   26  C11 UNL     1      33.957  11.084   8.215  1.00  0.00    -0.024 A 
HETATM   27  C12 UNL     1      33.403  10.463   7.092  1.00  0.00     0.012 A 
HETATM   28  C13 UNL     1      34.095   9.516   6.358  1.00  0.00     0.001 A 
HETATM   29  C14 UNL     1      35.373   9.149   6.717  1.00  0.00     0.000 A 
HETATM   30  C15 UNL     1      35.942   9.748   7.819  1.00  0.00     0.001 A 
HETATM   31  C16 UNL     1      35.234  10.701   8.551  1.00  0.00     0.012 A 
ENDBRANCH  25  26
ENDBRANCH  22  25
ENDBRANCH  20  22
ENDBRANCH  19  20
ENDBRANCH  18  19
ENDBRANCH   1  18
TORSDOF 11
ENDMDL
MODEL 4
REMARK VINA RESULT: -7.354341626      3.371      5.526
REMARK  11 active torsions:
REMARK  status: ('A' for Active; 'I' for Inactive)
REMARK    1  A    between atoms: C1_2  and  C2_7 
REMARK    2  A    between atoms: N2_3  and  O1_5 
REMARK    3  A    between atoms: C5_10  and  C6_11 
REMARK    4  A    between atoms: C6_11  and  C7_12 
REMARK    5  A    between atoms: C7_12  and  N3_13 
REMARK    6  A    between atoms: N3_13  and  C8_16 
REMARK    7  A    between atoms: C8_16  and  C9_17 
REMARK    8  A    between atoms: C9_17  and  N4_18 
REMARK    9  A    between atoms: N4_18  and  S1_20 
REMARK   10  A    between atoms: S1_20  and  C10_23 
REMARK   11  A    between atoms: C10_23  and  C11_24 
ROOT
HETATM    1  N3  UNL     1      34.473   9.812   7.932  1.00  0.00    -0.070 N 
ATOM      2  H31 UNL     1      34.419   9.516   8.906  1.00  0.00     0.277 HD
ATOM      3  H32 UNL     1      34.089   8.984   7.477  1.00  0.00     0.277 HD
ENDROOT
BRANCH   1   4
HETATM    4  C7  UNL     1      35.829  10.007   7.545  1.00  0.00     0.237 C 
BRANCH   4   5
HETATM    5  C6  UNL     1      36.715  10.076   8.756  1.00  0.00     0.066 C 
BRANCH   5   6
HETATM    6  C5  UNL     1      37.359   8.774   8.991  1.00  0.00    -0.057 A 
HETATM    7  C4  UNL     1      38.719   8.581   8.936  1.00  0.00     0.008 A 
HETATM    8  C3  UNL     1      39.315   7.334   9.164  1.00  0.00     0.015 A 
HETATM    9  C2  UNL     1      38.573   6.216   9.458  1.00  0.00     0.007 A 
HETATM   10  C18 UNL     1      37.193   6.430   9.509  1.00  0.00     0.015 A 
HETATM   11  C17 UNL     1      36.601   7.648   9.287  1.00  0.00     0.008 A 
BRANCH   9  12
HETATM   12  C1  UNL     1      39.085   4.894   9.708  1.00  0.00     0.146 C 
HETATM   13  N1  UNL     1      39.392   4.552  11.094  1.00  0.00    -0.080 NA
HETATM   14  N2  UNL     1      39.293   4.008   8.847  1.00  0.00    -0.255 N 
ATOM     15  H2  UNL     1      39.660   3.140   9.239  1.00  0.00     0.195 HD
BRANCH  14  16
HETATM   16  O1  UNL     1      39.134   3.966   7.525  1.00  0.00    -0.288 OA
ATOM     17  H1  UNL     1      38.980   3.258   6.911  1.00  0.00     0.244 HD
ENDBRANCH  14  16
ENDBRANCH   9  12
ENDBRANCH   5   6
ENDBRANCH   4   5
ENDBRANCH   1   4
BRANCH   1  18
HETATM   18  C8  UNL     1      33.617  10.963   7.702  1.00  0.00     0.277 C 
BRANCH  18  19
HETATM   19  C9  UNL     1      33.384  11.738   8.994  1.00  0.00     0.100 C 
BRANCH  19  20
HETATM   20  N4  UNL     1      33.429  10.925  10.135  1.00  0.00    -0.294 N 
ATOM     21  H4  UNL     1      33.540   9.916  10.035  1.00  0.00     0.177 HD
BRANCH  20  22
HETATM   22  S1  UNL     1      33.304  11.604  11.667  1.00  0.00     0.253 S 
HETATM   23  O2  UNL     1      31.843  11.835  12.065  1.00  0.00    -0.201 OA
HETATM   24  O3  UNL     1      33.793  13.066  11.506  1.00  0.00    -0.201 OA
BRANCH  22  25
HETATM   25  C10 UNL     1      34.235  10.940  12.945  1.00  0.00     0.143 C 
BRANCH  25  26
HETATM   26  C11 UNL     1      35.525  10.349  12.750  1.00  0.00    -0.024 A 
HETATM   27  C12 UNL     1      35.753   8.986  12.960  1.00  0.00     0.012 A 
HETATM   28  C13 UNL     1      37.009   8.421  12.830  1.00  0.00     0.001 A 
HETATM   29  C14 UNL     1      38.094   9.198  12.486  1.00  0.00     0.000 A 
HETATM   30  C15 UNL     1      37.895  10.545  12.274  1.00  0.00     0.001 A 
HETATM   31  C16 UNL     1      36.623  11.102  12.408  1.00  0.00     0.012 A 
ENDBRANCH  25  26
ENDBRANCH  22  25
ENDBRANCH  20  22
ENDBRANCH  19  20
ENDBRANCH  18  19
ENDBRANCH   1  18
TORSDOF 11
ENDMDL
MODEL 5
REMARK VINA RESULT: -7.209697403      3.497      6.112
REMARK  11 active torsions:
REMARK  status: ('A' for Active; 'I' for Inactive)
REMARK    1  A    between atoms: C1_2  and  C2_7 
REMARK    2  A    between atoms: N2_3  and  O1_5 
REMARK    3  A    between atoms: C5_10  and  C6_11 
REMARK    4  A    between atoms: C6_11  and  C7_12 
REMARK    5  A    between atoms: C7_12  and  N3_13 
REMARK    6  A    between atoms: N3_13  and  C8_16 
REMARK    7  A    between atoms: C8_16  and  C9_17 
REMARK    8  A    between atoms: C9_17  and  N4_18 
REMARK    9  A    between atoms: N4_18  and  S1_20 
REMARK   10  A    between atoms: S1_20  and  C10_23 
REMARK   11  A    between atoms: C10_23  and  C11_24 
ROOT
HETATM    1  N3  UNL     1      33.778   9.445   7.969  1.00  0.00    -0.070 N 
ATOM      2  H31 UNL     1      33.529   9.202   8.928  1.00  0.00     0.277 HD
ATOM      3  H32 UNL     1      33.083   8.895   7.464  1.00  0.00     0.277 HD
ENDROOT
BRANCH   1   4
HETATM    4  C7  UNL     1      35.090   8.986   7.664  1.00  0.00     0.237 C 
BRANCH   4   5
HETATM    5  C6  UNL     1      35.753   8.435   8.894  1.00  0.00     0.066 C 
BRANCH   5   6
HETATM    6  C5  UNL     1      37.131   8.940   9.000  1.00  0.00    -0.057 A 
HETATM    7  C4  UNL     1      38.225   8.124   9.167  1.00  0.00     0.008 A 
HETATM    8  C3  UNL     1      39.531   8.622   9.264  1.00  0.00     0.015 A 
HETATM    9  C2  UNL     1      39.803   9.967   9.197  1.00  0.00     0.007 A 
HETATM   10  C18 UNL     1      38.680  10.781   9.027  1.00  0.00     0.015 A 
HETATM   11  C17 UNL     1      37.398  10.301   8.931  1.00  0.00     0.008 A 
BRANCH   9  12
HETATM   12  C1  UNL     1      41.103  10.579   9.285  1.00  0.00     0.146 C 
HETATM   13  N1  UNL     1      42.090  10.189   8.282  1.00  0.00    -0.080 NA
HETATM   14  N2  UNL     1      41.469  11.416  10.143  1.00  0.00    -0.255 N 
ATOM     15  H2  UNL     1      42.434  11.723  10.024  1.00  0.00     0.195 HD
BRANCH  14  16
HETATM   16  O1  UNL     1      40.854  11.988  11.178  1.00  0.00    -0.288 OA
ATOM     17  H1  UNL     1      40.936  12.839  11.594  1.00  0.00     0.244 HD
ENDBRANCH  14  16
ENDBRANCH   9  12
ENDBRANCH   5   6
ENDBRANCH   4   5
ENDBRANCH   1   4
BRANCH   1  18
HETATM   18  C8  UNL     1      33.573  10.864   7.735  1.00  0.00     0.277 C 
BRANCH  18  19
HETATM   19  C9  UNL     1      33.685  11.654   9.034  1.00  0.00     0.100 C 
BRANCH  19  20
HETATM   20  N4  UNL     1      33.391  10.886  10.168  1.00  0.00    -0.294 N 
ATOM     21  H4  UNL     1      33.248   9.880  10.077  1.00  0.00     0.177 HD
BRANCH  20  22
HETATM   22  S1  UNL     1      33.271  11.614  11.678  1.00  0.00     0.253 S 
HETATM   23  O2  UNL     1      31.812  11.867  12.069  1.00  0.00    -0.201 OA
HETATM   24  O3  UNL     1      33.770  13.067  11.472  1.00  0.00    -0.201 OA
BRANCH  22  25
HETATM   25  C10 UNL     1      34.199  10.984  12.976  1.00  0.00     0.143 C 
BRANCH  25  26
HETATM   26  C11 UNL     1      35.499  10.409  12.803  1.00  0.00    -0.024 A 
HETATM   27  C12 UNL     1      35.702   9.026  12.802  1.00  0.00     0.012 A 
HETATM   28  C13 UNL     1      36.963   8.467  12.695  1.00  0.00     0.001 A 
HETATM   29  C14 UNL     1      38.078   9.270  12.586  1.00  0.00     0.000 A 
HETATM   30  C15 UNL     1      37.904  10.637  12.585  1.00  0.00     0.001 A 
HETATM   31  C16 UNL     1      36.626  11.187  12.693  1.00  0.00     0.012 A 
ENDBRANCH  25  26
ENDBRANCH  22  25
ENDBRANCH  20  22
ENDBRANCH  19  20
ENDBRANCH  18  19
ENDBRANCH   1  18
TORSDOF 11
ENDMDL
