MODEL 1
REMARK VINA RESULT: -7.143710884      0.000      0.000
REMARK  11 active torsions:
REMARK  status: ('A' for Active; 'I' for Inactive)
REMARK    1  A    between atoms: C2_2  and  C3_3 
REMARK    2  A    between atoms: C3_3  and  O1_4 
REMARK    3  A    between atoms: O1_4  and  C4_5 
REMARK    4  A    between atoms: C7_8  and  N1_9 
REMARK       I    between atoms: N1_9  and  C8_11 
REMARK       I    between atoms: C8_11  and  N2_13 
REMARK    5  A    between atoms: N2_13  and  C9_15 
REMARK    6  A    between atoms: C9_15  and  C10_16 
REMARK    7  A    between atoms: C10_16  and  S1_17 
REMARK    8  A    between atoms: S1_17  and  N3_20 
REMARK    9  A    between atoms: N3_20  and  C11_22 
REMARK   10  A    between atoms: C11_22  and  C12_23 
REMARK   11  A    between atoms: C12_23  and  C13_24 
ROOT
HETATM    1  N1  UNL     1      36.575   8.019   8.626  1.00  0.00    -0.309 N 
ATOM      2  H1  UNL     1      36.888   7.949   7.658  1.00  0.00     0.170 HD
HETATM    3  C8  UNL     1      36.998   7.033   9.534  1.00  0.00     0.320 C 
HETATM    4  O2  UNL     1      36.646   7.047  10.715  1.00  0.00    -0.247 OA
HETATM    5  N2  UNL     1      37.868   6.001   9.014  1.00  0.00    -0.342 N 
ATOM      6  H2  UNL     1      38.145   5.999   8.033  1.00  0.00     0.164 HD
ENDROOT
BRANCH   5   7
HETATM    7  C9  UNL     1      38.330   4.979   9.908  1.00  0.00     0.141 C 
BRANCH   7   8
HETATM    8  C10 UNL     1      39.814   5.038  10.077  1.00  0.00     0.182 C 
BRANCH   8   9
HETATM    9  S1  UNL     1      40.647   4.753   8.531  1.00  0.00     0.228 S 
HETATM   10  O3  UNL     1      41.646   3.640   8.645  1.00  0.00    -0.206 OA
HETATM   11  O4  UNL     1      39.607   4.333   7.530  1.00  0.00    -0.206 OA
BRANCH   9  12
HETATM   12  N3  UNL     1      41.392   6.186   7.946  1.00  0.00    -0.319 N 
ATOM     13  H3  UNL     1      41.890   6.251   7.058  1.00  0.00     0.172 HD
BRANCH  12  14
HETATM   14  C11 UNL     1      41.224   7.294   8.869  1.00  0.00     0.138 C 
BRANCH  14  15
HETATM   15  C12 UNL     1      40.648   8.509   8.177  1.00  0.00     0.078 C 
BRANCH  15  16
HETATM   16  C13 UNL     1      41.660   9.593   8.255  1.00  0.00     0.027 A 
HETATM   17  C14 UNL     1      43.010   9.472   8.602  1.00  0.00     0.114 A 
HETATM   18  N4  UNL     1      43.556  10.690   8.544  1.00  0.00    -0.360 N 
HETATM   19  C15 UNL     1      42.617  11.581   8.175  1.00  0.00     0.180 A 
ATOM     20  H4  UNL     1      44.531  10.910   8.748  1.00  0.00     0.166 HD
HETATM   21  N5  UNL     1      41.489  10.903   8.007  1.00  0.00    -0.355 N 
ATOM     22  H5  UNL     1      40.602  11.323   7.726  1.00  0.00     0.166 HD
ENDBRANCH  15  16
ENDBRANCH  14  15
ENDBRANCH  12  14
ENDBRANCH   9  12
ENDBRANCH   8   9
ENDBRANCH   7   8
ENDBRANCH   5   7
BRANCH   1  23
HETATM   23  C7  UNL     1      35.745   9.097   8.975  1.00  0.00     0.036 A 
HETATM   24  C6  UNL     1      36.088  10.115   9.810  1.00  0.00     0.032 A 
HETATM   25  C5  UNL     1      35.184  11.115  10.106  1.00  0.00     0.039 A 
HETATM   26  C4  UNL     1      33.907  11.163   9.599  1.00  0.00     0.069 A 
HETATM   27  C17 UNL     1      33.570  10.124   8.752  1.00  0.00     0.039 A 
HETATM   28  C16 UNL     1      34.445   9.119   8.440  1.00  0.00     0.032 A 
BRANCH  26  29
HETATM   29  O1  UNL     1      33.021  12.177   9.912  1.00  0.00    -0.348 OA
BRANCH  29  30
HETATM   30  C3  UNL     1      33.322  12.999  11.025  1.00  0.00     0.202 C 
BRANCH  30  31
HETATM   31  C2  UNL     1      32.456  12.651  12.181  1.00  0.00    -0.011 C 
HETATM   32  C1  UNL     1      31.399  13.407  12.445  1.00  0.00     0.009 C 
ENDBRANCH  30  31
ENDBRANCH  29  30
ENDBRANCH  26  29
ENDBRANCH   1  23
TORSDOF 11
ENDMDL
MODEL 2
REMARK VINA RESULT: -7.075664975      3.844      8.579
REMARK  11 active torsions:
REMARK  status: ('A' for Active; 'I' for Inactive)
REMARK    1  A    between atoms: C2_2  and  C3_3 
REMARK    2  A    between atoms: C3_3  and  O1_4 
REMARK    3  A    between atoms: O1_4  and  C4_5 
REMARK    4  A    between atoms: C7_8  and  N1_9 
REMARK       I    between atoms: N1_9  and  C8_11 
REMARK       I    between atoms: C8_11  and  N2_13 
REMARK    5  A    between atoms: N2_13  and  C9_15 
REMARK    6  A    between atoms: C9_15  and  C10_16 
REMARK    7  A    between atoms: C10_16  and  S1_17 
REMARK    8  A    between atoms: S1_17  and  N3_20 
REMARK    9  A    between atoms: N3_20  and  C11_22 
REMARK   10  A    between atoms: C11_22  and  C12_23 
REMARK   11  A    between atoms: C12_23  and  C13_24 
ROOT
HETATM    1  N1  UNL     1      38.502  11.739  10.839  1.00  0.00    -0.309 N 
ATOM      2  H1  UNL     1      38.267  12.720  10.691  1.00  0.00     0.170 HD
HETATM    3  C8  UNL     1      37.510  10.891  11.360  1.00  0.00     0.320 C 
HETATM    4  O2  UNL     1      37.729   9.697  11.580  1.00  0.00    -0.247 OA
HETATM    5  N2  UNL     1      36.219  11.486  11.628  1.00  0.00    -0.342 N 
ATOM      6  H2  UNL     1      36.055  12.476  11.447  1.00  0.00     0.164 HD
ENDROOT
BRANCH   5   7
HETATM    7  C9  UNL     1      35.176  10.654  12.153  1.00  0.00     0.141 C 
BRANCH   7   8
HETATM    8  C10 UNL     1      34.001  11.470  12.590  1.00  0.00     0.182 C 
BRANCH   8   9
HETATM    9  S1  UNL     1      33.128  12.138  11.191  1.00  0.00     0.228 S 
HETATM   10  O3  UNL     1      31.740  12.566  11.566  1.00  0.00    -0.206 OA
HETATM   11  O4  UNL     1      33.876  13.359  10.734  1.00  0.00    -0.206 OA
BRANCH   9  12
HETATM   12  N3  UNL     1      33.092  11.024   9.884  1.00  0.00    -0.319 N 
ATOM     13  H3  UNL     1      32.782  10.056   9.965  1.00  0.00     0.172 HD
BRANCH  12  14
HETATM   14  C11 UNL     1      33.557  11.631   8.649  1.00  0.00     0.138 C 
BRANCH  14  15
HETATM   15  C12 UNL     1      33.859  10.585   7.598  1.00  0.00     0.078 C 
BRANCH  15  16
HETATM   16  C13 UNL     1      35.015   9.786   8.079  1.00  0.00     0.027 A 
HETATM   17  C14 UNL     1      36.373  10.090   7.943  1.00  0.00     0.114 A 
HETATM   18  N4  UNL     1      37.070   9.105   8.517  1.00  0.00    -0.360 N 
HETATM   19  C15 UNL     1      36.219   8.188   9.013  1.00  0.00     0.180 A 
ATOM     20  H4  UNL     1      38.088   9.055   8.570  1.00  0.00     0.166 HD
HETATM   21  N5  UNL     1      34.992   8.616   8.739  1.00  0.00    -0.355 N 
ATOM     22  H5  UNL     1      34.140   8.118   8.997  1.00  0.00     0.166 HD
ENDBRANCH  15  16
ENDBRANCH  14  15
ENDBRANCH  12  14
ENDBRANCH   9  12
ENDBRANCH   8   9
ENDBRANCH   7   8
ENDBRANCH   5   7
BRANCH   1  23
HETATM   23  C7  UNL     1      39.799  11.313  10.510  1.00  0.00     0.036 A 
HETATM   24  C6  UNL     1      40.831  11.184  11.388  1.00  0.00     0.032 A 
HETATM   25  C5  UNL     1      42.076  10.778  10.953  1.00  0.00     0.039 A 
HETATM   26  C4  UNL     1      42.367  10.482   9.642  1.00  0.00     0.069 A 
HETATM   27  C17 UNL     1      41.311  10.616   8.760  1.00  0.00     0.039 A 
HETATM   28  C16 UNL     1      40.065  11.015   9.162  1.00  0.00     0.032 A 
BRANCH  26  29
HETATM   29  O1  UNL     1      43.624  10.078   9.232  1.00  0.00    -0.348 OA
BRANCH  29  30
HETATM   30  C3  UNL     1      44.143   8.877   9.775  1.00  0.00     0.202 C 
BRANCH  30  31
HETATM   31  C2  UNL     1      43.365   7.707   9.293  1.00  0.00    -0.011 C 
HETATM   32  C1  UNL     1      43.806   6.485   9.563  1.00  0.00     0.009 C 
ENDBRANCH  30  31
ENDBRANCH  29  30
ENDBRANCH  26  29
ENDBRANCH   1  23
TORSDOF 11
ENDMDL
MODEL 3
REMARK VINA RESULT: -7.033004087      3.969      8.833
REMARK  11 active torsions:
REMARK  status: ('A' for Active; 'I' for Inactive)
REMARK    1  A    between atoms: C2_2  and  C3_3 
REMARK    2  A    between atoms: C3_3  and  O1_4 
REMARK    3  A    between atoms: O1_4  and  C4_5 
REMARK    4  A    between atoms: C7_8  and  N1_9 
REMARK       I    between atoms: N1_9  and  C8_11 
REMARK       I    between atoms: C8_11  and  N2_13 
REMARK    5  A    between atoms: N2_13  and  C9_15 
REMARK    6  A    between atoms: C9_15  and  C10_16 
REMARK    7  A    between atoms: C10_16  and  S1_17 
REMARK    8  A    between atoms: S1_17  and  N3_20 
REMARK    9  A    between atoms: N3_20  and  C11_22 
REMARK   10  A    between atoms: C11_22  and  C12_23 
REMARK   11  A    between atoms: C12_23  and  C13_24 
ROOT
HETATM    1  N1  UNL     1      37.354   9.970   8.092  1.00  0.00    -0.309 N 
ATOM      2  H1  UNL     1      37.346  10.163   7.090  1.00  0.00     0.170 HD
HETATM    3  C8  UNL     1      36.132  10.012   8.785  1.00  0.00     0.320 C 
HETATM    4  O2  UNL     1      36.070   9.805   9.999  1.00  0.00    -0.247 OA
HETATM    5  N2  UNL     1      34.952  10.311   8.005  1.00  0.00    -0.342 N 
ATOM      6  H2  UNL     1      35.020  10.487   7.003  1.00  0.00     0.164 HD
ENDROOT
BRANCH   5   7
HETATM    7  C9  UNL     1      33.683  10.356   8.672  1.00  0.00     0.141 C 
BRANCH   7   8
HETATM    8  C10 UNL     1      33.234  11.766   8.887  1.00  0.00     0.182 C 
BRANCH   8   9
HETATM    9  S1  UNL     1      33.473  12.263  10.579  1.00  0.00     0.228 S 
HETATM   10  O3  UNL     1      34.457  13.390  10.684  1.00  0.00    -0.206 OA
HETATM   11  O4  UNL     1      32.151  12.762  11.092  1.00  0.00    -0.206 OA
BRANCH   9  12
HETATM   12  N3  UNL     1      33.952  10.938  11.561  1.00  0.00    -0.319 N 
ATOM     13  H3  UNL     1      33.980   9.970  11.242  1.00  0.00     0.172 HD
BRANCH  12  14
HETATM   14  C11 UNL     1      34.314  11.366  12.901  1.00  0.00     0.138 C 
BRANCH  14  15
HETATM   15  C12 UNL     1      35.666  10.825  13.308  1.00  0.00     0.078 C 
BRANCH  15  16
HETATM   16  C13 UNL     1      35.435   9.602  14.118  1.00  0.00     0.027 A 
HETATM   17  C14 UNL     1      35.819   8.293  13.810  1.00  0.00     0.114 A 
HETATM   18  N4  UNL     1      35.414   7.503  14.809  1.00  0.00    -0.360 N 
HETATM   19  C15 UNL     1      34.791   8.249  15.741  1.00  0.00     0.180 A 
ATOM     20  H4  UNL     1      35.555   6.494  14.858  1.00  0.00     0.166 HD
HETATM   21  N5  UNL     1      34.814   9.503  15.307  1.00  0.00    -0.355 N 
ATOM     22  H5  UNL     1      34.411  10.293  15.812  1.00  0.00     0.166 HD
ENDBRANCH  15  16
ENDBRANCH  14  15
ENDBRANCH  12  14
ENDBRANCH   9  12
ENDBRANCH   8   9
ENDBRANCH   7   8
ENDBRANCH   5   7
BRANCH   1  23
HETATM   23  C7  UNL     1      38.586   9.677   8.699  1.00  0.00     0.036 A 
HETATM   24  C6  UNL     1      39.047   8.429   8.982  1.00  0.00     0.032 A 
HETATM   25  C5  UNL     1      40.266   8.255   9.604  1.00  0.00     0.039 A 
HETATM   26  C4  UNL     1      41.088   9.292   9.977  1.00  0.00     0.069 A 
HETATM   27  C17 UNL     1      40.610  10.556   9.685  1.00  0.00     0.039 A 
HETATM   28  C16 UNL     1      39.405  10.760   9.068  1.00  0.00     0.032 A 
BRANCH  26  29
HETATM   29  O1  UNL     1      42.305   9.090  10.600  1.00  0.00    -0.348 OA
BRANCH  29  30
HETATM   30  C3  UNL     1      43.468   9.082   9.794  1.00  0.00     0.202 C 
BRANCH  30  31
HETATM   31  C2  UNL     1      44.359   7.955  10.171  1.00  0.00    -0.011 C 
HETATM   32  C1  UNL     1      44.056   6.730   9.764  1.00  0.00     0.009 C 
ENDBRANCH  30  31
ENDBRANCH  29  30
ENDBRANCH  26  29
ENDBRANCH   1  23
TORSDOF 11
ENDMDL
MODEL 4
REMARK VINA RESULT: -7.029947323      3.711      8.263
REMARK  11 active torsions:
REMARK  status: ('A' for Active; 'I' for Inactive)
REMARK    1  A    between atoms: C2_2  and  C3_3 
REMARK    2  A    between atoms: C3_3  and  O1_4 
REMARK    3  A    between atoms: O1_4  and  C4_5 
REMARK    4  A    between atoms: C7_8  and  N1_9 
REMARK       I    between atoms: N1_9  and  C8_11 
REMARK       I    between atoms: C8_11  and  N2_13 
REMARK    5  A    between atoms: N2_13  and  C9_15 
REMARK    6  A    between atoms: C9_15  and  C10_16 
REMARK    7  A    between atoms: C10_16  and  S1_17 
REMARK    8  A    between atoms: S1_17  and  N3_20 
REMARK    9  A    between atoms: N3_20  and  C11_22 
REMARK   10  A    between atoms: C11_22  and  C12_23 
REMARK   11  A    between atoms: C12_23  and  C13_24 
ROOT
HETATM    1  N1  UNL     1      37.014   8.925   8.653  1.00  0.00    -0.309 N 
ATOM      2  H1  UNL     1      37.426   9.471   7.897  1.00  0.00     0.170 HD
HETATM    3  C8  UNL     1      35.665   9.150   8.976  1.00  0.00     0.320 C 
HETATM    4  O2  UNL     1      35.107   8.537   9.889  1.00  0.00    -0.247 OA
HETATM    5  N2  UNL     1      34.962  10.137   8.186  1.00  0.00    -0.342 N 
ATOM      6  H2  UNL     1      35.439  10.641   7.438  1.00  0.00     0.164 HD
ENDROOT
BRANCH   5   7
HETATM    7  C9  UNL     1      33.581  10.392   8.477  1.00  0.00     0.141 C 
BRANCH   7   8
HETATM    8  C10 UNL     1      33.337  11.849   8.707  1.00  0.00     0.182 C 
BRANCH   8   9
HETATM    9  S1  UNL     1      33.508  12.263  10.428  1.00  0.00     0.228 S 
HETATM   10  O3  UNL     1      34.535  13.338  10.633  1.00  0.00    -0.206 OA
HETATM   11  O4  UNL     1      32.184  12.800  10.896  1.00  0.00    -0.206 OA
BRANCH   9  12
HETATM   12  N3  UNL     1      33.877  10.878  11.374  1.00  0.00    -0.319 N 
ATOM     13  H3  UNL     1      33.401   9.981  11.285  1.00  0.00     0.172 HD
BRANCH  12  14
HETATM   14  C11 UNL     1      34.951  11.141  12.316  1.00  0.00     0.138 C 
BRANCH  14  15
HETATM   15  C12 UNL     1      34.708  10.451  13.639  1.00  0.00     0.078 C 
BRANCH  15  16
HETATM   16  C13 UNL     1      35.429   9.153  13.608  1.00  0.00     0.027 A 
HETATM   17  C14 UNL     1      35.457   8.173  14.605  1.00  0.00     0.114 A 
HETATM   18  N4  UNL     1      36.224   7.169  14.167  1.00  0.00    -0.360 N 
HETATM   19  C15 UNL     1      36.683   7.464  12.938  1.00  0.00     0.180 A 
ATOM     20  H4  UNL     1      36.428   6.314  14.685  1.00  0.00     0.166 HD
HETATM   21  N5  UNL     1      36.195   8.657  12.622  1.00  0.00    -0.355 N 
ATOM     22  H5  UNL     1      36.379   9.138  11.741  1.00  0.00     0.166 HD
ENDBRANCH  15  16
ENDBRANCH  14  15
ENDBRANCH  12  14
ENDBRANCH   9  12
ENDBRANCH   8   9
ENDBRANCH   7   8
ENDBRANCH   5   7
BRANCH   1  23
HETATM   23  C7  UNL     1      37.828   7.990   9.313  1.00  0.00     0.036 A 
HETATM   24  C6  UNL     1      37.631   6.644   9.323  1.00  0.00     0.032 A 
HETATM   25  C5  UNL     1      38.481   5.815  10.026  1.00  0.00     0.039 A 
HETATM   26  C4  UNL     1      39.561   6.265  10.748  1.00  0.00     0.069 A 
HETATM   27  C17 UNL     1      39.753   7.633  10.730  1.00  0.00     0.039 A 
HETATM   28  C16 UNL     1      38.926   8.481  10.042  1.00  0.00     0.032 A 
BRANCH  26  29
HETATM   29  O1  UNL     1      40.398   5.412  11.443  1.00  0.00    -0.348 OA
BRANCH  29  30
HETATM   30  C3  UNL     1      39.836   4.641  12.489  1.00  0.00     0.202 C 
BRANCH  30  31
HETATM   31  C2  UNL     1      39.721   5.449  13.730  1.00  0.00    -0.011 C 
HETATM   32  C1  UNL     1      39.072   4.943  14.771  1.00  0.00     0.009 C 
ENDBRANCH  30  31
ENDBRANCH  29  30
ENDBRANCH  26  29
ENDBRANCH   1  23
TORSDOF 11
ENDMDL
MODEL 5
REMARK VINA RESULT: -6.989169462      0.935      1.335
REMARK  11 active torsions:
REMARK  status: ('A' for Active; 'I' for Inactive)
REMARK    1  A    between atoms: C2_2  and  C3_3 
REMARK    2  A    between atoms: C3_3  and  O1_4 
REMARK    3  A    between atoms: O1_4  and  C4_5 
REMARK    4  A    between atoms: C7_8  and  N1_9 
REMARK       I    between atoms: N1_9  and  C8_11 
REMARK       I    between atoms: C8_11  and  N2_13 
REMARK    5  A    between atoms: N2_13  and  C9_15 
REMARK    6  A    between atoms: C9_15  and  C10_16 
REMARK    7  A    between atoms: C10_16  and  S1_17 
REMARK    8  A    between atoms: S1_17  and  N3_20 
REMARK    9  A    between atoms: N3_20  and  C11_22 
REMARK   10  A    between atoms: C11_22  and  C12_23 
REMARK   11  A    between atoms: C12_23  and  C13_24 
ROOT
HETATM    1  N1  UNL     1      37.452   8.274   8.990  1.00  0.00    -0.309 N 
ATOM      2  H1  UNL     1      38.150   8.605   8.324  1.00  0.00     0.170 HD
HETATM    3  C8  UNL     1      37.702   7.069   9.670  1.00  0.00     0.320 C 
HETATM    4  O2  UNL     1      36.895   6.602  10.476  1.00  0.00    -0.247 OA
HETATM    5  N2  UNL     1      38.953   6.405   9.377  1.00  0.00    -0.342 N 
ATOM      6  H2  UNL     1      39.608   6.801   8.703  1.00  0.00     0.164 HD
ENDROOT
BRANCH   5   7
HETATM    7  C9  UNL     1      39.252   5.177  10.055  1.00  0.00     0.141 C 
BRANCH   7   8
HETATM    8  C10 UNL     1      40.726   5.009  10.246  1.00  0.00     0.182 C 
BRANCH   8   9
HETATM    9  S1  UNL     1      41.510   4.473   8.742  1.00  0.00     0.228 S 
HETATM   10  O3  UNL     1      41.823   3.006   8.781  1.00  0.00    -0.206 OA
HETATM   11  O4  UNL     1      40.536   4.702   7.620  1.00  0.00    -0.206 OA
BRANCH   9  12
HETATM   12  N3  UNL     1      42.922   5.391   8.408  1.00  0.00    -0.319 N 
ATOM     13  H3  UNL     1      43.686   5.071   7.813  1.00  0.00     0.172 HD
BRANCH  12  14
HETATM   14  C11 UNL     1      42.895   6.680   9.077  1.00  0.00     0.138 C 
BRANCH  14  15
HETATM   15  C12 UNL     1      42.271   7.744   8.202  1.00  0.00     0.078 C 
BRANCH  15  16
HETATM   16  C13 UNL     1      42.644   9.066   8.768  1.00  0.00     0.027 A 
HETATM   17  C14 UNL     1      43.800   9.387   9.486  1.00  0.00     0.114 A 
HETATM   18  N4  UNL     1      43.734  10.684   9.805  1.00  0.00    -0.360 N 
HETATM   19  C15 UNL     1      42.591  11.203   9.322  1.00  0.00     0.180 A 
ATOM     20  H4  UNL     1      44.441  11.198  10.331  1.00  0.00     0.166 HD
HETATM   21  N5  UNL     1      41.952  10.217   8.705  1.00  0.00    -0.355 N 
ATOM     22  H5  UNL     1      41.049  10.319   8.241  1.00  0.00     0.166 HD
ENDBRANCH  15  16
ENDBRANCH  14  15
ENDBRANCH  12  14
ENDBRANCH   9  12
ENDBRANCH   8   9
ENDBRANCH   7   8
ENDBRANCH   5   7
BRANCH   1  23
HETATM   23  C7  UNL     1      36.294   9.048   9.174  1.00  0.00     0.036 A 
HETATM   24  C6  UNL     1      35.134   8.904   8.479  1.00  0.00     0.032 A 
HETATM   25  C5  UNL     1      34.061   9.737   8.725  1.00  0.00     0.039 A 
HETATM   26  C4  UNL     1      34.076  10.745   9.659  1.00  0.00     0.069 A 
HETATM   27  C17 UNL     1      35.260  10.881  10.359  1.00  0.00     0.039 A 
HETATM   28  C16 UNL     1      36.341  10.070  10.138  1.00  0.00     0.032 A 
BRANCH  26  29
HETATM   29  O1  UNL     1      32.987  11.566   9.885  1.00  0.00    -0.348 OA
BRANCH  29  30
HETATM   30  C3  UNL     1      33.130  12.609  10.832  1.00  0.00     0.202 C 
BRANCH  30  31
HETATM   31  C2  UNL     1      32.278  12.355  12.022  1.00  0.00    -0.011 C 
HETATM   32  C1  UNL     1      31.464  13.312  12.448  1.00  0.00     0.009 C 
ENDBRANCH  30  31
ENDBRANCH  29  30
ENDBRANCH  26  29
ENDBRANCH   1  23
TORSDOF 11
ENDMDL
