MODEL 1
REMARK VINA RESULT: -9.550962669      0.000      0.000
REMARK  9 active torsions:
REMARK  status: ('A' for Active; 'I' for Inactive)
REMARK    1  A    between atoms: O1_2  and  C2_3 
REMARK    2  A    between atoms: C4_5  and  C5_6 
REMARK    3  A    between atoms: N1_11  and  C8_12 
REMARK    4  A    between atoms: C8_12  and  C9_13 
REMARK    5  A    between atoms: C9_13  and  C10_14 
REMARK    6  A    between atoms: C10_14  and  C11_15 
REMARK    7  A    between atoms: C11_15  and  C12_16 
REMARK    8  A    between atoms: C12_16  and  C13_17 
REMARK    9  A    between atoms: C22_28  and  O4_29 
ROOT
HETATM    1  C5  UNL     1       7.825  25.859  18.264  1.00  0.00     0.036 C 
HETATM    2  C6  UNL     1       7.226  26.742  18.979  1.00  0.00     0.079 C 
HETATM    3  S1  UNL     1       7.864  28.448  19.108  1.00  0.00    -0.023 SA
HETATM    4  C7  UNL     1       6.375  29.136  19.808  1.00  0.00     0.293 C 
HETATM    5  O2  UNL     1       6.092  30.374  19.923  1.00  0.00    -0.259 OA
HETATM    6  N1  UNL     1       5.592  28.030  20.199  1.00  0.00    -0.274 N 
HETATM    7  C19 UNL     1       6.031  26.777  19.768  1.00  0.00     0.268 C 
HETATM    8  O3  UNL     1       5.372  25.710  20.077  1.00  0.00    -0.266 OA
ENDROOT
BRANCH   1   9
HETATM    9  C4  UNL     1       7.394  24.484  18.110  1.00  0.00    -0.030 A 
HETATM   10  C3  UNL     1       6.796  24.152  16.883  1.00  0.00     0.051 A 
HETATM   11  C2  UNL     1       6.415  22.850  16.668  1.00  0.00     0.104 A 
HETATM   12  C22 UNL     1       6.606  21.871  17.623  1.00  0.00     0.125 A 
HETATM   13  C21 UNL     1       7.188  22.178  18.826  1.00  0.00     0.083 A 
HETATM   14  C20 UNL     1       7.565  23.482  19.030  1.00  0.00     0.041 A 
HETATM   15  N2  UNL     1       7.399  21.180  19.838  1.00  0.00    -0.099 NA
BRANCH  11  16
HETATM   16  O1  UNL     1       5.815  22.497  15.444  1.00  0.00    -0.353 OA
HETATM   17  C1  UNL     1       6.636  22.421  14.311  1.00  0.00     0.210 C 
ENDBRANCH  11  16
BRANCH  12  18
HETATM   18  O4  UNL     1       6.203  20.578  17.353  1.00  0.00    -0.351 OA
HETATM   19  C23 UNL     1       4.849  20.183  17.300  1.00  0.00     0.210 C 
ENDBRANCH  12  18
ENDBRANCH   1   9
BRANCH   6  20
HETATM   20  C8  UNL     1       4.383  28.244  21.024  1.00  0.00     0.136 C 
BRANCH  20  21
HETATM   21  C9  UNL     1       3.152  28.323  20.192  1.00  0.00     0.020 C 
BRANCH  21  22
HETATM   22  C10 UNL     1       1.904  27.794  20.831  1.00  0.00     0.002 C 
BRANCH  22  23
HETATM   23  C11 UNL     1       1.028  28.892  21.377  1.00  0.00     0.000 C 
BRANCH  23  24
HETATM   24  C12 UNL     1       0.289  29.663  20.353  1.00  0.00     0.004 C 
BRANCH  24  25
HETATM   25  C13 UNL     1      -0.707  28.916  19.557  1.00  0.00    -0.014 C 
HETATM   26  C14 UNL     1      -0.167  28.759  18.133  1.00  0.00     0.004 C 
HETATM   27  C15 UNL     1       0.139  30.079  17.498  1.00  0.00     0.000 C 
HETATM   28  C16 UNL     1      -1.025  31.004  17.646  1.00  0.00     0.000 C 
HETATM   29  C17 UNL     1      -2.254  30.310  18.160  1.00  0.00     0.000 C 
HETATM   30  C18 UNL     1      -2.038  29.613  19.477  1.00  0.00     0.004 C 
ENDBRANCH  24  25
ENDBRANCH  23  24
ENDBRANCH  22  23
ENDBRANCH  21  22
ENDBRANCH  20  21
ENDBRANCH   6  20
TORSDOF 9
ENDMDL
MODEL 2
REMARK VINA RESULT: -9.180491495      1.243      2.022
REMARK  9 active torsions:
REMARK  status: ('A' for Active; 'I' for Inactive)
REMARK    1  A    between atoms: O1_2  and  C2_3 
REMARK    2  A    between atoms: C4_5  and  C5_6 
REMARK    3  A    between atoms: N1_11  and  C8_12 
REMARK    4  A    between atoms: C8_12  and  C9_13 
REMARK    5  A    between atoms: C9_13  and  C10_14 
REMARK    6  A    between atoms: C10_14  and  C11_15 
REMARK    7  A    between atoms: C11_15  and  C12_16 
REMARK    8  A    between atoms: C12_16  and  C13_17 
REMARK    9  A    between atoms: C22_28  and  O4_29 
ROOT
HETATM    1  C5  UNL     1       7.811  25.760  18.219  1.00  0.00     0.036 C 
HETATM    2  C6  UNL     1       7.130  26.555  18.964  1.00  0.00     0.079 C 
HETATM    3  S1  UNL     1       7.755  28.212  19.404  1.00  0.00    -0.023 SA
HETATM    4  C7  UNL     1       6.191  28.836  19.993  1.00  0.00     0.293 C 
HETATM    5  O2  UNL     1       5.903  30.054  20.237  1.00  0.00    -0.259 OA
HETATM    6  N1  UNL     1       5.358  27.706  20.127  1.00  0.00    -0.274 N 
HETATM    7  C19 UNL     1       5.843  26.512  19.590  1.00  0.00     0.268 C 
HETATM    8  O3  UNL     1       5.142  25.429  19.665  1.00  0.00    -0.266 OA
ENDROOT
BRANCH   1   9
HETATM    9  C4  UNL     1       7.396  24.429  17.827  1.00  0.00    -0.030 A 
HETATM   10  C3  UNL     1       7.507  23.428  18.806  1.00  0.00     0.051 A 
HETATM   11  C2  UNL     1       7.079  22.159  18.500  1.00  0.00     0.104 A 
HETATM   12  C22 UNL     1       6.548  21.851  17.263  1.00  0.00     0.125 A 
HETATM   13  C21 UNL     1       6.432  22.816  16.296  1.00  0.00     0.083 A 
HETATM   14  C20 UNL     1       6.863  24.080  16.613  1.00  0.00     0.041 A 
HETATM   15  N2  UNL     1       5.885  22.524  15.000  1.00  0.00    -0.099 NA
BRANCH  11  16
HETATM   16  O1  UNL     1       7.181  21.141  19.468  1.00  0.00    -0.353 OA
HETATM   17  C1  UNL     1       7.546  21.511  20.770  1.00  0.00     0.210 C 
ENDBRANCH  11  16
BRANCH  12  18
HETATM   18  O4  UNL     1       6.135  20.558  17.010  1.00  0.00    -0.351 OA
HETATM   19  C23 UNL     1       4.835  20.089  17.300  1.00  0.00     0.210 C 
ENDBRANCH  12  18
ENDBRANCH   1   9
BRANCH   6  20
HETATM   20  C8  UNL     1       4.053  27.837  20.811  1.00  0.00     0.136 C 
BRANCH  20  21
HETATM   21  C9  UNL     1       3.029  28.468  19.935  1.00  0.00     0.020 C 
BRANCH  21  22
HETATM   22  C10 UNL     1       2.234  29.573  20.562  1.00  0.00     0.002 C 
BRANCH  22  23
HETATM   23  C11 UNL     1       0.849  29.131  20.958  1.00  0.00     0.000 C 
BRANCH  23  24
HETATM   24  C12 UNL     1      -0.248  29.948  20.392  1.00  0.00     0.004 C 
BRANCH  24  25
HETATM   25  C13 UNL     1      -1.286  29.220  19.632  1.00  0.00    -0.014 C 
HETATM   26  C14 UNL     1      -0.605  28.461  18.491  1.00  0.00     0.004 C 
HETATM   27  C15 UNL     1       0.172  29.370  17.593  1.00  0.00     0.000 C 
HETATM   28  C16 UNL     1      -0.674  30.530  17.177  1.00  0.00     0.000 C 
HETATM   29  C17 UNL     1      -2.117  30.358  17.558  1.00  0.00     0.000 C 
HETATM   30  C18 UNL     1      -2.322  30.132  19.033  1.00  0.00     0.004 C 
ENDBRANCH  24  25
ENDBRANCH  23  24
ENDBRANCH  22  23
ENDBRANCH  21  22
ENDBRANCH  20  21
ENDBRANCH   6  20
TORSDOF 9
ENDMDL
MODEL 3
REMARK VINA RESULT: -8.867300657      0.762      1.315
REMARK  9 active torsions:
REMARK  status: ('A' for Active; 'I' for Inactive)
REMARK    1  A    between atoms: O1_2  and  C2_3 
REMARK    2  A    between atoms: C4_5  and  C5_6 
REMARK    3  A    between atoms: N1_11  and  C8_12 
REMARK    4  A    between atoms: C8_12  and  C9_13 
REMARK    5  A    between atoms: C9_13  and  C10_14 
REMARK    6  A    between atoms: C10_14  and  C11_15 
REMARK    7  A    between atoms: C11_15  and  C12_16 
REMARK    8  A    between atoms: C12_16  and  C13_17 
REMARK    9  A    between atoms: C22_28  and  O4_29 
ROOT
HETATM    1  C5  UNL     1       7.969  25.711  18.289  1.00  0.00     0.036 C 
HETATM    2  C6  UNL     1       7.369  26.632  18.954  1.00  0.00     0.079 C 
HETATM    3  S1  UNL     1       8.084  28.302  19.119  1.00  0.00    -0.023 SA
HETATM    4  C7  UNL     1       6.588  29.074  19.706  1.00  0.00     0.293 C 
HETATM    5  O2  UNL     1       6.363  30.327  19.794  1.00  0.00    -0.259 OA
HETATM    6  N1  UNL     1       5.721  28.015  20.046  1.00  0.00    -0.274 N 
HETATM    7  C19 UNL     1       6.124  26.737  19.655  1.00  0.00     0.268 C 
HETATM    8  O3  UNL     1       5.388  25.709  19.922  1.00  0.00    -0.266 OA
ENDROOT
BRANCH   1   9
HETATM    9  C4  UNL     1       7.478  24.359  18.113  1.00  0.00    -0.030 A 
HETATM   10  C3  UNL     1       6.882  24.070  16.874  1.00  0.00     0.051 A 
HETATM   11  C2  UNL     1       6.445  22.789  16.638  1.00  0.00     0.104 A 
HETATM   12  C22 UNL     1       6.578  21.791  17.583  1.00  0.00     0.125 A 
HETATM   13  C21 UNL     1       7.158  22.057  18.797  1.00  0.00     0.083 A 
HETATM   14  C20 UNL     1       7.591  23.339  19.022  1.00  0.00     0.041 A 
HETATM   15  N2  UNL     1       7.309  21.038  19.800  1.00  0.00    -0.099 NA
BRANCH  11  16
HETATM   16  O1  UNL     1       5.846  22.478  15.402  1.00  0.00    -0.353 OA
HETATM   17  C1  UNL     1       6.630  22.599  14.246  1.00  0.00     0.210 C 
ENDBRANCH  11  16
BRANCH  12  18
HETATM   18  O4  UNL     1       6.121  20.522  17.292  1.00  0.00    -0.351 OA
HETATM   19  C23 UNL     1       4.751  20.179  17.259  1.00  0.00     0.210 C 
ENDBRANCH  12  18
ENDBRANCH   1   9
BRANCH   6  20
HETATM   20  C8  UNL     1       4.470  28.300  20.781  1.00  0.00     0.136 C 
BRANCH  20  21
HETATM   21  C9  UNL     1       3.323  28.517  19.858  1.00  0.00     0.020 C 
BRANCH  21  22
HETATM   22  C10 UNL     1       2.926  29.945  19.644  1.00  0.00     0.002 C 
BRANCH  22  23
HETATM   23  C11 UNL     1       2.633  30.250  18.199  1.00  0.00     0.000 C 
BRANCH  23  24
HETATM   24  C12 UNL     1       1.202  30.470  17.889  1.00  0.00     0.004 C 
BRANCH  24  25
HETATM   25  C13 UNL     1       0.362  29.260  17.762  1.00  0.00    -0.014 C 
HETATM   26  C14 UNL     1      -0.874  29.617  16.933  1.00  0.00     0.004 C 
HETATM   27  C15 UNL     1      -1.652  30.743  17.536  1.00  0.00     0.000 C 
HETATM   28  C16 UNL     1      -1.905  30.476  18.985  1.00  0.00     0.000 C 
HETATM   29  C17 UNL     1      -1.538  29.077  19.388  1.00  0.00     0.000 C 
HETATM   30  C18 UNL     1      -0.104  28.727  19.089  1.00  0.00     0.004 C 
ENDBRANCH  24  25
ENDBRANCH  23  24
ENDBRANCH  22  23
ENDBRANCH  21  22
ENDBRANCH  20  21
ENDBRANCH   6  20
TORSDOF 9
ENDMDL
MODEL 4
REMARK VINA RESULT: -8.821381124      1.726      2.672
REMARK  9 active torsions:
REMARK  status: ('A' for Active; 'I' for Inactive)
REMARK    1  A    between atoms: O1_2  and  C2_3 
REMARK    2  A    between atoms: C4_5  and  C5_6 
REMARK    3  A    between atoms: N1_11  and  C8_12 
REMARK    4  A    between atoms: C8_12  and  C9_13 
REMARK    5  A    between atoms: C9_13  and  C10_14 
REMARK    6  A    between atoms: C10_14  and  C11_15 
REMARK    7  A    between atoms: C11_15  and  C12_16 
REMARK    8  A    between atoms: C12_16  and  C13_17 
REMARK    9  A    between atoms: C22_28  and  O4_29 
ROOT
HETATM    1  C5  UNL     1       7.965  26.160  18.922  1.00  0.00     0.036 C 
HETATM    2  C6  UNL     1       7.242  27.143  19.323  1.00  0.00     0.079 C 
HETATM    3  S1  UNL     1       7.651  28.865  18.877  1.00  0.00    -0.023 SA
HETATM    4  C7  UNL     1       6.070  29.545  19.345  1.00  0.00     0.293 C 
HETATM    5  O2  UNL     1       5.628  30.706  19.058  1.00  0.00    -0.259 OA
HETATM    6  N1  UNL     1       5.428  28.535  20.091  1.00  0.00    -0.274 N 
HETATM    7  C19 UNL     1       6.035  27.278  20.082  1.00  0.00     0.268 C 
HETATM    8  O3  UNL     1       5.512  26.294  20.736  1.00  0.00    -0.266 OA
ENDROOT
BRANCH   1   9
HETATM    9  C4  UNL     1       7.718  24.766  19.233  1.00  0.00    -0.030 A 
HETATM   10  C3  UNL     1       7.811  24.404  20.587  1.00  0.00     0.051 A 
HETATM   11  C2  UNL     1       7.537  23.105  20.940  1.00  0.00     0.104 A 
HETATM   12  C22 UNL     1       7.176  22.159  20.002  1.00  0.00     0.125 A 
HETATM   13  C21 UNL     1       7.081  22.496  18.676  1.00  0.00     0.083 A 
HETATM   14  C20 UNL     1       7.356  23.796  18.334  1.00  0.00     0.041 A 
HETATM   15  N2  UNL     1       6.708  21.531  17.678  1.00  0.00    -0.099 NA
BRANCH  11  16
HETATM   16  O1  UNL     1       7.623  22.723  22.293  1.00  0.00    -0.353 OA
HETATM   17  C1  UNL     1       6.739  23.323  23.200  1.00  0.00     0.210 C 
ENDBRANCH  11  16
BRANCH  12  18
HETATM   18  O4  UNL     1       6.912  20.868  20.414  1.00  0.00    -0.351 OA
HETATM   19  C23 UNL     1       7.921  19.949  20.780  1.00  0.00     0.210 C 
ENDBRANCH  12  18
ENDBRANCH   1   9
BRANCH   6  20
HETATM   20  C8  UNL     1       4.183  28.848  20.827  1.00  0.00     0.136 C 
BRANCH  20  21
HETATM   21  C9  UNL     1       2.978  28.349  20.112  1.00  0.00     0.020 C 
BRANCH  21  22
HETATM   22  C10 UNL     1       1.896  27.788  20.983  1.00  0.00     0.002 C 
BRANCH  22  23
HETATM   23  C11 UNL     1       0.915  28.839  21.432  1.00  0.00     0.000 C 
BRANCH  23  24
HETATM   24  C12 UNL     1       0.282  29.606  20.336  1.00  0.00     0.004 C 
BRANCH  24  25
HETATM   25  C13 UNL     1      -0.732  28.893  19.532  1.00  0.00    -0.014 C 
HETATM   26  C14 UNL     1      -0.200  28.745  18.105  1.00  0.00     0.004 C 
HETATM   27  C15 UNL     1       0.133  30.067  17.488  1.00  0.00     0.000 C 
HETATM   28  C16 UNL     1      -1.010  31.015  17.652  1.00  0.00     0.000 C 
HETATM   29  C17 UNL     1      -2.252  30.340  18.160  1.00  0.00     0.000 C 
HETATM   30  C18 UNL     1      -2.047  29.619  19.467  1.00  0.00     0.004 C 
ENDBRANCH  24  25
ENDBRANCH  23  24
ENDBRANCH  22  23
ENDBRANCH  21  22
ENDBRANCH  20  21
ENDBRANCH   6  20
TORSDOF 9
ENDMDL
MODEL 5
REMARK VINA RESULT: -8.681761431      1.134      1.699
REMARK  9 active torsions:
REMARK  status: ('A' for Active; 'I' for Inactive)
REMARK    1  A    between atoms: O1_2  and  C2_3 
REMARK    2  A    between atoms: C4_5  and  C5_6 
REMARK    3  A    between atoms: N1_11  and  C8_12 
REMARK    4  A    between atoms: C8_12  and  C9_13 
REMARK    5  A    between atoms: C9_13  and  C10_14 
REMARK    6  A    between atoms: C10_14  and  C11_15 
REMARK    7  A    between atoms: C11_15  and  C12_16 
REMARK    8  A    between atoms: C12_16  and  C13_17 
REMARK    9  A    between atoms: C22_28  and  O4_29 
ROOT
HETATM    1  C5  UNL     1       8.414  25.868  18.405  1.00  0.00     0.036 C 
HETATM    2  C6  UNL     1       7.853  26.882  18.959  1.00  0.00     0.079 C 
HETATM    3  S1  UNL     1       8.825  28.340  19.471  1.00  0.00    -0.023 SA
HETATM    4  C7  UNL     1       7.420  29.417  19.688  1.00  0.00     0.293 C 
HETATM    5  O2  UNL     1       7.449  30.684  19.826  1.00  0.00    -0.259 OA
HETATM    6  N1  UNL     1       6.289  28.574  19.674  1.00  0.00    -0.274 N 
HETATM    7  C19 UNL     1       6.510  27.249  19.293  1.00  0.00     0.268 C 
HETATM    8  O3  UNL     1       5.529  26.409  19.249  1.00  0.00    -0.266 OA
ENDROOT
BRANCH   1   9
HETATM    9  C4  UNL     1       7.722  24.669  17.974  1.00  0.00    -0.030 A 
HETATM   10  C3  UNL     1       7.169  24.700  16.683  1.00  0.00     0.051 A 
HETATM   11  C2  UNL     1       6.547  23.571  16.208  1.00  0.00     0.104 A 
HETATM   12  C22 UNL     1       6.454  22.420  16.966  1.00  0.00     0.125 A 
HETATM   13  C21 UNL     1       6.989  22.374  18.227  1.00  0.00     0.083 A 
HETATM   14  C20 UNL     1       7.609  23.507  18.692  1.00  0.00     0.041 A 
HETATM   15  N2  UNL     1       6.907  21.190  19.038  1.00  0.00    -0.099 NA
BRANCH  11  16
HETATM   16  O1  UNL     1       5.987  23.581  14.916  1.00  0.00    -0.353 OA
HETATM   17  C1  UNL     1       6.492  24.504  13.991  1.00  0.00     0.210 C 
ENDBRANCH  11  16
BRANCH  12  18
HETATM   18  O4  UNL     1       5.817  21.315  16.438  1.00  0.00    -0.351 OA
HETATM   19  C23 UNL     1       6.404  20.470  15.471  1.00  0.00     0.210 C 
ENDBRANCH  12  18
ENDBRANCH   1   9
BRANCH   6  20
HETATM   20  C8  UNL     1       4.967  29.117  20.055  1.00  0.00     0.136 C 
BRANCH  20  21
HETATM   21  C9  UNL     1       4.614  28.777  21.460  1.00  0.00     0.020 C 
BRANCH  21  22
HETATM   22  C10 UNL     1       3.579  27.707  21.626  1.00  0.00     0.002 C 
BRANCH  22  23
HETATM   23  C11 UNL     1       2.559  27.716  20.517  1.00  0.00     0.000 C 
BRANCH  23  24
HETATM   24  C12 UNL     1       1.270  28.356  20.865  1.00  0.00     0.004 C 
BRANCH  24  25
HETATM   25  C13 UNL     1       1.050  29.721  20.342  1.00  0.00    -0.014 C 
HETATM   26  C14 UNL     1      -0.456  29.934  20.172  1.00  0.00     0.004 C 
HETATM   27  C15 UNL     1      -1.071  28.914  19.268  1.00  0.00     0.000 C 
HETATM   28  C16 UNL     1      -0.289  28.812  17.998  1.00  0.00     0.000 C 
HETATM   29  C17 UNL     1       0.735  29.902  17.862  1.00  0.00     0.000 C 
HETATM   30  C18 UNL     1       1.708  29.954  19.010  1.00  0.00     0.004 C 
ENDBRANCH  24  25
ENDBRANCH  23  24
ENDBRANCH  22  23
ENDBRANCH  21  22
ENDBRANCH  20  21
ENDBRANCH   6  20
TORSDOF 9
ENDMDL
