MODEL 1
REMARK VINA RESULT: -8.624323078      0.000      0.000
REMARK  10 active torsions:
REMARK  status: ('A' for Active; 'I' for Inactive)
REMARK    1  A    between atoms: C2_2  and  C3_3 
REMARK    2  A    between atoms: C3_3  and  C4_4 
REMARK    3  A    between atoms: C4_4  and  C5_5 
REMARK    4  A    between atoms: C5_5  and  C6_6 
REMARK    5  A    between atoms: C6_6  and  C7_7 
REMARK    6  A    between atoms: C8_8  and  C9_9 
REMARK    7  A    between atoms: C10_10  and  C11_11 
REMARK    8  A    between atoms: C13_14  and  O2_15 
REMARK    9  A    between atoms: C14_18  and  C15_19 
REMARK   10  A    between atoms: C19_23  and  O4_24 
ROOT
HETATM    1  C11 UNL     1       4.750  28.392  20.014  1.00  0.00     0.102 A 
HETATM    2  C12 UNL     1       5.985  27.934  19.966  1.00  0.00     0.098 A 
HETATM    3  O1  UNL     1       7.246  28.443  19.683  1.00  0.00    -0.298 OA
HETATM    4  C13 UNL     1       8.208  27.445  19.291  1.00  0.00     0.416 C 
HETATM    5  O3  UNL     1       7.671  26.423  18.570  1.00  0.00    -0.328 OA
HETATM    6  C14 UNL     1       6.547  25.804  19.082  1.00  0.00     0.176 C 
HETATM    7  C22 UNL     1       6.016  26.465  20.314  1.00  0.00     0.145 A 
HETATM    8  C23 UNL     1       4.600  26.234  20.647  1.00  0.00     0.209 A 
HETATM    9  O5  UNL     1       3.862  27.370  20.370  1.00  0.00    -0.308 OA
HETATM   10  O6  UNL     1       4.036  24.983  20.716  1.00  0.00    -0.341 OA
HETATM   11  C24 UNL     1       4.224  25.561  21.951  1.00  0.00     0.185 A 
HETATM   12  C25 UNL     1       5.370  25.159  22.835  1.00  0.00     0.045 C 
ENDROOT
BRANCH   1  13
HETATM   13  C10 UNL     1       4.415  29.777  19.725  1.00  0.00     0.039 C 
HETATM   14  C9  UNL     1       4.639  30.240  18.508  1.00  0.00     0.003 C 
BRANCH  14  15
HETATM   15  C8  UNL     1       4.316  31.606  18.195  1.00  0.00    -0.004 C 
HETATM   16  C7  UNL     1       3.356  31.927  17.379  1.00  0.00    -0.027 C 
BRANCH  16  17
HETATM   17  C6  UNL     1       2.465  30.993  16.659  1.00  0.00     0.027 C 
BRANCH  17  18
HETATM   18  C5  UNL     1       1.142  30.842  17.378  1.00  0.00     0.004 C 
BRANCH  18  19
HETATM   19  C4  UNL     1       0.494  29.499  17.162  1.00  0.00     0.000 C 
BRANCH  19  20
HETATM   20  C3  UNL     1      -0.753  29.330  17.989  1.00  0.00    -0.000 C 
BRANCH  20  21
HETATM   21  C2  UNL     1      -1.468  30.672  17.982  1.00  0.00    -0.005 C 
HETATM   22  C1  UNL     1      -2.818  30.573  17.312  1.00  0.00     0.005 C 
ENDBRANCH  20  21
ENDBRANCH  19  20
ENDBRANCH  18  19
ENDBRANCH  17  18
ENDBRANCH  16  17
ENDBRANCH  14  15
ENDBRANCH   1  13
BRANCH   4  23
HETATM   23  O2  UNL     1       9.079  28.142  18.418  1.00  0.00    -0.349 OA
ATOM     24  H2  UNL     1       8.702  27.996  17.558  1.00  0.00     0.215 HD
ENDBRANCH   4  23
BRANCH   6  25
HETATM   25  C15 UNL     1       6.857  24.394  19.359  1.00  0.00    -0.026 A 
HETATM   26  C16 UNL     1       7.384  24.009  20.560  1.00  0.00     0.010 A 
HETATM   27  C17 UNL     1       7.679  22.675  20.808  1.00  0.00     0.003 A 
HETATM   28  C18 UNL     1       7.451  21.723  19.865  1.00  0.00     0.037 A 
HETATM   29  C19 UNL     1       6.916  22.096  18.640  1.00  0.00     0.068 A 
HETATM   30  C21 UNL     1       6.629  23.429  18.411  1.00  0.00     0.046 A 
BRANCH  29  31
HETATM   31  O4  UNL     1       6.666  21.154  17.646  1.00  0.00    -0.356 OA
HETATM   32  C20 UNL     1       5.954  21.570  16.504  1.00  0.00     0.210 C 
ENDBRANCH  29  31
ENDBRANCH   6  25
TORSDOF 10
ENDMDL
MODEL 2
REMARK VINA RESULT: -8.048428995      1.732      3.874
REMARK  10 active torsions:
REMARK  status: ('A' for Active; 'I' for Inactive)
REMARK    1  A    between atoms: C2_2  and  C3_3 
REMARK    2  A    between atoms: C3_3  and  C4_4 
REMARK    3  A    between atoms: C4_4  and  C5_5 
REMARK    4  A    between atoms: C5_5  and  C6_6 
REMARK    5  A    between atoms: C6_6  and  C7_7 
REMARK    6  A    between atoms: C8_8  and  C9_9 
REMARK    7  A    between atoms: C10_10  and  C11_11 
REMARK    8  A    between atoms: C13_14  and  O2_15 
REMARK    9  A    between atoms: C14_18  and  C15_19 
REMARK   10  A    between atoms: C19_23  and  O4_24 
ROOT
HETATM    1  C11 UNL     1       1.978  28.602  20.723  1.00  0.00     0.102 A 
HETATM    2  C12 UNL     1       3.167  29.169  20.727  1.00  0.00     0.098 A 
HETATM    3  O1  UNL     1       3.677  30.461  20.775  1.00  0.00    -0.298 OA
HETATM    4  C13 UNL     1       5.018  30.584  20.265  1.00  0.00     0.416 C 
HETATM    5  O3  UNL     1       5.284  29.749  19.223  1.00  0.00    -0.328 OA
HETATM    6  C14 UNL     1       4.971  28.413  19.381  1.00  0.00     0.176 C 
HETATM    7  C22 UNL     1       4.252  28.120  20.660  1.00  0.00     0.145 A 
HETATM    8  C23 UNL     1       3.444  26.889  20.714  1.00  0.00     0.209 A 
HETATM    9  O5  UNL     1       2.100  27.209  20.656  1.00  0.00    -0.308 OA
HETATM   10  O6  UNL     1       3.928  25.654  20.356  1.00  0.00    -0.341 OA
HETATM   11  C24 UNL     1       3.775  25.804  21.716  1.00  0.00     0.185 A 
HETATM   12  C25 UNL     1       4.952  26.073  22.608  1.00  0.00     0.045 C 
ENDROOT
BRANCH   1  13
HETATM   13  C10 UNL     1       0.744  29.368  20.781  1.00  0.00     0.039 C 
HETATM   14  C9  UNL     1      -0.255  29.018  19.990  1.00  0.00     0.003 C 
BRANCH  14  15
HETATM   15  C8  UNL     1      -1.487  29.758  20.027  1.00  0.00    -0.004 C 
HETATM   16  C7  UNL     1      -2.042  30.242  18.956  1.00  0.00    -0.027 C 
BRANCH  16  17
HETATM   17  C6  UNL     1      -1.534  30.127  17.573  1.00  0.00     0.027 C 
BRANCH  17  18
HETATM   18  C5  UNL     1      -0.267  30.934  17.390  1.00  0.00     0.004 C 
BRANCH  18  19
HETATM   19  C4  UNL     1       0.894  30.121  16.880  1.00  0.00     0.000 C 
BRANCH  19  20
HETATM   20  C3  UNL     1       2.182  30.467  17.580  1.00  0.00    -0.000 C 
BRANCH  20  21
HETATM   21  C2  UNL     1       2.782  31.646  16.833  1.00  0.00    -0.005 C 
HETATM   22  C1  UNL     1       3.942  31.215  15.966  1.00  0.00     0.005 C 
ENDBRANCH  20  21
ENDBRANCH  19  20
ENDBRANCH  18  19
ENDBRANCH  17  18
ENDBRANCH  16  17
ENDBRANCH  14  15
ENDBRANCH   1  13
BRANCH   4  23
HETATM   23  O2  UNL     1       5.062  31.902  19.749  1.00  0.00    -0.349 OA
ATOM     24  H2  UNL     1       4.236  31.991  19.287  1.00  0.00     0.215 HD
ENDBRANCH   4  23
BRANCH   6  25
HETATM   25  C15 UNL     1       6.204  27.616  19.302  1.00  0.00    -0.026 A 
HETATM   26  C16 UNL     1       7.427  28.182  19.534  1.00  0.00     0.010 A 
HETATM   27  C17 UNL     1       8.585  27.422  19.450  1.00  0.00     0.003 A 
HETATM   28  C18 UNL     1       8.532  26.100  19.136  1.00  0.00     0.037 A 
HETATM   29  C19 UNL     1       7.298  25.510  18.898  1.00  0.00     0.068 A 
HETATM   30  C21 UNL     1       6.156  26.282  18.986  1.00  0.00     0.046 A 
BRANCH  29  31
HETATM   31  O4  UNL     1       7.197  24.159  18.573  1.00  0.00    -0.356 OA
HETATM   32  C20 UNL     1       7.494  23.215  19.574  1.00  0.00     0.210 C 
ENDBRANCH  29  31
ENDBRANCH   6  25
TORSDOF 10
ENDMDL
MODEL 3
REMARK VINA RESULT: -7.890031631      5.478      8.829
REMARK  10 active torsions:
REMARK  status: ('A' for Active; 'I' for Inactive)
REMARK    1  A    between atoms: C2_2  and  C3_3 
REMARK    2  A    between atoms: C3_3  and  C4_4 
REMARK    3  A    between atoms: C4_4  and  C5_5 
REMARK    4  A    between atoms: C5_5  and  C6_6 
REMARK    5  A    between atoms: C6_6  and  C7_7 
REMARK    6  A    between atoms: C8_8  and  C9_9 
REMARK    7  A    between atoms: C10_10  and  C11_11 
REMARK    8  A    between atoms: C13_14  and  O2_15 
REMARK    9  A    between atoms: C14_18  and  C15_19 
REMARK   10  A    between atoms: C19_23  and  O4_24 
ROOT
HETATM    1  C11 UNL     1       6.773  23.928  13.945  1.00  0.00     0.102 A 
HETATM    2  C12 UNL     1       6.289  22.854  14.536  1.00  0.00     0.098 A 
HETATM    3  O1  UNL     1       5.852  22.505  15.808  1.00  0.00    -0.298 OA
HETATM    4  C13 UNL     1       5.877  21.089  16.071  1.00  0.00     0.416 C 
HETATM    5  O3  UNL     1       6.910  20.441  15.467  1.00  0.00    -0.328 OA
HETATM    6  C14 UNL     1       7.100  20.663  14.118  1.00  0.00     0.176 C 
HETATM    7  C22 UNL     1       6.192  21.710  13.556  1.00  0.00     0.145 A 
HETATM    8  C23 UNL     1       6.619  22.378  12.314  1.00  0.00     0.209 A 
HETATM    9  O5  UNL     1       7.044  23.663  12.597  1.00  0.00    -0.308 OA
HETATM   10  O6  UNL     1       7.017  21.697  11.189  1.00  0.00    -0.341 OA
HETATM   11  C24 UNL     1       5.773  22.273  11.062  1.00  0.00     0.185 A 
HETATM   12  C25 UNL     1       4.519  21.456  11.186  1.00  0.00     0.045 C 
ENDROOT
BRANCH   1  13
HETATM   13  C10 UNL     1       6.977  25.184  14.645  1.00  0.00     0.039 C 
HETATM   14  C9  UNL     1       8.194  25.486  15.060  1.00  0.00     0.003 C 
BRANCH  14  15
HETATM   15  C8  UNL     1       8.424  26.723  15.756  1.00  0.00    -0.004 C 
HETATM   16  C7  UNL     1       8.549  26.785  17.049  1.00  0.00    -0.027 C 
BRANCH  16  17
HETATM   17  C6  UNL     1       8.481  25.649  17.993  1.00  0.00     0.027 C 
BRANCH  17  18
HETATM   18  C5  UNL     1       7.576  25.970  19.163  1.00  0.00     0.004 C 
BRANCH  18  19
HETATM   19  C4  UNL     1       6.918  24.755  19.761  1.00  0.00     0.000 C 
BRANCH  19  20
HETATM   20  C3  UNL     1       7.537  23.473  19.271  1.00  0.00    -0.000 C 
BRANCH  20  21
HETATM   21  C2  UNL     1       7.514  22.501  20.439  1.00  0.00    -0.005 C 
HETATM   22  C1  UNL     1       7.224  23.210  21.740  1.00  0.00     0.005 C 
ENDBRANCH  20  21
ENDBRANCH  19  20
ENDBRANCH  18  19
ENDBRANCH  17  18
ENDBRANCH  16  17
ENDBRANCH  14  15
ENDBRANCH   1  13
BRANCH   4  23
HETATM   23  O2  UNL     1       6.108  21.011  17.466  1.00  0.00    -0.349 OA
ATOM     24  H2  UNL     1       5.839  20.128  17.691  1.00  0.00     0.215 HD
ENDBRANCH   4  23
BRANCH   6  25
HETATM   25  C15 UNL     1       6.922  19.397  13.391  1.00  0.00    -0.026 A 
HETATM   26  C16 UNL     1       5.703  18.782  13.332  1.00  0.00     0.010 A 
HETATM   27  C17 UNL     1       5.548  17.583  12.649  1.00  0.00     0.003 A 
HETATM   28  C18 UNL     1       6.602  16.994  12.024  1.00  0.00     0.037 A 
HETATM   29  C19 UNL     1       7.847  17.606  12.073  1.00  0.00     0.068 A 
HETATM   30  C21 UNL     1       7.982  18.799  12.758  1.00  0.00     0.046 A 
BRANCH  29  31
HETATM   31  O4  UNL     1       8.954  17.039  11.447  1.00  0.00    -0.356 OA
HETATM   32  C20 UNL     1      10.218  17.606  11.698  1.00  0.00     0.210 C 
ENDBRANCH  29  31
ENDBRANCH   6  25
TORSDOF 10
ENDMDL
MODEL 4
REMARK VINA RESULT: -7.873387460      1.058      2.870
REMARK  10 active torsions:
REMARK  status: ('A' for Active; 'I' for Inactive)
REMARK    1  A    between atoms: C2_2  and  C3_3 
REMARK    2  A    between atoms: C3_3  and  C4_4 
REMARK    3  A    between atoms: C4_4  and  C5_5 
REMARK    4  A    between atoms: C5_5  and  C6_6 
REMARK    5  A    between atoms: C6_6  and  C7_7 
REMARK    6  A    between atoms: C8_8  and  C9_9 
REMARK    7  A    between atoms: C10_10  and  C11_11 
REMARK    8  A    between atoms: C13_14  and  O2_15 
REMARK    9  A    between atoms: C14_18  and  C15_19 
REMARK   10  A    between atoms: C19_23  and  O4_24 
ROOT
HETATM    1  C11 UNL     1       6.580  28.332  19.432  1.00  0.00     0.102 A 
HETATM    2  C12 UNL     1       5.740  27.325  19.571  1.00  0.00     0.098 A 
HETATM    3  O1  UNL     1       4.396  27.159  19.879  1.00  0.00    -0.298 OA
HETATM    4  C13 UNL     1       4.065  25.851  20.385  1.00  0.00     0.416 C 
HETATM    5  O3  UNL     1       5.047  25.297  21.146  1.00  0.00    -0.328 OA
HETATM    6  C14 UNL     1       6.326  25.281  20.625  1.00  0.00     0.176 C 
HETATM    7  C22 UNL     1       6.445  26.012  19.326  1.00  0.00     0.145 A 
HETATM    8  C23 UNL     1       7.784  26.490  18.941  1.00  0.00     0.209 A 
HETATM    9  O5  UNL     1       7.857  27.862  19.105  1.00  0.00    -0.308 OA
HETATM   10  O6  UNL     1       8.898  25.686  18.930  1.00  0.00    -0.341 OA
HETATM   11  C24 UNL     1       8.436  25.989  17.669  1.00  0.00     0.185 A 
HETATM   12  C25 UNL     1       7.639  24.997  16.872  1.00  0.00     0.045 C 
ENDROOT
BRANCH   1  13
HETATM   13  C10 UNL     1       6.179  29.717  19.610  1.00  0.00     0.039 C 
HETATM   14  C9  UNL     1       5.157  30.174  18.909  1.00  0.00     0.003 C 
BRANCH  14  15
HETATM   15  C8  UNL     1       4.739  31.541  19.065  1.00  0.00    -0.004 C 
HETATM   16  C7  UNL     1       3.932  32.125  18.229  1.00  0.00    -0.027 C 
BRANCH  16  17
HETATM   17  C6  UNL     1       3.328  31.520  17.023  1.00  0.00     0.027 C 
BRANCH  17  18
HETATM   18  C5  UNL     1       1.822  31.437  17.154  1.00  0.00     0.004 C 
BRANCH  18  19
HETATM   19  C4  UNL     1       1.348  30.174  17.824  1.00  0.00     0.000 C 
BRANCH  19  20
HETATM   20  C3  UNL     1       0.032  29.696  17.270  1.00  0.00    -0.000 C 
BRANCH  20  21
HETATM   21  C2  UNL     1      -1.057  30.340  18.112  1.00  0.00    -0.005 C 
HETATM   22  C1  UNL     1      -2.320  30.552  17.310  1.00  0.00     0.005 C 
ENDBRANCH  20  21
ENDBRANCH  19  20
ENDBRANCH  18  19
ENDBRANCH  17  18
ENDBRANCH  16  17
ENDBRANCH  14  15
ENDBRANCH   1  13
BRANCH   4  23
HETATM   23  O2  UNL     1       2.969  26.092  21.249  1.00  0.00    -0.349 OA
ATOM     24  H2  UNL     1       2.329  26.515  20.689  1.00  0.00     0.215 HD
ENDBRANCH   4  23
BRANCH   6  25
HETATM   25  C15 UNL     1       6.761  23.886  20.459  1.00  0.00    -0.026 A 
HETATM   26  C16 UNL     1       7.302  23.186  21.502  1.00  0.00     0.010 A 
HETATM   27  C17 UNL     1       7.715  21.871  21.333  1.00  0.00     0.003 A 
HETATM   28  C18 UNL     1       7.593  21.250  20.130  1.00  0.00     0.037 A 
HETATM   29  C19 UNL     1       7.046  21.947  19.060  1.00  0.00     0.068 A 
HETATM   30  C21 UNL     1       6.640  23.254  19.248  1.00  0.00     0.046 A 
BRANCH  29  31
HETATM   31  O4  UNL     1       6.902  21.350  17.811  1.00  0.00    -0.356 OA
HETATM   32  C20 UNL     1       5.842  21.781  16.990  1.00  0.00     0.210 C 
ENDBRANCH  29  31
ENDBRANCH   6  25
TORSDOF 10
ENDMDL
MODEL 5
REMARK VINA RESULT: -7.853094169      4.653      8.393
REMARK  10 active torsions:
REMARK  status: ('A' for Active; 'I' for Inactive)
REMARK    1  A    between atoms: C2_2  and  C3_3 
REMARK    2  A    between atoms: C3_3  and  C4_4 
REMARK    3  A    between atoms: C4_4  and  C5_5 
REMARK    4  A    between atoms: C5_5  and  C6_6 
REMARK    5  A    between atoms: C6_6  and  C7_7 
REMARK    6  A    between atoms: C8_8  and  C9_9 
REMARK    7  A    between atoms: C10_10  and  C11_11 
REMARK    8  A    between atoms: C13_14  and  O2_15 
REMARK    9  A    between atoms: C14_18  and  C15_19 
REMARK   10  A    between atoms: C19_23  and  O4_24 
ROOT
HETATM    1  C11 UNL     1       6.808  23.952  14.010  1.00  0.00     0.102 A 
HETATM    2  C12 UNL     1       6.313  22.873  14.582  1.00  0.00     0.098 A 
HETATM    3  O1  UNL     1       5.863  22.510  15.845  1.00  0.00    -0.298 OA
HETATM    4  C13 UNL     1       5.877  21.090  16.089  1.00  0.00     0.416 C 
HETATM    5  O3  UNL     1       6.910  20.443  15.484  1.00  0.00    -0.328 OA
HETATM    6  C14 UNL     1       7.113  20.683  14.139  1.00  0.00     0.176 C 
HETATM    7  C22 UNL     1       6.216  21.743  13.585  1.00  0.00     0.145 A 
HETATM    8  C23 UNL     1       6.656  22.427  12.356  1.00  0.00     0.209 A 
HETATM    9  O5  UNL     1       7.088  23.705  12.660  1.00  0.00    -0.308 OA
HETATM   10  O6  UNL     1       7.059  21.759  11.225  1.00  0.00    -0.341 OA
HETATM   11  C24 UNL     1       5.820  22.345  11.097  1.00  0.00     0.185 A 
HETATM   12  C25 UNL     1       4.560  21.535  11.199  1.00  0.00     0.045 C 
ENDROOT
BRANCH   1  13
HETATM   13  C10 UNL     1       7.015  25.197  14.730  1.00  0.00     0.039 C 
HETATM   14  C9  UNL     1       8.234  25.491  15.147  1.00  0.00     0.003 C 
BRANCH  14  15
HETATM   15  C8  UNL     1       8.467  26.717  15.861  1.00  0.00    -0.004 C 
HETATM   16  C7  UNL     1       8.592  26.758  17.155  1.00  0.00    -0.027 C 
BRANCH  16  17
HETATM   17  C6  UNL     1       8.521  25.608  18.082  1.00  0.00     0.027 C 
BRANCH  17  18
HETATM   18  C5  UNL     1       7.655  25.930  19.280  1.00  0.00     0.004 C 
BRANCH  18  19
HETATM   19  C4  UNL     1       7.171  27.357  19.303  1.00  0.00     0.000 C 
BRANCH  19  20
HETATM   20  C3  UNL     1       5.855  27.499  20.021  1.00  0.00    -0.000 C 
BRANCH  20  21
HETATM   21  C2  UNL     1       5.391  26.094  20.367  1.00  0.00    -0.005 C 
HETATM   22  C1  UNL     1       4.791  26.037  21.752  1.00  0.00     0.005 C 
ENDBRANCH  20  21
ENDBRANCH  19  20
ENDBRANCH  18  19
ENDBRANCH  17  18
ENDBRANCH  16  17
ENDBRANCH  14  15
ENDBRANCH   1  13
BRANCH   4  23
HETATM   23  O2  UNL     1       6.097  20.990  17.484  1.00  0.00    -0.349 OA
ATOM     24  H2  UNL     1       6.626  20.206  17.574  1.00  0.00     0.215 HD
ENDBRANCH   4  23
BRANCH   6  25
HETATM   25  C15 UNL     1       6.932  19.429  13.393  1.00  0.00    -0.026 A 
HETATM   26  C16 UNL     1       5.712  18.814  13.330  1.00  0.00     0.010 A 
HETATM   27  C17 UNL     1       5.554  17.626  12.628  1.00  0.00     0.003 A 
HETATM   28  C18 UNL     1       6.606  17.048  11.989  1.00  0.00     0.037 A 
HETATM   29  C19 UNL     1       7.851  17.660  12.043  1.00  0.00     0.068 A 
HETATM   30  C21 UNL     1       7.989  18.841  12.746  1.00  0.00     0.046 A 
BRANCH  29  31
HETATM   31  O4  UNL     1       8.955  17.103  11.403  1.00  0.00    -0.356 OA
HETATM   32  C20 UNL     1      10.221  17.662  11.661  1.00  0.00     0.210 C 
ENDBRANCH  29  31
ENDBRANCH   6  25
TORSDOF 10
ENDMDL
