MODEL 1
REMARK VINA RESULT: -6.794459804      0.000      0.000
REMARK  12 active torsions:
REMARK  status: ('A' for Active; 'I' for Inactive)
REMARK    1  A    between atoms: C2_2  and  C3_3 
REMARK    2  A    between atoms: C3_3  and  C4_4 
REMARK    3  A    between atoms: C4_4  and  O1_5 
REMARK    4  A    between atoms: O1_5  and  C5_6 
REMARK    5  A    between atoms: C10_12  and  O3_14 
REMARK    6  A    between atoms: C12_16  and  C13_17 
REMARK    7  A    between atoms: C13_17  and  C14_18 
REMARK    8  A    between atoms: C14_18  and  C15_19 
REMARK    9  A    between atoms: C15_19  and  C16_20 
REMARK   10  A    between atoms: C15_19  and  C21_28 
REMARK   11  A    between atoms: C16_20  and  C17_21 
REMARK   12  A    between atoms: C21_28  and  C23_30 
ROOT
HETATM    1  C4  UNL     1       6.988  22.139  11.061  1.00  0.00     0.083 C 
HETATM    2  C7  UNL     1       6.423  23.144  10.057  1.00  0.00     0.040 C 
HETATM    3  C8  UNL     1       6.688  22.719   8.664  1.00  0.00     0.006 C 
HETATM    4  C9  UNL     1       5.979  21.430   8.377  1.00  0.00     0.038 C 
HETATM    5  C10 UNL     1       5.515  20.715   9.583  1.00  0.00     0.064 C 
HETATM    6  C11 UNL     1       4.151  21.032  10.078  1.00  0.00     0.046 C 
HETATM    7  C12 UNL     1       6.537  20.724  10.729  1.00  0.00     0.078 C 
ENDROOT
BRANCH   7   8
HETATM    8  C13 UNL     1       6.000  19.906  11.812  1.00  0.00    -0.015 C 
BRANCH   8   9
HETATM    9  C14 UNL     1       6.713  18.978  12.667  1.00  0.00     0.004 C 
BRANCH   9  10
HETATM   10  C15 UNL     1       7.804  18.123  12.256  1.00  0.00    -0.046 C 
BRANCH  10  11
HETATM   11  C16 UNL     1       9.043  18.530  12.285  1.00  0.00     0.044 C 
BRANCH  11  12
HETATM   12  C17 UNL     1      10.155  17.529  12.321  1.00  0.00     0.325 C 
HETATM   13  O4  UNL     1      10.866  17.626  13.518  1.00  0.00    -0.201 OA
HETATM   14  O5  UNL     1      12.055  17.127  13.201  1.00  0.00    -0.199 OA
HETATM   15  C18 UNL     1      12.312  17.676  11.947  1.00  0.00     0.193 C 
HETATM   16  C19 UNL     1      13.207  16.800  11.101  1.00  0.00     0.081 C 
HETATM   17  C20 UNL     1      13.024  19.011  12.066  1.00  0.00     0.081 C 
HETATM   18  O6  UNL     1      11.091  17.774  11.346  1.00  0.00    -0.317 OA
ENDBRANCH  11  12
ENDBRANCH  10  11
BRANCH  10  19
HETATM   19  C21 UNL     1       7.618  16.711  11.840  1.00  0.00     0.083 C 
HETATM   20  C22 UNL     1       6.777  15.861  12.737  1.00  0.00     0.023 C 
BRANCH  19  21
HETATM   21  C23 UNL     1       7.058  16.570  10.479  1.00  0.00     0.131 C 
HETATM   22  C24 UNL     1       5.995  15.594  10.190  1.00  0.00     0.091 C 
HETATM   23  O7  UNL     1       7.490  17.274   9.594  1.00  0.00    -0.298 OA
ENDBRANCH  19  21
ENDBRANCH  10  19
ENDBRANCH   9  10
ENDBRANCH   8   9
ENDBRANCH   7   8
BRANCH   1  24
HETATM   24  C3  UNL     1       8.466  22.153  10.870  1.00  0.00     0.065 C 
BRANCH  24  25
HETATM   25  C2  UNL     1       9.164  21.010  10.322  1.00  0.00    -0.034 C 
HETATM   26  C1  UNL     1      10.446  20.979   9.988  1.00  0.00     0.007 C 
ENDBRANCH  24  25
ENDBRANCH   1  24
BRANCH   1  27
HETATM   27  O1  UNL     1       6.570  22.450  12.327  1.00  0.00    -0.309 OA
BRANCH  27  28
HETATM   28  C5  UNL     1       7.073  23.070  13.392  1.00  0.00     0.255 C 
HETATM   29  C6  UNL     1       7.359  24.552  13.343  1.00  0.00     0.126 C 
HETATM   30  O2  UNL     1       7.294  22.402  14.407  1.00  0.00    -0.266 OA
ENDBRANCH  27  28
ENDBRANCH   1  27
BRANCH   5  31
HETATM   31  O3  UNL     1       5.455  19.338   9.195  1.00  0.00    -0.389 OA
ATOM     32  H3  UNL     1       4.530  19.159   9.072  1.00  0.00     0.210 HD
ENDBRANCH   5  31
TORSDOF 12
ENDMDL
MODEL 2
REMARK VINA RESULT: -6.733857643      3.016      6.540
REMARK  12 active torsions:
REMARK  status: ('A' for Active; 'I' for Inactive)
REMARK    1  A    between atoms: C2_2  and  C3_3 
REMARK    2  A    between atoms: C3_3  and  C4_4 
REMARK    3  A    between atoms: C4_4  and  O1_5 
REMARK    4  A    between atoms: O1_5  and  C5_6 
REMARK    5  A    between atoms: C10_12  and  O3_14 
REMARK    6  A    between atoms: C12_16  and  C13_17 
REMARK    7  A    between atoms: C13_17  and  C14_18 
REMARK    8  A    between atoms: C14_18  and  C15_19 
REMARK    9  A    between atoms: C15_19  and  C16_20 
REMARK   10  A    between atoms: C15_19  and  C21_28 
REMARK   11  A    between atoms: C16_20  and  C17_21 
REMARK   12  A    between atoms: C21_28  and  C23_30 
ROOT
HETATM    1  C4  UNL     1       7.115  20.459  10.763  1.00  0.00     0.083 C 
HETATM    2  C7  UNL     1       7.070  20.730   9.259  1.00  0.00     0.040 C 
HETATM    3  C8  UNL     1       5.718  21.148   8.829  1.00  0.00     0.006 C 
HETATM    4  C9  UNL     1       5.352  22.450   9.477  1.00  0.00     0.038 C 
HETATM    5  C10 UNL     1       6.207  22.813  10.626  1.00  0.00     0.064 C 
HETATM    6  C11 UNL     1       7.422  23.616  10.340  1.00  0.00     0.046 C 
HETATM    7  C12 UNL     1       6.529  21.626  11.545  1.00  0.00     0.078 C 
ENDROOT
BRANCH   7   8
HETATM    8  C13 UNL     1       7.288  22.136  12.682  1.00  0.00    -0.015 C 
BRANCH   8   9
HETATM    9  C14 UNL     1       7.231  21.696  14.062  1.00  0.00     0.004 C 
BRANCH   9  10
HETATM   10  C15 UNL     1       6.143  21.946  14.982  1.00  0.00    -0.046 C 
BRANCH  10  11
HETATM   11  C16 UNL     1       5.186  21.079  15.163  1.00  0.00     0.044 C 
BRANCH  11  12
HETATM   12  C17 UNL     1       5.459  19.815  15.918  1.00  0.00     0.325 C 
HETATM   13  O4  UNL     1       4.853  18.726  15.292  1.00  0.00    -0.201 OA
HETATM   14  O5  UNL     1       4.708  17.854  16.282  1.00  0.00    -0.199 OA
HETATM   15  C18 UNL     1       4.278  18.642  17.347  1.00  0.00     0.193 C 
HETATM   16  C19 UNL     1       4.674  18.073  18.690  1.00  0.00     0.081 C 
HETATM   17  C20 UNL     1       2.765  18.758  17.371  1.00  0.00     0.081 C 
HETATM   18  O6  UNL     1       4.902  19.844  17.173  1.00  0.00    -0.317 OA
ENDBRANCH  11  12
ENDBRANCH  10  11
BRANCH  10  19
HETATM   19  C21 UNL     1       6.062  23.157  15.834  1.00  0.00     0.083 C 
HETATM   20  C22 UNL     1       6.758  23.086  17.155  1.00  0.00     0.023 C 
BRANCH  19  21
HETATM   21  C23 UNL     1       6.553  24.379  15.164  1.00  0.00     0.131 C 
HETATM   22  C24 UNL     1       7.722  25.113  15.677  1.00  0.00     0.091 C 
HETATM   23  O7  UNL     1       5.976  24.777  14.177  1.00  0.00    -0.298 OA
ENDBRANCH  19  21
ENDBRANCH  10  19
ENDBRANCH   9  10
ENDBRANCH   8   9
ENDBRANCH   7   8
BRANCH   1  24
HETATM   24  C3  UNL     1       6.200  19.306  11.001  1.00  0.00     0.065 C 
BRANCH  24  25
HETATM   25  C2  UNL     1       5.070  19.415  11.898  1.00  0.00    -0.034 C 
HETATM   26  C1  UNL     1       3.802  19.226  11.565  1.00  0.00     0.007 C 
ENDBRANCH  24  25
ENDBRANCH   1  24
BRANCH   1  27
HETATM   27  O1  UNL     1       8.407  20.260  11.169  1.00  0.00    -0.309 OA
BRANCH  27  28
HETATM   28  C5  UNL     1       9.510  19.709  10.668  1.00  0.00     0.255 C 
HETATM   29  C6  UNL     1      10.552  20.572   9.996  1.00  0.00     0.126 C 
HETATM   30  O2  UNL     1       9.651  18.486  10.769  1.00  0.00    -0.266 OA
ENDBRANCH  27  28
ENDBRANCH   1  27
BRANCH   5  31
HETATM   31  O3  UNL     1       5.388  23.659  11.441  1.00  0.00    -0.389 OA
ATOM     32  H3  UNL     1       5.532  24.535  11.104  1.00  0.00     0.210 HD
ENDBRANCH   5  31
TORSDOF 12
ENDMDL
MODEL 3
REMARK VINA RESULT: -6.683114550      8.526     13.874
REMARK  12 active torsions:
REMARK  status: ('A' for Active; 'I' for Inactive)
REMARK    1  A    between atoms: C2_2  and  C3_3 
REMARK    2  A    between atoms: C3_3  and  C4_4 
REMARK    3  A    between atoms: C4_4  and  O1_5 
REMARK    4  A    between atoms: O1_5  and  C5_6 
REMARK    5  A    between atoms: C10_12  and  O3_14 
REMARK    6  A    between atoms: C12_16  and  C13_17 
REMARK    7  A    between atoms: C13_17  and  C14_18 
REMARK    8  A    between atoms: C14_18  and  C15_19 
REMARK    9  A    between atoms: C15_19  and  C16_20 
REMARK   10  A    between atoms: C15_19  and  C21_28 
REMARK   11  A    between atoms: C16_20  and  C17_21 
REMARK   12  A    between atoms: C21_28  and  C23_30 
ROOT
HETATM    1  C4  UNL     1       6.769  25.339  19.177  1.00  0.00     0.083 C 
HETATM    2  C7  UNL     1       8.256  25.045  18.976  1.00  0.00     0.040 C 
HETATM    3  C8  UNL     1       8.740  25.580  17.684  1.00  0.00     0.006 C 
HETATM    4  C9  UNL     1       8.627  27.075  17.673  1.00  0.00     0.038 C 
HETATM    5  C10 UNL     1       7.757  27.622  18.734  1.00  0.00     0.064 C 
HETATM    6  C11 UNL     1       8.397  27.959  20.031  1.00  0.00     0.046 C 
HETATM    7  C12 UNL     1       6.469  26.813  18.944  1.00  0.00     0.078 C 
ENDROOT
BRANCH   7   8
HETATM    8  C13 UNL     1       5.661  27.511  19.940  1.00  0.00    -0.015 C 
BRANCH   8   9
HETATM    9  C14 UNL     1       4.230  27.736  19.928  1.00  0.00     0.004 C 
BRANCH   9  10
HETATM   10  C15 UNL     1       3.561  28.931  20.392  1.00  0.00    -0.046 C 
BRANCH  10  11
HETATM   11  C16 UNL     1       2.352  28.895  20.878  1.00  0.00     0.044 C 
BRANCH  11  12
HETATM   12  C17 UNL     1       1.336  29.897  20.423  1.00  0.00     0.325 C 
HETATM   13  O4  UNL     1       0.158  29.772  21.159  1.00  0.00    -0.201 OA
HETATM   14  O5  UNL     1      -0.759  30.281  20.344  1.00  0.00    -0.199 OA
HETATM   15  C18 UNL     1      -0.408  29.763  19.099  1.00  0.00     0.193 C 
HETATM   16  C19 UNL     1      -0.824  30.661  17.957  1.00  0.00     0.081 C 
HETATM   17  C20 UNL     1      -1.082  28.427  18.849  1.00  0.00     0.081 C 
HETATM   18  O6  UNL     1       0.954  29.678  19.123  1.00  0.00    -0.317 OA
ENDBRANCH  11  12
ENDBRANCH  10  11
BRANCH  10  19
HETATM   19  C21 UNL     1       4.209  30.266  20.418  1.00  0.00     0.083 C 
HETATM   20  C22 UNL     1       5.385  30.414  21.329  1.00  0.00     0.023 C 
BRANCH  19  21
HETATM   21  C23 UNL     1       4.646  30.731  19.086  1.00  0.00     0.131 C 
HETATM   22  C24 UNL     1       3.700  30.819  17.961  1.00  0.00     0.091 C 
HETATM   23  O7  UNL     1       5.805  31.042  18.926  1.00  0.00    -0.298 OA
ENDBRANCH  19  21
ENDBRANCH  10  19
ENDBRANCH   9  10
ENDBRANCH   8   9
ENDBRANCH   7   8
BRANCH   1  24
HETATM   24  C3  UNL     1       6.054  24.601  18.098  1.00  0.00     0.065 C 
BRANCH  24  25
HETATM   25  C2  UNL     1       6.406  23.239  17.758  1.00  0.00    -0.034 C 
HETATM   26  C1  UNL     1       6.359  22.712  16.543  1.00  0.00     0.007 C 
ENDBRANCH  24  25
ENDBRANCH   1  24
BRANCH   1  27
HETATM   27  O1  UNL     1       6.390  25.007  20.450  1.00  0.00    -0.309 OA
BRANCH  27  28
HETATM   28  C5  UNL     1       6.644  24.029  21.316  1.00  0.00     0.255 C 
HETATM   29  C6  UNL     1       6.040  24.066  22.701  1.00  0.00     0.126 C 
HETATM   30  O2  UNL     1       7.381  23.105  20.956  1.00  0.00    -0.266 OA
ENDBRANCH  27  28
ENDBRANCH   1  27
BRANCH   5  31
HETATM   31  O3  UNL     1       7.289  28.873  18.218  1.00  0.00    -0.389 OA
ATOM     32  H3  UNL     1       7.850  29.527  18.618  1.00  0.00     0.210 HD
ENDBRANCH   5  31
TORSDOF 12
ENDMDL
MODEL 4
REMARK VINA RESULT: -6.654838111      3.201      6.347
REMARK  12 active torsions:
REMARK  status: ('A' for Active; 'I' for Inactive)
REMARK    1  A    between atoms: C2_2  and  C3_3 
REMARK    2  A    between atoms: C3_3  and  C4_4 
REMARK    3  A    between atoms: C4_4  and  O1_5 
REMARK    4  A    between atoms: O1_5  and  C5_6 
REMARK    5  A    between atoms: C10_12  and  O3_14 
REMARK    6  A    between atoms: C12_16  and  C13_17 
REMARK    7  A    between atoms: C13_17  and  C14_18 
REMARK    8  A    between atoms: C14_18  and  C15_19 
REMARK    9  A    between atoms: C15_19  and  C16_20 
REMARK   10  A    between atoms: C15_19  and  C21_28 
REMARK   11  A    between atoms: C16_20  and  C17_21 
REMARK   12  A    between atoms: C21_28  and  C23_30 
ROOT
HETATM    1  C4  UNL     1       7.028  20.882  11.104  1.00  0.00     0.083 C 
HETATM    2  C7  UNL     1       7.179  20.102   9.797  1.00  0.00     0.040 C 
HETATM    3  C8  UNL     1       8.557  19.587   9.635  1.00  0.00     0.006 C 
HETATM    4  C9  UNL     1       8.868  18.602  10.722  1.00  0.00     0.038 C 
HETATM    5  C10 UNL     1       7.931  18.648  11.864  1.00  0.00     0.064 C 
HETATM    6  C11 UNL     1       6.735  17.771  11.795  1.00  0.00     0.046 C 
HETATM    7  C12 UNL     1       7.551  20.075  12.283  1.00  0.00     0.078 C 
ENDROOT
BRANCH   7   8
HETATM    8  C13 UNL     1       6.709  19.980  13.472  1.00  0.00    -0.015 C 
BRANCH   8   9
HETATM    9  C14 UNL     1       6.798  20.757  14.692  1.00  0.00     0.004 C 
BRANCH   9  10
HETATM   10  C15 UNL     1       5.838  20.741  15.773  1.00  0.00    -0.046 C 
BRANCH  10  11
HETATM   11  C16 UNL     1       5.653  21.778  16.542  1.00  0.00     0.044 C 
BRANCH  11  12
HETATM   12  C17 UNL     1       6.833  22.493  17.125  1.00  0.00     0.325 C 
HETATM   13  O4  UNL     1       6.878  22.320  18.509  1.00  0.00    -0.201 OA
HETATM   14  O5  UNL     1       7.572  23.376  18.918  1.00  0.00    -0.199 OA
HETATM   15  C18 UNL     1       7.058  24.419  18.150  1.00  0.00     0.193 C 
HETATM   16  C19 UNL     1       8.064  25.524  17.921  1.00  0.00     0.081 C 
HETATM   17  C20 UNL     1       5.868  25.070  18.832  1.00  0.00     0.081 C 
HETATM   18  O6  UNL     1       6.740  23.851  16.951  1.00  0.00    -0.317 OA
ENDBRANCH  11  12
ENDBRANCH  10  11
BRANCH  10  19
HETATM   19  C21 UNL     1       4.946  19.588  16.051  1.00  0.00     0.083 C 
HETATM   20  C22 UNL     1       4.916  19.098  17.463  1.00  0.00     0.023 C 
BRANCH  19  21
HETATM   21  C23 UNL     1       3.541  19.827  15.658  1.00  0.00     0.131 C 
HETATM   22  C24 UNL     1       3.173  20.069  14.253  1.00  0.00     0.091 C 
HETATM   23  O7  UNL     1       2.685  19.822  16.514  1.00  0.00    -0.298 OA
ENDBRANCH  19  21
ENDBRANCH  10  19
ENDBRANCH   9  10
ENDBRANCH   8   9
ENDBRANCH   7   8
BRANCH   1  24
HETATM   24  C3  UNL     1       7.930  22.063  10.985  1.00  0.00     0.065 C 
BRANCH  24  25
HETATM   25  C2  UNL     1       7.512  23.376  11.427  1.00  0.00    -0.034 C 
HETATM   26  C1  UNL     1       7.618  23.841  12.663  1.00  0.00     0.007 C 
ENDBRANCH  24  25
ENDBRANCH   1  24
BRANCH   1  27
HETATM   27  O1  UNL     1       5.711  21.184  11.324  1.00  0.00    -0.309 OA
BRANCH  27  28
HETATM   28  C5  UNL     1       4.571  21.116  10.642  1.00  0.00     0.255 C 
HETATM   29  C6  UNL     1       3.749  19.848  10.661  1.00  0.00     0.126 C 
HETATM   30  O2  UNL     1       4.212  22.109  10.001  1.00  0.00    -0.266 OA
ENDBRANCH  27  28
ENDBRANCH   1  27
BRANCH   5  31
HETATM   31  O3  UNL     1       8.685  18.158  12.978  1.00  0.00    -0.389 OA
ATOM     32  H3  UNL     1       8.761  17.222  12.828  1.00  0.00     0.210 HD
ENDBRANCH   5  31
TORSDOF 12
ENDMDL
MODEL 5
REMARK VINA RESULT: -6.626397197      7.987     12.343
REMARK  12 active torsions:
REMARK  status: ('A' for Active; 'I' for Inactive)
REMARK    1  A    between atoms: C2_2  and  C3_3 
REMARK    2  A    between atoms: C3_3  and  C4_4 
REMARK    3  A    between atoms: C4_4  and  O1_5 
REMARK    4  A    between atoms: O1_5  and  C5_6 
REMARK    5  A    between atoms: C10_12  and  O3_14 
REMARK    6  A    between atoms: C12_16  and  C13_17 
REMARK    7  A    between atoms: C13_17  and  C14_18 
REMARK    8  A    between atoms: C14_18  and  C15_19 
REMARK    9  A    between atoms: C15_19  and  C16_20 
REMARK   10  A    between atoms: C15_19  and  C21_28 
REMARK   11  A    between atoms: C16_20  and  C17_21 
REMARK   12  A    between atoms: C21_28  and  C23_30 
ROOT
HETATM    1  C4  UNL     1       7.717  25.338  18.054  1.00  0.00     0.083 C 
HETATM    2  C7  UNL     1       9.049  25.645  17.369  1.00  0.00     0.040 C 
HETATM    3  C8  UNL     1       8.901  26.722  16.366  1.00  0.00     0.006 C 
HETATM    4  C9  UNL     1       8.498  28.000  17.039  1.00  0.00     0.038 C 
HETATM    5  C10 UNL     1       7.995  27.822  18.417  1.00  0.00     0.064 C 
HETATM    6  C11 UNL     1       8.991  27.883  19.516  1.00  0.00     0.046 C 
HETATM    7  C12 UNL     1       7.066  26.610  18.576  1.00  0.00     0.078 C 
ENDROOT
BRANCH   7   8
HETATM    8  C13 UNL     1       6.565  26.609  19.947  1.00  0.00    -0.015 C 
BRANCH   8   9
HETATM    9  C14 UNL     1       5.219  26.328  20.404  1.00  0.00     0.004 C 
BRANCH   9  10
HETATM   10  C15 UNL     1       4.576  26.930  21.551  1.00  0.00    -0.046 C 
BRANCH  10  11
HETATM   11  C16 UNL     1       4.651  26.395  22.738  1.00  0.00     0.044 C 
BRANCH  11  12
HETATM   12  C17 UNL     1       5.070  24.965  22.886  1.00  0.00     0.325 C 
HETATM   13  O4  UNL     1       3.959  24.143  23.076  1.00  0.00    -0.201 OA
HETATM   14  O5  UNL     1       4.469  23.091  23.705  1.00  0.00    -0.199 OA
HETATM   15  C18 UNL     1       5.345  23.660  24.627  1.00  0.00     0.193 C 
HETATM   16  C19 UNL     1       6.497  22.745  24.976  1.00  0.00     0.081 C 
HETATM   17  C20 UNL     1       4.642  23.967  25.937  1.00  0.00     0.081 C 
HETATM   18  O6  UNL     1       5.835  24.774  24.010  1.00  0.00    -0.317 OA
ENDBRANCH  11  12
ENDBRANCH  10  11
BRANCH  10  19
HETATM   19  C21 UNL     1       3.849  28.221  21.490  1.00  0.00     0.083 C 
HETATM   20  C22 UNL     1       4.606  29.382  20.929  1.00  0.00     0.023 C 
BRANCH  19  21
HETATM   21  C23 UNL     1       2.579  28.143  20.739  1.00  0.00     0.131 C 
HETATM   22  C24 UNL     1       2.238  29.140  19.711  1.00  0.00     0.091 C 
HETATM   23  O7  UNL     1       1.810  27.239  20.981  1.00  0.00    -0.298 OA
ENDBRANCH  19  21
ENDBRANCH  10  19
ENDBRANCH   9  10
ENDBRANCH   8   9
ENDBRANCH   7   8
BRANCH   1  24
HETATM   24  C3  UNL     1       6.813  24.824  16.985  1.00  0.00     0.065 C 
BRANCH  24  25
HETATM   25  C2  UNL     1       7.340  24.293  15.747  1.00  0.00    -0.034 C 
HETATM   26  C1  UNL     1       6.803  23.307  15.043  1.00  0.00     0.007 C 
ENDBRANCH  24  25
ENDBRANCH   1  24
BRANCH   1  27
HETATM   27  O1  UNL     1       7.911  24.479  19.103  1.00  0.00    -0.309 OA
BRANCH  27  28
HETATM   28  C5  UNL     1       7.499  23.264  19.454  1.00  0.00     0.255 C 
HETATM   29  C6  UNL     1       7.301  22.921  20.912  1.00  0.00     0.126 C 
HETATM   30  O2  UNL     1       7.287  22.437  18.561  1.00  0.00    -0.266 OA
ENDBRANCH  27  28
ENDBRANCH   1  27
BRANCH   5  31
HETATM   31  O3  UNL     1       7.131  28.942  18.640  1.00  0.00    -0.389 OA
ATOM     32  H3  UNL     1       7.555  29.669  18.199  1.00  0.00     0.210 HD
ENDBRANCH   5  31
TORSDOF 12
ENDMDL
