MODEL 1
REMARK VINA RESULT: -7.911611986      0.000      0.000
REMARK  10 active torsions:
REMARK  status: ('A' for Active; 'I' for Inactive)
REMARK    1  A    between atoms: C2_2  and  C3_3 
REMARK    2  A    between atoms: C4_4  and  C5_5 
REMARK    3  A    between atoms: C5_5  and  O1_6 
REMARK    4  A    between atoms: N1_10  and  C9_11 
REMARK    5  A    between atoms: C9_11  and  C10_12 
REMARK    6  A    between atoms: C10_12  and  C11_13 
REMARK    7  A    between atoms: C11_13  and  C12_14 
REMARK    8  A    between atoms: C12_14  and  O2_15 
REMARK    9  A    between atoms: N2_20  and  C16_21 
REMARK   10  A    between atoms: C17_24  and  C18_25 
ROOT
HETATM    1  C3  UNL     1       6.466  23.297  15.791  1.00  0.00     0.027 A 
HETATM    2  C4  UNL     1       6.361  21.978  15.411  1.00  0.00     0.002 A 
HETATM    3  C14 UNL     1       6.443  21.274  16.603  1.00  0.00     0.030 A 
HETATM    4  C15 UNL     1       6.590  22.160  17.639  1.00  0.00     0.100 A 
HETATM    5  N2  UNL     1       6.602  23.384  17.142  1.00  0.00    -0.306 N 
ENDROOT
BRANCH   2   6
HETATM    6  C5  UNL     1       6.167  21.352  14.109  1.00  0.00     0.117 C 
HETATM    7  C7  UNL     1       6.789  22.026  12.923  1.00  0.00     0.075 C 
HETATM    8  C8  UNL     1       6.974  20.854  11.940  1.00  0.00     0.276 C 
HETATM    9  N1  UNL     1       7.158  19.697  12.733  1.00  0.00     0.091 N 
HETATM   10  C13 UNL     1       6.901  20.030  14.092  1.00  0.00     0.315 C 
BRANCH   6  11
HETATM   11  O1  UNL     1       4.846  21.125  13.792  1.00  0.00    -0.378 OA
HETATM   12  C6  UNL     1       4.141  20.267  14.571  1.00  0.00     0.203 C 
ENDBRANCH   6  11
BRANCH   9  13
HETATM   13  C9  UNL     1       6.448  18.525  12.351  1.00  0.00     0.272 C 
BRANCH  13  14
HETATM   14  C10 UNL     1       7.331  17.294  12.284  1.00  0.00     0.032 C 
BRANCH  14  15
HETATM   15  C11 UNL     1       8.562  17.532  11.450  1.00  0.00     0.028 C 
BRANCH  15  16
HETATM   16  C12 UNL     1       9.799  17.159  12.239  1.00  0.00     0.164 C 
BRANCH  16  17
HETATM   17  O2  UNL     1       9.587  15.906  12.820  1.00  0.00    -0.401 OA
ATOM     18  H2  UNL     1      10.418  15.587  13.153  1.00  0.00     0.209 HD
ENDBRANCH  16  17
ENDBRANCH  15  16
ENDBRANCH  14  15
ENDBRANCH  13  14
ENDBRANCH   9  13
ENDBRANCH   2   6
BRANCH   1  19
HETATM   19  C2  UNL     1       6.459  24.441  14.888  1.00  0.00     0.054 C 
HETATM   20  C1  UNL     1       7.856  24.859  14.429  1.00  0.00     0.011 C 
ENDBRANCH   1  19
BRANCH   5  21
HETATM   21  C16 UNL     1       6.733  24.572  17.927  1.00  0.00     0.155 A 
HETATM   22  N3  UNL     1       5.881  25.090  18.793  1.00  0.00    -0.339 N 
HETATM   23  C17 UNL     1       6.171  26.189  19.428  1.00  0.00     0.022 A 
ATOM     24  H3  UNL     1       4.990  24.626  18.966  1.00  0.00     0.168 HD
HETATM   25  C24 UNL     1       7.391  26.765  19.147  1.00  0.00     0.078 A 
HETATM   26  S1  UNL     1       8.029  25.684  17.994  1.00  0.00    -0.063 SA
BRANCH  23  27
HETATM   27  C18 UNL     1       5.186  26.794  20.424  1.00  0.00     0.036 C 
HETATM   28  C19 UNL     1       3.875  26.107  20.253  1.00  0.00     0.011 C 
HETATM   29  C20 UNL     1       2.753  26.781  20.979  1.00  0.00     0.001 C 
HETATM   30  C21 UNL     1       2.725  28.252  20.711  1.00  0.00     0.000 C 
HETATM   31  C22 UNL     1       4.075  28.829  21.146  1.00  0.00     0.001 C 
HETATM   32  C23 UNL     1       5.092  28.303  20.153  1.00  0.00     0.011 C 
ENDBRANCH  23  27
ENDBRANCH   5  21
TORSDOF 10
ENDMDL
MODEL 2
REMARK VINA RESULT: -7.805281212      1.429      1.482
REMARK  10 active torsions:
REMARK  status: ('A' for Active; 'I' for Inactive)
REMARK    1  A    between atoms: C2_2  and  C3_3 
REMARK    2  A    between atoms: C4_4  and  C5_5 
REMARK    3  A    between atoms: C5_5  and  O1_6 
REMARK    4  A    between atoms: N1_10  and  C9_11 
REMARK    5  A    between atoms: C9_11  and  C10_12 
REMARK    6  A    between atoms: C10_12  and  C11_13 
REMARK    7  A    between atoms: C11_13  and  C12_14 
REMARK    8  A    between atoms: C12_14  and  O2_15 
REMARK    9  A    between atoms: N2_20  and  C16_21 
REMARK   10  A    between atoms: C17_24  and  C18_25 
ROOT
HETATM    1  C3  UNL     1       6.405  23.037  15.918  1.00  0.00     0.027 A 
HETATM    2  C4  UNL     1       6.239  21.702  15.622  1.00  0.00     0.002 A 
HETATM    3  C14 UNL     1       6.301  21.071  16.854  1.00  0.00     0.030 A 
HETATM    4  C15 UNL     1       6.497  22.013  17.832  1.00  0.00     0.100 A 
HETATM    5  N2  UNL     1       6.559  23.201  17.260  1.00  0.00    -0.306 N 
ENDROOT
BRANCH   2   6
HETATM    6  C5  UNL     1       6.004  21.005  14.363  1.00  0.00     0.117 C 
HETATM    7  C7  UNL     1       5.550  21.830  13.196  1.00  0.00     0.075 C 
HETATM    8  C8  UNL     1       6.038  20.995  11.996  1.00  0.00     0.276 C 
HETATM    9  N1  UNL     1       7.191  20.305  12.437  1.00  0.00     0.091 N 
HETATM   10  C13 UNL     1       7.326  20.490  13.840  1.00  0.00     0.315 C 
BRANCH   6  11
HETATM   11  O1  UNL     1       5.129  19.946  14.467  1.00  0.00    -0.378 OA
HETATM   12  C6  UNL     1       3.800  20.217  14.488  1.00  0.00     0.203 C 
ENDBRANCH   6  11
BRANCH   9  13
HETATM   13  C9  UNL     1       7.301  18.929  12.089  1.00  0.00     0.272 C 
BRANCH  13  14
HETATM   14  C10 UNL     1       8.661  18.568  11.523  1.00  0.00     0.032 C 
BRANCH  14  15
HETATM   15  C11 UNL     1       8.963  19.333  10.262  1.00  0.00     0.028 C 
BRANCH  15  16
HETATM   16  C12 UNL     1      10.318  20.000  10.375  1.00  0.00     0.164 C 
BRANCH  16  17
HETATM   17  O2  UNL     1      10.558  20.706   9.193  1.00  0.00    -0.401 OA
ATOM     18  H2  UNL     1      11.407  20.442   8.856  1.00  0.00     0.209 HD
ENDBRANCH  16  17
ENDBRANCH  15  16
ENDBRANCH  14  15
ENDBRANCH  13  14
ENDBRANCH   9  13
ENDBRANCH   2   6
BRANCH   1  19
HETATM   19  C2  UNL     1       6.440  24.121  14.944  1.00  0.00     0.054 C 
HETATM   20  C1  UNL     1       7.824  24.345  14.336  1.00  0.00     0.011 C 
ENDBRANCH   1  19
BRANCH   5  21
HETATM   21  C16 UNL     1       6.750  24.429  17.967  1.00  0.00     0.155 A 
HETATM   22  N3  UNL     1       5.931  25.035  18.808  1.00  0.00    -0.339 N 
HETATM   23  C17 UNL     1       6.276  26.159  19.370  1.00  0.00     0.022 A 
ATOM     24  H3  UNL     1       5.024  24.621  19.019  1.00  0.00     0.168 HD
HETATM   25  C24 UNL     1       7.515  26.663  19.041  1.00  0.00     0.078 A 
HETATM   26  S1  UNL     1       8.092  25.487  17.951  1.00  0.00    -0.063 SA
BRANCH  23  27
HETATM   27  C18 UNL     1       5.331  26.865  20.337  1.00  0.00     0.036 C 
HETATM   28  C19 UNL     1       3.984  26.241  20.206  1.00  0.00     0.011 C 
HETATM   29  C20 UNL     1       2.904  27.011  20.900  1.00  0.00     0.001 C 
HETATM   30  C21 UNL     1       2.952  28.465  20.556  1.00  0.00     0.000 C 
HETATM   31  C22 UNL     1       4.333  28.991  20.957  1.00  0.00     0.001 C 
HETATM   32  C23 UNL     1       5.315  28.361  19.989  1.00  0.00     0.011 C 
ENDBRANCH  23  27
ENDBRANCH   5  21
TORSDOF 10
ENDMDL
MODEL 3
REMARK VINA RESULT: -7.727441629      1.940      3.217
REMARK  10 active torsions:
REMARK  status: ('A' for Active; 'I' for Inactive)
REMARK    1  A    between atoms: C2_2  and  C3_3 
REMARK    2  A    between atoms: C4_4  and  C5_5 
REMARK    3  A    between atoms: C5_5  and  O1_6 
REMARK    4  A    between atoms: N1_10  and  C9_11 
REMARK    5  A    between atoms: C9_11  and  C10_12 
REMARK    6  A    between atoms: C10_12  and  C11_13 
REMARK    7  A    between atoms: C11_13  and  C12_14 
REMARK    8  A    between atoms: C12_14  and  O2_15 
REMARK    9  A    between atoms: N2_20  and  C16_21 
REMARK   10  A    between atoms: C17_24  and  C18_25 
ROOT
HETATM    1  C3  UNL     1       6.758  22.375  14.068  1.00  0.00     0.027 A 
HETATM    2  C4  UNL     1       6.625  22.682  12.732  1.00  0.00     0.002 A 
HETATM    3  C14 UNL     1       6.452  24.057  12.715  1.00  0.00     0.030 A 
HETATM    4  C15 UNL     1       6.483  24.530  14.002  1.00  0.00     0.100 A 
HETATM    5  N2  UNL     1       6.669  23.507  14.817  1.00  0.00    -0.306 N 
ENDROOT
BRANCH   2   6
HETATM    6  C5  UNL     1       6.679  21.855  11.532  1.00  0.00     0.117 C 
HETATM    7  C7  UNL     1       6.499  22.545  10.214  1.00  0.00     0.075 C 
HETATM    8  C8  UNL     1       7.244  21.604   9.247  1.00  0.00     0.276 C 
HETATM    9  N1  UNL     1       8.269  20.990  10.004  1.00  0.00     0.091 N 
HETATM   10  C13 UNL     1       8.085  21.320  11.375  1.00  0.00     0.315 C 
BRANCH   6  11
HETATM   11  O1  UNL     1       5.804  20.792  11.549  1.00  0.00    -0.378 OA
HETATM   12  C6  UNL     1       4.486  21.048  11.350  1.00  0.00     0.203 C 
ENDBRANCH   6  11
BRANCH   9  13
HETATM   13  C9  UNL     1       8.454  19.589   9.836  1.00  0.00     0.272 C 
BRANCH  13  14
HETATM   14  C10 UNL     1       9.554  19.027  10.716  1.00  0.00     0.032 C 
BRANCH  14  15
HETATM   15  C11 UNL     1       9.131  17.751  11.395  1.00  0.00     0.028 C 
BRANCH  15  16
HETATM   16  C12 UNL     1      10.256  17.232  12.265  1.00  0.00     0.164 C 
BRANCH  16  17
HETATM   17  O2  UNL     1       9.837  16.038  12.857  1.00  0.00    -0.401 OA
ATOM     18  H2  UNL     1       9.204  15.626  12.281  1.00  0.00     0.209 HD
ENDBRANCH  16  17
ENDBRANCH  15  16
ENDBRANCH  14  15
ENDBRANCH  13  14
ENDBRANCH   9  13
ENDBRANCH   2   6
BRANCH   1  19
HETATM   19  C2  UNL     1       6.940  21.036  14.614  1.00  0.00     0.054 C 
HETATM   20  C1  UNL     1       5.626  20.281  14.817  1.00  0.00     0.011 C 
ENDBRANCH   1  19
BRANCH   5  21
HETATM   21  C16 UNL     1       6.762  23.615  16.240  1.00  0.00     0.155 A 
HETATM   22  N3  UNL     1       7.025  24.682  16.973  1.00  0.00    -0.339 N 
HETATM   23  C17 UNL     1       7.065  24.596  18.273  1.00  0.00     0.022 A 
ATOM     24  H3  UNL     1       7.198  25.578  16.519  1.00  0.00     0.168 HD
HETATM   25  C24 UNL     1       6.823  23.355  18.820  1.00  0.00     0.078 A 
HETATM   26  S1  UNL     1       6.555  22.406  17.430  1.00  0.00    -0.063 SA
BRANCH  23  27
HETATM   27  C18 UNL     1       7.376  25.824  19.122  1.00  0.00     0.036 C 
HETATM   28  C19 UNL     1       6.091  26.518  19.420  1.00  0.00     0.011 C 
HETATM   29  C20 UNL     1       6.276  27.877  20.018  1.00  0.00     0.001 C 
HETATM   30  C21 UNL     1       7.259  28.695  19.242  1.00  0.00     0.000 C 
HETATM   31  C22 UNL     1       8.585  27.928  19.222  1.00  0.00     0.001 C 
HETATM   32  C23 UNL     1       8.352  26.717  18.340  1.00  0.00     0.011 C 
ENDBRANCH  23  27
ENDBRANCH   5  21
TORSDOF 10
ENDMDL
MODEL 4
REMARK VINA RESULT: -7.711495675      2.138      3.274
REMARK  10 active torsions:
REMARK  status: ('A' for Active; 'I' for Inactive)
REMARK    1  A    between atoms: C2_2  and  C3_3 
REMARK    2  A    between atoms: C4_4  and  C5_5 
REMARK    3  A    between atoms: C5_5  and  O1_6 
REMARK    4  A    between atoms: N1_10  and  C9_11 
REMARK    5  A    between atoms: C9_11  and  C10_12 
REMARK    6  A    between atoms: C10_12  and  C11_13 
REMARK    7  A    between atoms: C11_13  and  C12_14 
REMARK    8  A    between atoms: C12_14  and  O2_15 
REMARK    9  A    between atoms: N2_20  and  C16_21 
REMARK   10  A    between atoms: C17_24  and  C18_25 
ROOT
HETATM    1  C3  UNL     1       6.443  23.294  15.510  1.00  0.00     0.027 A 
HETATM    2  C4  UNL     1       6.239  22.006  15.068  1.00  0.00     0.002 A 
HETATM    3  C14 UNL     1       6.178  21.254  16.231  1.00  0.00     0.030 A 
HETATM    4  C15 UNL     1       6.341  22.083  17.311  1.00  0.00     0.100 A 
HETATM    5  N2  UNL     1       6.501  23.317  16.869  1.00  0.00    -0.306 N 
ENDROOT
BRANCH   2   6
HETATM    6  C5  UNL     1       6.070  21.451  13.731  1.00  0.00     0.117 C 
HETATM    7  C7  UNL     1       4.910  20.526  13.513  1.00  0.00     0.075 C 
HETATM    8  C8  UNL     1       4.646  20.681  12.003  1.00  0.00     0.276 C 
HETATM    9  N1  UNL     1       5.047  21.995  11.664  1.00  0.00     0.091 N 
HETATM   10  C13 UNL     1       5.711  22.572  12.782  1.00  0.00     0.315 C 
BRANCH   6  11
HETATM   11  O1  UNL     1       7.188  20.808  13.249  1.00  0.00    -0.378 OA
HETATM   12  C6  UNL     1       7.224  19.453  13.317  1.00  0.00     0.203 C 
ENDBRANCH   6  11
BRANCH   9  13
HETATM   13  C9  UNL     1       5.812  22.157  10.475  1.00  0.00     0.272 C 
BRANCH  13  14
HETATM   14  C10 UNL     1       6.626  23.437  10.465  1.00  0.00     0.032 C 
BRANCH  14  15
HETATM   15  C11 UNL     1       6.786  23.987   9.072  1.00  0.00     0.028 C 
BRANCH  15  16
HETATM   16  C12 UNL     1       6.487  22.907   8.054  1.00  0.00     0.164 C 
BRANCH  16  17
HETATM   17  O2  UNL     1       6.855  23.381   6.791  1.00  0.00    -0.401 OA
ATOM     18  H2  UNL     1       6.100  23.806   6.401  1.00  0.00     0.209 HD
ENDBRANCH  16  17
ENDBRANCH  15  16
ENDBRANCH  14  15
ENDBRANCH  13  14
ENDBRANCH   9  13
ENDBRANCH   2   6
BRANCH   1  19
HETATM   19  C2  UNL     1       6.602  24.467  14.658  1.00  0.00     0.054 C 
HETATM   20  C1  UNL     1       8.035  24.664  14.160  1.00  0.00     0.011 C 
ENDBRANCH   1  19
BRANCH   5  21
HETATM   21  C16 UNL     1       6.694  24.457  17.710  1.00  0.00     0.155 A 
HETATM   22  N3  UNL     1       5.870  24.974  18.605  1.00  0.00    -0.339 N 
HETATM   23  C17 UNL     1       6.218  26.025  19.292  1.00  0.00     0.022 A 
ATOM     24  H3  UNL     1       4.957  24.548  18.758  1.00  0.00     0.168 HD
HETATM   25  C24 UNL     1       7.465  26.550  19.034  1.00  0.00     0.078 A 
HETATM   26  S1  UNL     1       8.045  25.497  17.827  1.00  0.00    -0.063 SA
BRANCH  23  27
HETATM   27  C18 UNL     1       5.266  26.629  20.320  1.00  0.00     0.036 C 
HETATM   28  C19 UNL     1       3.939  25.970  20.165  1.00  0.00     0.011 C 
HETATM   29  C20 UNL     1       2.846  26.652  20.929  1.00  0.00     0.001 C 
HETATM   30  C21 UNL     1       2.840  28.128  20.689  1.00  0.00     0.000 C 
HETATM   31  C22 UNL     1       4.211  28.670  21.105  1.00  0.00     0.001 C 
HETATM   32  C23 UNL     1       5.196  28.144  20.079  1.00  0.00     0.011 C 
ENDBRANCH  23  27
ENDBRANCH   5  21
TORSDOF 10
ENDMDL
MODEL 5
REMARK VINA RESULT: -7.691002634      1.878      3.102
REMARK  10 active torsions:
REMARK  status: ('A' for Active; 'I' for Inactive)
REMARK    1  A    between atoms: C2_2  and  C3_3 
REMARK    2  A    between atoms: C4_4  and  C5_5 
REMARK    3  A    between atoms: C5_5  and  O1_6 
REMARK    4  A    between atoms: N1_10  and  C9_11 
REMARK    5  A    between atoms: C9_11  and  C10_12 
REMARK    6  A    between atoms: C10_12  and  C11_13 
REMARK    7  A    between atoms: C11_13  and  C12_14 
REMARK    8  A    between atoms: C12_14  and  O2_15 
REMARK    9  A    between atoms: N2_20  and  C16_21 
REMARK   10  A    between atoms: C17_24  and  C18_25 
ROOT
HETATM    1  C3  UNL     1       6.416  23.281  15.910  1.00  0.00     0.027 A 
HETATM    2  C4  UNL     1       6.280  21.959  15.549  1.00  0.00     0.002 A 
HETATM    3  C14 UNL     1       6.397  21.267  16.744  1.00  0.00     0.030 A 
HETATM    4  C15 UNL     1       6.595  22.162  17.764  1.00  0.00     0.100 A 
HETATM    5  N2  UNL     1       6.604  23.380  17.254  1.00  0.00    -0.306 N 
ENDROOT
BRANCH   2   6
HETATM    6  C5  UNL     1       6.029  21.321  14.262  1.00  0.00     0.117 C 
HETATM    7  C7  UNL     1       6.839  20.105  13.929  1.00  0.00     0.075 C 
HETATM    8  C8  UNL     1       5.921  19.361  12.939  1.00  0.00     0.276 C 
HETATM    9  N1  UNL     1       4.595  19.700  13.298  1.00  0.00     0.091 N 
HETATM   10  C13 UNL     1       4.636  20.731  14.277  1.00  0.00     0.315 C 
BRANCH   6  11
HETATM   11  O1  UNL     1       6.132  22.177  13.188  1.00  0.00    -0.378 OA
HETATM   12  C6  UNL     1       7.244  22.098  12.415  1.00  0.00     0.203 C 
ENDBRANCH   6  11
BRANCH   9  13
HETATM   13  C9  UNL     1       3.699  20.032  12.244  1.00  0.00     0.272 C 
BRANCH  13  14
HETATM   14  C10 UNL     1       4.377  20.100  10.889  1.00  0.00     0.032 C 
BRANCH  14  15
HETATM   15  C11 UNL     1       4.256  21.467  10.270  1.00  0.00     0.028 C 
BRANCH  15  16
HETATM   16  C12 UNL     1       2.915  21.603   9.580  1.00  0.00     0.164 C 
BRANCH  16  17
HETATM   17  O2  UNL     1       2.277  22.740  10.083  1.00  0.00    -0.401 OA
ATOM     18  H2  UNL     1       2.553  23.490   9.569  1.00  0.00     0.209 HD
ENDBRANCH  16  17
ENDBRANCH  15  16
ENDBRANCH  14  15
ENDBRANCH  13  14
ENDBRANCH   9  13
ENDBRANCH   2   6
BRANCH   1  19
HETATM   19  C2  UNL     1       6.390  24.415  14.994  1.00  0.00     0.054 C 
HETATM   20  C1  UNL     1       7.781  24.866  14.549  1.00  0.00     0.011 C 
ENDBRANCH   1  19
BRANCH   5  21
HETATM   21  C16 UNL     1       6.780  24.575  18.019  1.00  0.00     0.155 A 
HETATM   22  N3  UNL     1       5.928  25.167  18.836  1.00  0.00    -0.339 N 
HETATM   23  C17 UNL     1       6.263  26.260  19.461  1.00  0.00     0.022 A 
ATOM     24  H3  UNL     1       5.001  24.766  18.979  1.00  0.00     0.168 HD
HETATM   25  C24 UNL     1       7.530  26.748  19.222  1.00  0.00     0.078 A 
HETATM   26  S1  UNL     1       8.143  25.601  18.121  1.00  0.00    -0.063 SA
BRANCH  23  27
HETATM   27  C18 UNL     1       5.279  26.950  20.400  1.00  0.00     0.036 C 
HETATM   28  C19 UNL     1       3.956  26.279  20.259  1.00  0.00     0.011 C 
HETATM   29  C20 UNL     1       2.840  27.024  20.922  1.00  0.00     0.001 C 
HETATM   30  C21 UNL     1       2.845  28.473  20.554  1.00  0.00     0.000 C 
HETATM   31  C22 UNL     1       4.201  29.051  20.967  1.00  0.00     0.001 C 
HETATM   32  C23 UNL     1       5.219  28.439  20.025  1.00  0.00     0.011 C 
ENDBRANCH  23  27
ENDBRANCH   5  21
TORSDOF 10
ENDMDL
