MODEL 1
REMARK VINA RESULT: -7.832644394      0.000      0.000
REMARK  8 active torsions:
REMARK  status: ('A' for Active; 'I' for Inactive)
REMARK    1  A    between atoms: N1_1  and  N2_4 
REMARK    2  A    between atoms: N2_4  and  C1_6 
REMARK    3  A    between atoms: N5_17  and  C5_18 
REMARK    4  A    between atoms: C5_18  and  C6_19 
REMARK    5  A    between atoms: C6_19  and  C7_20 
REMARK    6  A    between atoms: C7_20  and  C8_21 
REMARK    7  A    between atoms: C8_21  and  N6_22 
REMARK    8  A    between atoms: N6_22  and  N7_23 
ROOT
HETATM    1  C1  UNL     1      -1.120  -2.699   3.233  1.00  0.00     0.195 C 
HETATM    2  C2  UNL     1      -1.112  -2.174   4.528  1.00  0.00     0.295 C 
HETATM    3  O1  UNL     1      -1.906  -1.224   4.747  1.00  0.00    -0.264 OA
HETATM    4  N3  UNL     1      -0.352  -2.577   5.554  1.00  0.00    -0.272 N 
ATOM      5  H3  UNL     1      -0.292  -1.937   6.346  1.00  0.00     0.174 HD
HETATM    6  C3  UNL     1       0.348  -3.733   5.667  1.00  0.00     0.331 C 
HETATM    7  O2  UNL     1       0.997  -3.849   6.741  1.00  0.00    -0.246 OA
HETATM    8  N4  UNL     1       0.427  -4.746   4.788  1.00  0.00    -0.260 N 
ATOM      9  H4  UNL     1       0.911  -5.579   5.121  1.00  0.00     0.175 HD
HETATM   10  C4  UNL     1      -0.048  -4.815   3.520  1.00  0.00     0.332 C 
HETATM   11  O3  UNL     1       0.180  -5.882   2.895  1.00  0.00    -0.246 OA
HETATM   12  N5  UNL     1      -0.740  -3.915   2.799  1.00  0.00    -0.280 N 
ENDROOT
BRANCH  12  13
HETATM   13  C5  UNL     1      -1.100  -4.289   1.450  1.00  0.00     0.135 C 
BRANCH  13  14
HETATM   14  C6  UNL     1       0.040  -4.088   0.479  1.00  0.00     0.022 C 
BRANCH  14  15
HETATM   15  C7  UNL     1      -0.192  -4.916  -0.766  1.00  0.00     0.019 C 
BRANCH  15  16
HETATM   16  C8  UNL     1       0.340  -4.166  -1.942  1.00  0.00     0.134 C 
BRANCH  16  17
HETATM   17  N6  UNL     1      -0.269  -4.567  -3.192  1.00  0.00    -0.148 NA
BRANCH  17  18
HETATM   18  N7  UNL     1      -1.494  -3.979  -3.415  1.00  0.00    -0.348 N 
ATOM     19  H72 UNL     1      -1.988  -3.451  -2.696  1.00  0.00     0.172 HD
ATOM     20  H71 UNL     1      -1.846  -4.126  -4.362  1.00  0.00     0.172 HD
ENDBRANCH  17  18
ENDBRANCH  16  17
ENDBRANCH  15  16
ENDBRANCH  14  15
ENDBRANCH  13  14
ENDBRANCH  12  13
BRANCH   1  21
HETATM   21  N2  UNL     1      -1.542  -1.938   2.303  1.00  0.00    -0.287 N 
ATOM     22  H2  UNL     1      -1.457  -2.220   1.326  1.00  0.00     0.188 HD
BRANCH  21  23
HETATM   23  N1  UNL     1      -2.125  -0.715   2.638  1.00  0.00    -0.343 N 
ATOM     24  H12 UNL     1      -1.529   0.068   2.907  1.00  0.00     0.176 HD
ATOM     25  H11 UNL     1      -3.141  -0.624   2.608  1.00  0.00     0.176 HD
ENDBRANCH  21  23
ENDBRANCH   1  21
TORSDOF 8
ENDMDL
MODEL 2
REMARK VINA RESULT: -7.497208937      1.288      2.946
REMARK  8 active torsions:
REMARK  status: ('A' for Active; 'I' for Inactive)
REMARK    1  A    between atoms: N1_1  and  N2_4 
REMARK    2  A    between atoms: N2_4  and  C1_6 
REMARK    3  A    between atoms: N5_17  and  C5_18 
REMARK    4  A    between atoms: C5_18  and  C6_19 
REMARK    5  A    between atoms: C6_19  and  C7_20 
REMARK    6  A    between atoms: C7_20  and  C8_21 
REMARK    7  A    between atoms: C8_21  and  N6_22 
REMARK    8  A    between atoms: N6_22  and  N7_23 
ROOT
HETATM    1  C1  UNL     1      -0.080  -4.069   3.645  1.00  0.00     0.195 C 
HETATM    2  C2  UNL     1       0.013  -3.176   4.716  1.00  0.00     0.295 C 
HETATM    3  O1  UNL     1       0.910  -3.419   5.563  1.00  0.00    -0.264 OA
HETATM    4  N3  UNL     1      -0.748  -2.096   4.930  1.00  0.00    -0.272 N 
ATOM      5  H3  UNL     1      -0.712  -1.702   5.871  1.00  0.00     0.174 HD
HETATM    6  C3  UNL     1      -1.560  -1.462   4.049  1.00  0.00     0.331 C 
HETATM    7  O2  UNL     1      -2.179  -0.473   4.526  1.00  0.00    -0.246 OA
HETATM    8  N4  UNL     1      -1.776  -1.759   2.757  1.00  0.00    -0.260 N 
ATOM      9  H4  UNL     1      -2.333  -1.080   2.238  1.00  0.00     0.175 HD
HETATM   10  C4  UNL     1      -1.357  -2.834   2.046  1.00  0.00     0.332 C 
HETATM   11  O3  UNL     1      -1.717  -2.884   0.842  1.00  0.00    -0.246 OA
HETATM   12  N5  UNL     1      -0.601  -3.882   2.418  1.00  0.00    -0.280 N 
ENDROOT
BRANCH  12  13
HETATM   13  C5  UNL     1      -0.330  -4.887   1.414  1.00  0.00     0.135 C 
BRANCH  13  14
HETATM   14  C6  UNL     1       0.574  -4.371   0.320  1.00  0.00     0.022 C 
BRANCH  14  15
HETATM   15  C7  UNL     1       0.219  -5.030  -0.996  1.00  0.00     0.019 C 
BRANCH  15  16
HETATM   16  C8  UNL     1       0.102  -3.971  -2.042  1.00  0.00     0.134 C 
BRANCH  16  17
HETATM   17  N6  UNL     1      -0.172  -4.504  -3.359  1.00  0.00    -0.148 NA
BRANCH  17  18
HETATM   18  N7  UNL     1      -1.512  -4.499  -3.680  1.00  0.00    -0.348 N 
ATOM     19  H72 UNL     1      -2.110  -5.315  -3.554  1.00  0.00     0.172 HD
ATOM     20  H71 UNL     1      -1.834  -3.604  -4.051  1.00  0.00     0.172 HD
ENDBRANCH  17  18
ENDBRANCH  16  17
ENDBRANCH  15  16
ENDBRANCH  14  15
ENDBRANCH  13  14
ENDBRANCH  12  13
BRANCH   1  21
HETATM   21  N2  UNL     1       0.386  -5.240   3.825  1.00  0.00    -0.287 N 
ATOM     22  H2  UNL     1       1.134  -5.596   3.229  1.00  0.00     0.188 HD
BRANCH  21  23
HETATM   23  N1  UNL     1      -0.140  -6.031   4.848  1.00  0.00    -0.343 N 
ATOM     24  H12 UNL     1      -1.079  -5.840   5.197  1.00  0.00     0.176 HD
ATOM     25  H11 UNL     1       0.426  -6.788   5.230  1.00  0.00     0.176 HD
ENDBRANCH  21  23
ENDBRANCH   1  21
TORSDOF 8
ENDMDL
MODEL 3
REMARK VINA RESULT: -6.339750807      0.992      1.184
REMARK  8 active torsions:
REMARK  status: ('A' for Active; 'I' for Inactive)
REMARK    1  A    between atoms: N1_1  and  N2_4 
REMARK    2  A    between atoms: N2_4  and  C1_6 
REMARK    3  A    between atoms: N5_17  and  C5_18 
REMARK    4  A    between atoms: C5_18  and  C6_19 
REMARK    5  A    between atoms: C6_19  and  C7_20 
REMARK    6  A    between atoms: C7_20  and  C8_21 
REMARK    7  A    between atoms: C8_21  and  N6_22 
REMARK    8  A    between atoms: N6_22  and  N7_23 
ROOT
HETATM    1  C1  UNL     1      -1.306  -2.729   3.429  1.00  0.00     0.195 C 
HETATM    2  C2  UNL     1      -1.155  -2.145   4.689  1.00  0.00     0.295 C 
HETATM    3  O1  UNL     1      -1.926  -1.187   4.952  1.00  0.00    -0.264 OA
HETATM    4  N3  UNL     1      -0.280  -2.498   5.639  1.00  0.00    -0.272 N 
ATOM      5  H3  UNL     1      -0.135  -1.822   6.388  1.00  0.00     0.174 HD
HETATM    6  C3  UNL     1       0.436  -3.646   5.725  1.00  0.00     0.331 C 
HETATM    7  O2  UNL     1       1.204  -3.710   6.722  1.00  0.00    -0.246 OA
HETATM    8  N4  UNL     1       0.422  -4.698   4.891  1.00  0.00    -0.260 N 
ATOM      9  H4  UNL     1       0.947  -5.515   5.204  1.00  0.00     0.175 HD
HETATM   10  C4  UNL     1      -0.194  -4.828   3.689  1.00  0.00     0.332 C 
HETATM   11  O3  UNL     1      -0.031  -5.923   3.093  1.00  0.00    -0.246 OA
HETATM   12  N5  UNL     1      -0.969  -3.964   3.011  1.00  0.00    -0.280 N 
ENDROOT
BRANCH  12  13
HETATM   13  C5  UNL     1      -1.478  -4.401   1.731  1.00  0.00     0.135 C 
BRANCH  13  14
HETATM   14  C6  UNL     1      -0.555  -4.029   0.594  1.00  0.00     0.022 C 
BRANCH  14  15
HETATM   15  C7  UNL     1      -0.262  -5.250  -0.253  1.00  0.00     0.019 C 
BRANCH  15  16
HETATM   16  C8  UNL     1       0.102  -4.798  -1.628  1.00  0.00     0.134 C 
BRANCH  16  17
HETATM   17  N6  UNL     1       0.824  -3.544  -1.639  1.00  0.00    -0.148 NA
BRANCH  17  18
HETATM   18  N7  UNL     1       2.083  -3.636  -1.087  1.00  0.00    -0.348 N 
ATOM     19  H72 UNL     1       2.897  -3.934  -1.624  1.00  0.00     0.172 HD
ATOM     20  H71 UNL     1       2.110  -3.378  -0.100  1.00  0.00     0.172 HD
ENDBRANCH  17  18
ENDBRANCH  16  17
ENDBRANCH  15  16
ENDBRANCH  14  15
ENDBRANCH  13  14
ENDBRANCH  12  13
BRANCH   1  21
HETATM   21  N2  UNL     1      -1.837  -2.014   2.518  1.00  0.00    -0.287 N 
ATOM     22  H2  UNL     1      -2.185  -2.443   1.661  1.00  0.00     0.188 HD
BRANCH  21  23
HETATM   23  N1  UNL     1      -1.936  -0.635   2.710  1.00  0.00    -0.343 N 
ATOM     24  H12 UNL     1      -2.463  -0.275   3.506  1.00  0.00     0.176 HD
ATOM     25  H11 UNL     1      -1.479  -0.008   2.048  1.00  0.00     0.176 HD
ENDBRANCH  21  23
ENDBRANCH   1  21
TORSDOF 8
ENDMDL
MODEL 4
REMARK VINA RESULT: -5.322543657      1.560      3.155
REMARK  8 active torsions:
REMARK  status: ('A' for Active; 'I' for Inactive)
REMARK    1  A    between atoms: N1_1  and  N2_4 
REMARK    2  A    between atoms: N2_4  and  C1_6 
REMARK    3  A    between atoms: N5_17  and  C5_18 
REMARK    4  A    between atoms: C5_18  and  C6_19 
REMARK    5  A    between atoms: C6_19  and  C7_20 
REMARK    6  A    between atoms: C7_20  and  C8_21 
REMARK    7  A    between atoms: C8_21  and  N6_22 
REMARK    8  A    between atoms: N6_22  and  N7_23 
ROOT
HETATM    1  C1  UNL     1      -0.042  -4.036   3.914  1.00  0.00     0.195 C 
HETATM    2  C2  UNL     1      -0.104  -3.160   5.000  1.00  0.00     0.295 C 
HETATM    3  O1  UNL     1       0.703  -3.381   5.938  1.00  0.00    -0.264 OA
HETATM    4  N3  UNL     1      -0.930  -2.116   5.145  1.00  0.00    -0.272 N 
ATOM      5  H3  UNL     1      -1.015  -1.738   6.088  1.00  0.00     0.174 HD
HETATM    6  C3  UNL     1      -1.668  -1.500   4.187  1.00  0.00     0.331 C 
HETATM    7  O2  UNL     1      -2.377  -0.546   4.606  1.00  0.00    -0.246 OA
HETATM    8  N4  UNL     1      -1.727  -1.782   2.876  1.00  0.00    -0.260 N 
ATOM      9  H4  UNL     1      -2.253  -1.117   2.308  1.00  0.00     0.175 HD
HETATM   10  C4  UNL     1      -1.187  -2.826   2.201  1.00  0.00     0.332 C 
HETATM   11  O3  UNL     1      -1.411  -2.869   0.964  1.00  0.00    -0.246 OA
HETATM   12  N5  UNL     1      -0.432  -3.849   2.639  1.00  0.00    -0.280 N 
ENDROOT
BRANCH  12  13
HETATM   13  C5  UNL     1      -0.011  -4.823   1.659  1.00  0.00     0.135 C 
BRANCH  13  14
HETATM   14  C6  UNL     1      -0.766  -4.686   0.357  1.00  0.00     0.022 C 
BRANCH  14  15
HETATM   15  C7  UNL     1      -0.029  -5.416  -0.746  1.00  0.00     0.019 C 
BRANCH  15  16
HETATM   16  C8  UNL     1       0.070  -4.512  -1.930  1.00  0.00     0.134 C 
BRANCH  16  17
HETATM   17  N6  UNL     1       0.895  -3.349  -1.687  1.00  0.00    -0.148 NA
BRANCH  17  18
HETATM   18  N7  UNL     1       2.073  -3.644  -1.034  1.00  0.00    -0.348 N 
ATOM     19  H72 UNL     1       2.667  -4.427  -1.304  1.00  0.00     0.172 HD
ATOM     20  H71 UNL     1       2.280  -3.003  -0.268  1.00  0.00     0.172 HD
ENDBRANCH  17  18
ENDBRANCH  16  17
ENDBRANCH  15  16
ENDBRANCH  14  15
ENDBRANCH  13  14
ENDBRANCH  12  13
BRANCH   1  21
HETATM   21  N2  UNL     1       0.452  -5.190   4.128  1.00  0.00    -0.287 N 
ATOM     22  H2  UNL     1       1.303  -5.485   3.651  1.00  0.00     0.188 HD
BRANCH  21  23
HETATM   23  N1  UNL     1      -0.189  -6.047   5.025  1.00  0.00    -0.343 N 
ATOM     24  H12 UNL     1       0.305  -6.866   5.378  1.00  0.00     0.176 HD
ATOM     25  H11 UNL     1      -1.146  -5.838   5.313  1.00  0.00     0.176 HD
ENDBRANCH  21  23
ENDBRANCH   1  21
TORSDOF 8
ENDMDL
MODEL 5
REMARK VINA RESULT: -5.240847611      0.977      1.138
REMARK  8 active torsions:
REMARK  status: ('A' for Active; 'I' for Inactive)
REMARK    1  A    between atoms: N1_1  and  N2_4 
REMARK    2  A    between atoms: N2_4  and  C1_6 
REMARK    3  A    between atoms: N5_17  and  C5_18 
REMARK    4  A    between atoms: C5_18  and  C6_19 
REMARK    5  A    between atoms: C6_19  and  C7_20 
REMARK    6  A    between atoms: C7_20  and  C8_21 
REMARK    7  A    between atoms: C8_21  and  N6_22 
REMARK    8  A    between atoms: N6_22  and  N7_23 
ROOT
HETATM    1  C1  UNL     1      -1.125  -3.050   2.466  1.00  0.00     0.195 C 
HETATM    2  C2  UNL     1      -1.489  -2.389   3.641  1.00  0.00     0.295 C 
HETATM    3  O1  UNL     1      -2.413  -1.542   3.539  1.00  0.00    -0.264 OA
HETATM    4  N3  UNL     1      -0.961  -2.565   4.859  1.00  0.00    -0.272 N 
ATOM      5  H3  UNL     1      -1.166  -1.839   5.546  1.00  0.00     0.174 HD
HETATM    6  C3  UNL     1      -0.186  -3.592   5.290  1.00  0.00     0.331 C 
HETATM    7  O2  UNL     1       0.191  -3.495   6.488  1.00  0.00    -0.246 OA
HETATM    8  N4  UNL     1       0.215  -4.674   4.603  1.00  0.00    -0.260 N 
ATOM      9  H4  UNL     1       0.693  -5.389   5.151  1.00  0.00     0.175 HD
HETATM   10  C4  UNL     1       0.072  -4.949   3.283  1.00  0.00     0.332 C 
HETATM   11  O3  UNL     1       0.561  -6.037   2.883  1.00  0.00    -0.246 OA
HETATM   12  N5  UNL     1      -0.519  -4.241   2.305  1.00  0.00    -0.280 N 
ENDROOT
BRANCH  12  13
HETATM   13  C5  UNL     1      -0.497  -4.809   0.976  1.00  0.00     0.135 C 
BRANCH  13  14
HETATM   14  C6  UNL     1       0.873  -4.730   0.344  1.00  0.00     0.022 C 
BRANCH  14  15
HETATM   15  C7  UNL     1       0.792  -3.988  -0.973  1.00  0.00     0.019 C 
BRANCH  15  16
HETATM   16  C8  UNL     1      -0.075  -4.769  -1.905  1.00  0.00     0.134 C 
BRANCH  16  17
HETATM   17  N6  UNL     1      -0.444  -4.026  -3.091  1.00  0.00    -0.148 NA
BRANCH  17  18
HETATM   18  N7  UNL     1      -1.448  -4.627  -3.819  1.00  0.00    -0.348 N 
ATOM     19  H72 UNL     1      -1.373  -5.580  -4.173  1.00  0.00     0.172 HD
ATOM     20  H71 UNL     1      -2.259  -4.024  -3.961  1.00  0.00     0.172 HD
ENDBRANCH  17  18
ENDBRANCH  16  17
ENDBRANCH  15  16
ENDBRANCH  14  15
ENDBRANCH  13  14
ENDBRANCH  12  13
BRANCH   1  21
HETATM   21  N2  UNL     1      -1.390  -2.464   1.366  1.00  0.00    -0.287 N 
ATOM     22  H2  UNL     1      -0.990  -1.549   1.158  1.00  0.00     0.188 HD
BRANCH  21  23
HETATM   23  N1  UNL     1      -2.235  -3.092   0.450  1.00  0.00    -0.343 N 
ATOM     24  H12 UNL     1      -3.234  -3.151   0.646  1.00  0.00     0.176 HD
ATOM     25  H11 UNL     1      -1.837  -3.483  -0.405  1.00  0.00     0.176 HD
ENDBRANCH  21  23
ENDBRANCH   1  21
TORSDOF 8
ENDMDL
