MODEL 1
REMARK VINA RESULT: -7.946675501      0.000      0.000
REMARK  7 active torsions:
REMARK  status: ('A' for Active; 'I' for Inactive)
REMARK    1  A    between atoms: C1_4  and  O1_6 
REMARK    2  A    between atoms: O1_6  and  N3_7 
REMARK       I    between atoms: C2_9  and  N5_11 
REMARK    3  A    between atoms: N5_11  and  N6_13 
REMARK    4  A    between atoms: N6_13  and  N7_15 
REMARK    5  A    between atoms: C3_17  and  C4_18 
REMARK    6  A    between atoms: C3_17  and  C5_22 
REMARK    7  A    between atoms: C4_18  and  N8_19 
ROOT
HETATM    1  N3  UNL     1      -1.109  -3.863  -3.103  1.00  0.00    -0.228 N 
ATOM      2  H3  UNL     1      -1.390  -2.884  -3.126  1.00  0.00     0.197 HD
HETATM    3  C2  UNL     1      -0.596  -4.385  -2.038  1.00  0.00     0.228 C 
HETATM    4  N4  UNL     1      -0.197  -5.747  -1.988  1.00  0.00    -0.060 NA
HETATM    5  N5  UNL     1      -0.413  -3.605  -0.873  1.00  0.00    -0.257 N 
ATOM      6  H5  UNL     1       0.095  -2.724  -0.951  1.00  0.00     0.191 HD
ENDROOT
BRANCH   5   7
HETATM    7  N6  UNL     1      -0.894  -3.986   0.374  1.00  0.00    -0.240 N 
ATOM      8  H6  UNL     1      -1.071  -4.966   0.595  1.00  0.00     0.208 HD
BRANCH   7   9
HETATM    9  N7  UNL     1      -1.124  -2.979   1.310  1.00  0.00    -0.283 N 
HETATM   10  C3  UNL     1      -1.418  -3.290   2.519  1.00  0.00     0.115 C 
ATOM     11  H7  UNL     1      -1.059  -1.999   1.034  1.00  0.00     0.188 HD
BRANCH  10  12
HETATM   12  C4  UNL     1      -1.503  -4.722   2.885  1.00  0.00     0.265 C 
BRANCH  12  13
HETATM   13  N8  UNL     1      -0.269  -5.206   3.477  1.00  0.00    -0.150 N 
HETATM   14  O2  UNL     1      -0.282  -5.856   4.528  1.00  0.00    -0.536 OA
HETATM   15  O3  UNL     1       0.894  -4.922   2.836  1.00  0.00    -0.536 OA
ENDBRANCH  12  13
ENDBRANCH  10  12
BRANCH  10  16
HETATM   16  C5  UNL     1      -1.659  -2.252   3.493  1.00  0.00     0.280 C 
HETATM   17  N9  UNL     1      -2.452  -1.112   3.239  1.00  0.00    -0.056 NA
HETATM   18  O4  UNL     1      -1.141  -2.352   4.633  1.00  0.00    -0.270 OA
ENDBRANCH  10  16
ENDBRANCH   7   9
ENDBRANCH   5   7
BRANCH   1  19
HETATM   19  O1  UNL     1      -1.264  -4.674  -4.211  1.00  0.00    -0.202 OA
BRANCH  19  20
HETATM   20  C1  UNL     1      -2.467  -4.659  -4.923  1.00  0.00     0.249 C 
HETATM   21  N1  UNL     1      -3.544  -4.612  -4.232  1.00  0.00    -0.366 N 
ATOM     22  H12 UNL     1      -4.422  -4.601  -4.752  1.00  0.00     0.159 HD
ATOM     23  H11 UNL     1      -3.534  -4.587  -3.212  1.00  0.00     0.159 HD
HETATM   24  N2  UNL     1      -2.481  -4.693  -6.356  1.00  0.00    -0.055 NA
ENDBRANCH  19  20
ENDBRANCH   1  19
TORSDOF 7
ENDMDL
MODEL 2
REMARK VINA RESULT: -7.555863940      0.858      1.154
REMARK  7 active torsions:
REMARK  status: ('A' for Active; 'I' for Inactive)
REMARK    1  A    between atoms: C1_4  and  O1_6 
REMARK    2  A    between atoms: O1_6  and  N3_7 
REMARK       I    between atoms: C2_9  and  N5_11 
REMARK    3  A    between atoms: N5_11  and  N6_13 
REMARK    4  A    between atoms: N6_13  and  N7_15 
REMARK    5  A    between atoms: C3_17  and  C4_18 
REMARK    6  A    between atoms: C3_17  and  C5_22 
REMARK    7  A    between atoms: C4_18  and  N8_19 
ROOT
HETATM    1  N3  UNL     1      -0.985  -3.751  -2.723  1.00  0.00    -0.228 N 
ATOM      2  H3  UNL     1      -1.265  -2.773  -2.653  1.00  0.00     0.197 HD
HETATM    3  C2  UNL     1      -0.488  -4.375  -1.706  1.00  0.00     0.228 C 
HETATM    4  N4  UNL     1      -0.091  -5.737  -1.783  1.00  0.00    -0.060 NA
HETATM    5  N5  UNL     1      -0.322  -3.714  -0.467  1.00  0.00    -0.257 N 
ATOM      6  H5  UNL     1       0.187  -2.830  -0.451  1.00  0.00     0.191 HD
ENDROOT
BRANCH   5   7
HETATM    7  N6  UNL     1      -0.822  -4.214   0.729  1.00  0.00    -0.240 N 
ATOM      8  H6  UNL     1      -0.744  -5.203   0.962  1.00  0.00     0.208 HD
BRANCH   7   9
HETATM    9  N7  UNL     1      -1.435  -3.312   1.598  1.00  0.00    -0.283 N 
HETATM   10  C3  UNL     1      -0.895  -3.056   2.732  1.00  0.00     0.115 C 
ATOM     11  H7  UNL     1      -2.308  -2.857   1.332  1.00  0.00     0.188 HD
BRANCH  10  12
HETATM   12  C4  UNL     1       0.373  -3.733   3.086  1.00  0.00     0.265 C 
BRANCH  12  13
HETATM   13  N8  UNL     1       0.146  -5.032   3.691  1.00  0.00    -0.150 N 
HETATM   14  O2  UNL     1       0.256  -6.069   3.028  1.00  0.00    -0.536 OA
HETATM   15  O3  UNL     1      -0.190  -5.068   5.007  1.00  0.00    -0.536 OA
ENDBRANCH  12  13
ENDBRANCH  10  12
BRANCH  10  16
HETATM   16  C5  UNL     1      -1.525  -2.123   3.637  1.00  0.00     0.280 C 
HETATM   17  N9  UNL     1      -2.512  -1.196   3.240  1.00  0.00    -0.056 NA
HETATM   18  O4  UNL     1      -1.187  -2.123   4.847  1.00  0.00    -0.270 OA
ENDBRANCH  10  16
ENDBRANCH   7   9
ENDBRANCH   5   7
BRANCH   1  19
HETATM   19  O1  UNL     1      -1.124  -4.449  -3.906  1.00  0.00    -0.202 OA
BRANCH  19  20
HETATM   20  C1  UNL     1      -2.397  -4.814  -4.356  1.00  0.00     0.249 C 
HETATM   21  N1  UNL     1      -2.557  -6.036  -4.702  1.00  0.00    -0.366 N 
ATOM     22  H12 UNL     1      -3.486  -6.302  -5.030  1.00  0.00     0.159 HD
ATOM     23  H11 UNL     1      -1.798  -6.717  -4.656  1.00  0.00     0.159 HD
HETATM   24  N2  UNL     1      -3.463  -3.858  -4.419  1.00  0.00    -0.055 NA
ENDBRANCH  19  20
ENDBRANCH   1  19
TORSDOF 7
ENDMDL
MODEL 3
REMARK VINA RESULT: -7.182896467      1.044      2.480
REMARK  7 active torsions:
REMARK  status: ('A' for Active; 'I' for Inactive)
REMARK    1  A    between atoms: C1_4  and  O1_6 
REMARK    2  A    between atoms: O1_6  and  N3_7 
REMARK       I    between atoms: C2_9  and  N5_11 
REMARK    3  A    between atoms: N5_11  and  N6_13 
REMARK    4  A    between atoms: N6_13  and  N7_15 
REMARK    5  A    between atoms: C3_17  and  C4_18 
REMARK    6  A    between atoms: C3_17  and  C5_22 
REMARK    7  A    between atoms: C4_18  and  N8_19 
ROOT
HETATM    1  N3  UNL     1      -1.089  -3.794  -3.091  1.00  0.00    -0.228 N 
ATOM      2  H3  UNL     1      -1.342  -2.806  -3.111  1.00  0.00     0.197 HD
HETATM    3  C2  UNL     1      -0.688  -4.357  -2.000  1.00  0.00     0.228 C 
HETATM    4  N4  UNL     1      -0.331  -5.731  -1.953  1.00  0.00    -0.060 NA
HETATM    5  N5  UNL     1      -0.592  -3.614  -0.800  1.00  0.00    -0.257 N 
ATOM      6  H5  UNL     1      -0.056  -2.746  -0.807  1.00  0.00     0.191 HD
ENDROOT
BRANCH   5   7
HETATM    7  N6  UNL     1      -1.193  -4.014   0.387  1.00  0.00    -0.240 N 
ATOM      8  H6  UNL     1      -2.204  -3.960   0.512  1.00  0.00     0.208 HD
BRANCH   7   9
HETATM    9  N7  UNL     1      -0.363  -4.493   1.399  1.00  0.00    -0.283 N 
HETATM   10  C3  UNL     1      -0.631  -4.219   2.623  1.00  0.00     0.115 C 
ATOM     11  H7  UNL     1       0.453  -5.058   1.167  1.00  0.00     0.188 HD
BRANCH  10  12
HETATM   12  C4  UNL     1      -1.825  -3.397   2.924  1.00  0.00     0.265 C 
BRANCH  12  13
HETATM   13  N8  UNL     1      -1.476  -2.017   3.211  1.00  0.00    -0.150 N 
HETATM   14  O2  UNL     1      -0.296  -1.649   3.216  1.00  0.00    -0.536 OA
HETATM   15  O3  UNL     1      -2.489  -1.150   3.470  1.00  0.00    -0.536 OA
ENDBRANCH  12  13
ENDBRANCH  10  12
BRANCH  10  16
HETATM   16  C5  UNL     1       0.225  -4.711   3.677  1.00  0.00     0.280 C 
HETATM   17  N9  UNL     1      -0.167  -4.783   5.031  1.00  0.00    -0.056 NA
HETATM   18  O4  UNL     1       1.385  -5.100   3.390  1.00  0.00    -0.270 OA
ENDBRANCH  10  16
ENDBRANCH   7   9
ENDBRANCH   5   7
BRANCH   1  19
HETATM   19  O1  UNL     1      -1.164  -4.571  -4.231  1.00  0.00    -0.202 OA
BRANCH  19  20
HETATM   20  C1  UNL     1      -2.366  -4.654  -4.940  1.00  0.00     0.249 C 
HETATM   21  N1  UNL     1      -3.443  -4.677  -4.247  1.00  0.00    -0.366 N 
ATOM     22  H12 UNL     1      -4.320  -4.738  -4.764  1.00  0.00     0.159 HD
ATOM     23  H11 UNL     1      -3.432  -4.638  -3.228  1.00  0.00     0.159 HD
HETATM   24  N2  UNL     1      -2.380  -4.709  -6.372  1.00  0.00    -0.055 NA
ENDBRANCH  19  20
ENDBRANCH   1  19
TORSDOF 7
ENDMDL
MODEL 4
REMARK VINA RESULT: -6.826303800      2.000      3.296
REMARK  7 active torsions:
REMARK  status: ('A' for Active; 'I' for Inactive)
REMARK    1  A    between atoms: C1_4  and  O1_6 
REMARK    2  A    between atoms: O1_6  and  N3_7 
REMARK       I    between atoms: C2_9  and  N5_11 
REMARK    3  A    between atoms: N5_11  and  N6_13 
REMARK    4  A    between atoms: N6_13  and  N7_15 
REMARK    5  A    between atoms: C3_17  and  C4_18 
REMARK    6  A    between atoms: C3_17  and  C5_22 
REMARK    7  A    between atoms: C4_18  and  N8_19 
ROOT
HETATM    1  N3  UNL     1      -0.901  -3.819  -0.862  1.00  0.00    -0.228 N 
ATOM      2  H3  UNL     1      -1.598  -3.125  -1.130  1.00  0.00     0.197 HD
HETATM    3  C2  UNL     1      -0.634  -4.050   0.381  1.00  0.00     0.228 C 
HETATM    4  N4  UNL     1       0.334  -5.012   0.774  1.00  0.00    -0.060 NA
HETATM    5  N5  UNL     1      -1.307  -3.342   1.404  1.00  0.00    -0.257 N 
ATOM      6  H5  UNL     1      -1.314  -2.323   1.368  1.00  0.00     0.191 HD
ENDROOT
BRANCH   5   7
HETATM    7  N6  UNL     1      -1.959  -3.974   2.456  1.00  0.00    -0.240 N 
ATOM      8  H6  UNL     1      -2.974  -4.066   2.471  1.00  0.00     0.208 HD
BRANCH   7   9
HETATM    9  N7  UNL     1      -1.172  -4.478   3.491  1.00  0.00    -0.283 N 
HETATM   10  C3  UNL     1      -0.829  -3.712   4.460  1.00  0.00     0.115 C 
ATOM     11  H7  UNL     1      -0.870  -5.452   3.477  1.00  0.00     0.188 HD
BRANCH  10  12
HETATM   12  C4  UNL     1      -1.286  -2.303   4.450  1.00  0.00     0.265 C 
BRANCH  12  13
HETATM   13  N8  UNL     1      -0.341  -1.430   3.777  1.00  0.00    -0.150 N 
HETATM   14  O2  UNL     1      -0.483  -0.202   3.802  1.00  0.00    -0.536 OA
HETATM   15  O3  UNL     1       0.700  -2.009   3.123  1.00  0.00    -0.536 OA
ENDBRANCH  12  13
ENDBRANCH  10  12
BRANCH  10  16
HETATM   16  C5  UNL     1      -0.013  -4.227   5.535  1.00  0.00     0.280 C 
HETATM   17  N9  UNL     1       0.600  -3.410   6.509  1.00  0.00    -0.056 NA
HETATM   18  O4  UNL     1       0.173  -5.466   5.620  1.00  0.00    -0.270 OA
ENDBRANCH  10  16
ENDBRANCH   7   9
ENDBRANCH   5   7
BRANCH   1  19
HETATM   19  O1  UNL     1      -0.212  -4.542  -1.816  1.00  0.00    -0.202 OA
BRANCH  19  20
HETATM   20  C1  UNL     1      -0.280  -4.163  -3.161  1.00  0.00     0.249 C 
HETATM   21  N1  UNL     1       0.543  -3.261  -3.547  1.00  0.00    -0.366 N 
ATOM     22  H12 UNL     1       0.494  -2.984  -4.527  1.00  0.00     0.159 HD
ATOM     23  H11 UNL     1       1.218  -2.834  -2.911  1.00  0.00     0.159 HD
HETATM   24  N2  UNL     1      -1.227  -4.763  -4.054  1.00  0.00    -0.055 NA
ENDBRANCH  19  20
ENDBRANCH   1  19
TORSDOF 7
ENDMDL
MODEL 5
REMARK VINA RESULT: -6.784730350      1.958      3.079
REMARK  7 active torsions:
REMARK  status: ('A' for Active; 'I' for Inactive)
REMARK    1  A    between atoms: C1_4  and  O1_6 
REMARK    2  A    between atoms: O1_6  and  N3_7 
REMARK       I    between atoms: C2_9  and  N5_11 
REMARK    3  A    between atoms: N5_11  and  N6_13 
REMARK    4  A    between atoms: N6_13  and  N7_15 
REMARK    5  A    between atoms: C3_17  and  C4_18 
REMARK    6  A    between atoms: C3_17  and  C5_22 
REMARK    7  A    between atoms: C4_18  and  N8_19 
ROOT
HETATM    1  N3  UNL     1      -0.502  -5.326  -1.179  1.00  0.00    -0.228 N 
ATOM      2  H3  UNL     1      -1.267  -5.862  -0.769  1.00  0.00     0.197 HD
HETATM    3  C2  UNL     1       0.210  -4.524  -0.459  1.00  0.00     0.228 C 
HETATM    4  N4  UNL     1       1.278  -3.769  -1.012  1.00  0.00    -0.060 NA
HETATM    5  N5  UNL     1      -0.056  -4.369   0.921  1.00  0.00    -0.257 N 
ATOM      6  H5  UNL     1      -1.006  -4.139   1.212  1.00  0.00     0.191 HD
ENDROOT
BRANCH   5   7
HETATM    7  N6  UNL     1       0.920  -4.518   1.899  1.00  0.00    -0.240 N 
ATOM      8  H6  UNL     1       1.909  -4.399   1.681  1.00  0.00     0.208 HD
BRANCH   7   9
HETATM    9  N7  UNL     1       0.496  -4.835   3.189  1.00  0.00    -0.283 N 
HETATM   10  C3  UNL     1       0.316  -3.899   4.046  1.00  0.00     0.115 C 
ATOM     11  H7  UNL     1       0.330  -5.807   3.449  1.00  0.00     0.188 HD
BRANCH  10  12
HETATM   12  C4  UNL     1       0.566  -2.499   3.636  1.00  0.00     0.265 C 
BRANCH  12  13
HETATM   13  N8  UNL     1      -0.664  -1.797   3.317  1.00  0.00    -0.150 N 
HETATM   14  O2  UNL     1      -0.954  -0.736   3.882  1.00  0.00    -0.536 OA
HETATM   15  O3  UNL     1      -1.481  -2.346   2.380  1.00  0.00    -0.536 OA
ENDBRANCH  12  13
ENDBRANCH  10  12
BRANCH  10  16
HETATM   16  C5  UNL     1      -0.122  -4.220   5.385  1.00  0.00     0.280 C 
HETATM   17  N9  UNL     1      -0.141  -3.288   6.444  1.00  0.00    -0.056 NA
HETATM   18  O4  UNL     1      -0.510  -5.388   5.637  1.00  0.00    -0.270 OA
ENDBRANCH  10  16
ENDBRANCH   7   9
ENDBRANCH   5   7
BRANCH   1  19
HETATM   19  O1  UNL     1      -0.195  -5.436  -2.522  1.00  0.00    -0.202 OA
BRANCH  19  20
HETATM   20  C1  UNL     1      -0.751  -4.539  -3.440  1.00  0.00     0.249 C 
HETATM   21  N1  UNL     1      -0.302  -3.340  -3.416  1.00  0.00    -0.366 N 
ATOM     22  H12 UNL     1      -0.708  -2.685  -4.085  1.00  0.00     0.159 HD
ATOM     23  H11 UNL     1       0.424  -3.045  -2.762  1.00  0.00     0.159 HD
HETATM   24  N2  UNL     1      -1.771  -4.953  -4.358  1.00  0.00    -0.055 NA
ENDBRANCH  19  20
ENDBRANCH   1  19
TORSDOF 7
ENDMDL
