MODEL 1
REMARK VINA RESULT: -7.202058368      0.000      0.000
REMARK  9 active torsions:
REMARK  status: ('A' for Active; 'I' for Inactive)
REMARK    1  A    between atoms: N1_1  and  N2_4 
REMARK    2  A    between atoms: C1_6  and  C2_7 
REMARK    3  A    between atoms: C1_6  and  N9_26 
REMARK    4  A    between atoms: C2_7  and  C3_8 
REMARK    5  A    between atoms: C3_8  and  N3_9 
REMARK    6  A    between atoms: C5_11  and  C6_12 
REMARK    7  A    between atoms: C6_12  and  N4_13 
REMARK    8  A    between atoms: C6_12  and  N5_17 
REMARK       I    between atoms: N5_17  and  C7_19 
REMARK    9  A    between atoms: N9_26  and  N10_28 
ROOT
HETATM    1  N3  UNL     1      -0.215  -4.821   2.401  1.00  0.00    -0.287 N 
HETATM    2  C4  UNL     1       0.561  -4.691   1.299  1.00  0.00     0.142 A 
HETATM    3  C5  UNL     1      -0.232  -4.387   0.211  1.00  0.00     0.093 A 
HETATM    4  N7  UNL     1      -1.491  -4.343   0.700  1.00  0.00    -0.285 N 
ATOM      5  H7  UNL     1      -2.333  -4.141   0.161  1.00  0.00     0.188 HD
HETATM    6  N8  UNL     1      -1.446  -4.604   2.001  1.00  0.00    -0.241 N 
ATOM      7  H8  UNL     1      -2.263  -4.634   2.611  1.00  0.00     0.208 HD
ENDROOT
BRANCH   1   8
HETATM    8  C3  UNL     1       0.309  -5.137   3.700  1.00  0.00     0.157 C 
BRANCH   8   9
HETATM    9  C2  UNL     1      -0.617  -4.690   4.814  1.00  0.00     0.101 C 
BRANCH   9  10
HETATM   10  C1  UNL     1      -0.444  -3.238   4.977  1.00  0.00     0.111 C 
HETATM   11  N2  UNL     1      -1.316  -2.438   4.505  1.00  0.00    -0.294 N 
ATOM     12  H2  UNL     1      -2.111  -2.858   4.025  1.00  0.00     0.187 HD
BRANCH  11  13
HETATM   13  N1  UNL     1      -1.292  -1.063   4.578  1.00  0.00    -0.344 N 
ATOM     14  H12 UNL     1      -0.365  -0.637   4.583  1.00  0.00     0.176 HD
ATOM     15  H11 UNL     1      -2.101  -0.443   4.627  1.00  0.00     0.176 HD
ENDBRANCH  11  13
BRANCH  10  16
HETATM   16  N9  UNL     1       0.681  -2.739   5.655  1.00  0.00    -0.294 N 
ATOM     17  H9  UNL     1       1.269  -2.042   5.197  1.00  0.00     0.187 HD
BRANCH  16  18
HETATM   18  N10 UNL     1       1.010  -3.167   6.921  1.00  0.00    -0.344 N 
ATOM     19 2H10 UNL     1       0.321  -3.714   7.438  1.00  0.00     0.176 HD
ATOM     20 1H10 UNL     1       1.914  -2.950   7.341  1.00  0.00     0.176 HD
ENDBRANCH  16  18
ENDBRANCH  10  16
ENDBRANCH   9  10
ENDBRANCH   8   9
ENDBRANCH   1   8
BRANCH   3  21
HETATM   21  C6  UNL     1       0.246  -4.168  -1.177  1.00  0.00     0.338 C 
BRANCH  21  22
HETATM   22  N4  UNL     1       1.552  -4.828  -1.299  1.00  0.00    -0.052 N 
ATOM     23  H43 UNL     1       1.578  -5.746  -0.853  1.00  0.00     0.277 HD
ATOM     24  H42 UNL     1       1.755  -5.137  -2.249  1.00  0.00     0.277 HD
ATOM     25  H41 UNL     1       2.254  -4.186  -0.930  1.00  0.00     0.277 HD
ENDBRANCH  21  22
BRANCH  21  26
HETATM   26  N5  UNL     1      -0.613  -4.767  -2.155  1.00  0.00    -0.312 N 
HETATM   27  C7  UNL     1      -0.709  -4.208  -3.445  1.00  0.00     0.330 C 
HETATM   28  N6  UNL     1      -1.557  -4.791  -4.431  1.00  0.00    -0.040 NA
HETATM   29  O1  UNL     1      -0.047  -3.182  -3.757  1.00  0.00    -0.251 OA
ATOM     30  H5  UNL     1      -1.154  -5.599  -1.918  1.00  0.00     0.166 HD
ENDBRANCH  21  26
ENDBRANCH   3  21
TORSDOF 9
ENDMDL
MODEL 2
REMARK VINA RESULT: -7.201834967      0.578      1.527
REMARK  9 active torsions:
REMARK  status: ('A' for Active; 'I' for Inactive)
REMARK    1  A    between atoms: N1_1  and  N2_4 
REMARK    2  A    between atoms: C1_6  and  C2_7 
REMARK    3  A    between atoms: C1_6  and  N9_26 
REMARK    4  A    between atoms: C2_7  and  C3_8 
REMARK    5  A    between atoms: C3_8  and  N3_9 
REMARK    6  A    between atoms: C5_11  and  C6_12 
REMARK    7  A    between atoms: C6_12  and  N4_13 
REMARK    8  A    between atoms: C6_12  and  N5_17 
REMARK       I    between atoms: N5_17  and  C7_19 
REMARK    9  A    between atoms: N9_26  and  N10_28 
ROOT
HETATM    1  N3  UNL     1      -0.130  -4.598   2.217  1.00  0.00    -0.287 N 
HETATM    2  C4  UNL     1       0.601  -4.668   1.079  1.00  0.00     0.142 A 
HETATM    3  C5  UNL     1      -0.175  -4.270   0.009  1.00  0.00     0.093 A 
HETATM    4  N7  UNL     1      -1.377  -3.966   0.545  1.00  0.00    -0.285 N 
ATOM      5  H7  UNL     1      -2.193  -3.634   0.030  1.00  0.00     0.188 HD
HETATM    6  N8  UNL     1      -1.317  -4.171   1.855  1.00  0.00    -0.241 N 
ATOM      7  H8  UNL     1      -2.094  -4.018   2.498  1.00  0.00     0.208 HD
ENDROOT
BRANCH   1   8
HETATM    8  C3  UNL     1       0.390  -4.947   3.509  1.00  0.00     0.157 C 
BRANCH   8   9
HETATM    9  C2  UNL     1      -0.631  -4.743   4.610  1.00  0.00     0.101 C 
BRANCH   9  10
HETATM   10  C1  UNL     1      -0.148  -3.648   5.465  1.00  0.00     0.111 C 
HETATM   11  N2  UNL     1       0.741  -3.877   6.348  1.00  0.00    -0.294 N 
ATOM     12  H2  UNL     1       1.082  -4.836   6.418  1.00  0.00     0.187 HD
BRANCH  11  13
HETATM   13  N1  UNL     1       1.290  -2.961   7.218  1.00  0.00    -0.344 N 
ATOM     14  H12 UNL     1       1.125  -1.980   6.987  1.00  0.00     0.176 HD
ATOM     15  H11 UNL     1       1.834  -3.168   8.055  1.00  0.00     0.176 HD
ENDBRANCH  11  13
BRANCH  10  16
HETATM   16  N9  UNL     1      -0.667  -2.352   5.304  1.00  0.00    -0.294 N 
ATOM     17  H9  UNL     1      -1.351  -2.003   5.976  1.00  0.00     0.187 HD
BRANCH  16  18
HETATM   18  N10 UNL     1      -0.274  -1.542   4.262  1.00  0.00    -0.344 N 
ATOM     19 2H10 UNL     1      -0.677  -1.714   3.341  1.00  0.00     0.176 HD
ATOM     20 1H10 UNL     1       0.400  -0.788   4.396  1.00  0.00     0.176 HD
ENDBRANCH  16  18
ENDBRANCH  10  16
ENDBRANCH   9  10
ENDBRANCH   8   9
ENDBRANCH   1   8
BRANCH   3  21
HETATM   21  C6  UNL     1       0.266  -4.208  -1.407  1.00  0.00     0.338 C 
BRANCH  21  22
HETATM   22  N4  UNL     1       1.519  -4.968  -1.508  1.00  0.00    -0.052 N 
ATOM     23  H43 UNL     1       2.119  -4.648  -2.269  1.00  0.00     0.277 HD
ATOM     24  H42 UNL     1       2.163  -4.776  -0.742  1.00  0.00     0.277 HD
ATOM     25  H41 UNL     1       1.271  -5.955  -1.583  1.00  0.00     0.277 HD
ENDBRANCH  21  22
BRANCH  21  26
HETATM   26  N5  UNL     1      -0.667  -4.831  -2.300  1.00  0.00    -0.312 N 
HETATM   27  C7  UNL     1      -0.835  -4.326  -3.605  1.00  0.00     0.330 C 
HETATM   28  N6  UNL     1      -1.758  -4.932  -4.507  1.00  0.00    -0.040 NA
HETATM   29  O1  UNL     1      -0.175  -3.330  -4.004  1.00  0.00    -0.251 OA
ATOM     30  H5  UNL     1      -1.208  -5.638  -1.992  1.00  0.00     0.166 HD
ENDBRANCH  21  26
ENDBRANCH   3  21
TORSDOF 9
ENDMDL
MODEL 3
REMARK VINA RESULT: -6.814769015      0.871      1.576
REMARK  9 active torsions:
REMARK  status: ('A' for Active; 'I' for Inactive)
REMARK    1  A    between atoms: N1_1  and  N2_4 
REMARK    2  A    between atoms: C1_6  and  C2_7 
REMARK    3  A    between atoms: C1_6  and  N9_26 
REMARK    4  A    between atoms: C2_7  and  C3_8 
REMARK    5  A    between atoms: C3_8  and  N3_9 
REMARK    6  A    between atoms: C5_11  and  C6_12 
REMARK    7  A    between atoms: C6_12  and  N4_13 
REMARK    8  A    between atoms: C6_12  and  N5_17 
REMARK       I    between atoms: N5_17  and  C7_19 
REMARK    9  A    between atoms: N9_26  and  N10_28 
ROOT
HETATM    1  N3  UNL     1      -0.366  -4.690   2.527  1.00  0.00    -0.287 N 
HETATM    2  C4  UNL     1       0.445  -4.546   1.453  1.00  0.00     0.142 A 
HETATM    3  C5  UNL     1      -0.321  -4.333   0.324  1.00  0.00     0.093 A 
HETATM    4  N7  UNL     1      -1.599  -4.356   0.761  1.00  0.00    -0.285 N 
ATOM      5  H7  UNL     1      -2.429  -4.230   0.183  1.00  0.00     0.188 HD
HETATM    6  N8  UNL     1      -1.591  -4.570   2.072  1.00  0.00    -0.241 N 
ATOM      7  H8  UNL     1      -2.429  -4.633   2.650  1.00  0.00     0.208 HD
ENDROOT
BRANCH   1   8
HETATM    8  C3  UNL     1       0.123  -4.926   3.857  1.00  0.00     0.157 C 
BRANCH   8   9
HETATM    9  C2  UNL     1      -0.561  -4.045   4.882  1.00  0.00     0.101 C 
BRANCH   9  10
HETATM   10  C1  UNL     1      -0.326  -2.647   4.492  1.00  0.00     0.111 C 
HETATM   11  N2  UNL     1       0.834  -2.280   4.115  1.00  0.00    -0.294 N 
ATOM     12  H2  UNL     1       1.560  -2.995   4.103  1.00  0.00     0.187 HD
BRANCH  11  13
HETATM   13  N1  UNL     1       1.207  -1.013   3.722  1.00  0.00    -0.344 N 
ATOM     14  H12 UNL     1       0.767  -0.246   4.231  1.00  0.00     0.176 HD
ATOM     15  H11 UNL     1       1.868  -0.776   2.983  1.00  0.00     0.176 HD
ENDBRANCH  11  13
BRANCH  10  16
HETATM   16  N9  UNL     1      -1.382  -1.721   4.535  1.00  0.00    -0.294 N 
ATOM     17  H9  UNL     1      -1.764  -1.442   5.439  1.00  0.00     0.187 HD
BRANCH  16  18
HETATM   18  N10 UNL     1      -1.913  -1.180   3.386  1.00  0.00    -0.344 N 
ATOM     19 2H10 UNL     1      -1.885  -1.738   2.533  1.00  0.00     0.176 HD
ATOM     20 1H10 UNL     1      -2.327  -0.247   3.375  1.00  0.00     0.176 HD
ENDBRANCH  16  18
ENDBRANCH  10  16
ENDBRANCH   9  10
ENDBRANCH   8   9
ENDBRANCH   1   8
BRANCH   3  21
HETATM   21  C6  UNL     1       0.199  -4.129  -1.051  1.00  0.00     0.338 C 
BRANCH  21  22
HETATM   22  N4  UNL     1       1.511  -4.784  -1.124  1.00  0.00    -0.052 N 
ATOM     23  H43 UNL     1       1.889  -5.022  -0.207  1.00  0.00     0.277 HD
ATOM     24  H42 UNL     1       1.463  -5.732  -1.497  1.00  0.00     0.277 HD
ATOM     25  H41 UNL     1       2.126  -4.174  -1.663  1.00  0.00     0.277 HD
ENDBRANCH  21  22
BRANCH  21  26
HETATM   26  N5  UNL     1      -0.627  -4.746  -2.048  1.00  0.00    -0.312 N 
HETATM   27  C7  UNL     1      -0.690  -4.200  -3.346  1.00  0.00     0.330 C 
HETATM   28  N6  UNL     1      -1.505  -4.801  -4.349  1.00  0.00    -0.040 NA
HETATM   29  O1  UNL     1      -0.028  -3.172  -3.649  1.00  0.00    -0.251 OA
ATOM     30  H5  UNL     1      -1.167  -5.580  -1.818  1.00  0.00     0.166 HD
ENDBRANCH  21  26
ENDBRANCH   3  21
TORSDOF 9
ENDMDL
MODEL 4
REMARK VINA RESULT: -6.435717790      2.286      6.783
REMARK  9 active torsions:
REMARK  status: ('A' for Active; 'I' for Inactive)
REMARK    1  A    between atoms: N1_1  and  N2_4 
REMARK    2  A    between atoms: C1_6  and  C2_7 
REMARK    3  A    between atoms: C1_6  and  N9_26 
REMARK    4  A    between atoms: C2_7  and  C3_8 
REMARK    5  A    between atoms: C3_8  and  N3_9 
REMARK    6  A    between atoms: C5_11  and  C6_12 
REMARK    7  A    between atoms: C6_12  and  N4_13 
REMARK    8  A    between atoms: C6_12  and  N5_17 
REMARK       I    between atoms: N5_17  and  C7_19 
REMARK    9  A    between atoms: N9_26  and  N10_28 
ROOT
HETATM    1  N3  UNL     1      -0.197  -4.527   0.761  1.00  0.00    -0.287 N 
HETATM    2  C4  UNL     1       0.232  -4.177   1.996  1.00  0.00     0.142 A 
HETATM    3  C5  UNL     1      -0.830  -4.210   2.878  1.00  0.00     0.093 A 
HETATM    4  N7  UNL     1      -1.891  -4.586   2.131  1.00  0.00    -0.285 N 
ATOM      5  H7  UNL     1      -2.845  -4.710   2.470  1.00  0.00     0.188 HD
HETATM    6  N8  UNL     1      -1.482  -4.765   0.881  1.00  0.00    -0.241 N 
ATOM      7  H8  UNL     1      -2.089  -5.051   0.112  1.00  0.00     0.208 HD
ENDROOT
BRANCH   1   8
HETATM    8  C3  UNL     1       0.667  -4.590  -0.384  1.00  0.00     0.157 C 
BRANCH   8   9
HETATM    9  C2  UNL     1      -0.008  -5.240  -1.575  1.00  0.00     0.101 C 
BRANCH   9  10
HETATM   10  C1  UNL     1      -0.166  -4.208  -2.611  1.00  0.00     0.111 C 
HETATM   11  N2  UNL     1       0.838  -3.512  -2.974  1.00  0.00    -0.294 N 
ATOM     12  H2  UNL     1       1.725  -3.714  -2.514  1.00  0.00     0.187 HD
BRANCH  11  13
HETATM   13  N1  UNL     1       0.846  -2.516  -3.925  1.00  0.00    -0.344 N 
ATOM     14  H12 UNL     1       1.432  -2.691  -4.742  1.00  0.00     0.176 HD
ATOM     15  H11 UNL     1       0.330  -1.637  -3.889  1.00  0.00     0.176 HD
ENDBRANCH  11  13
BRANCH  10  16
HETATM   16  N9  UNL     1      -1.424  -3.992  -3.199  1.00  0.00    -0.294 N 
ATOM     17  H9  UNL     1      -1.968  -3.173  -2.925  1.00  0.00     0.187 HD
BRANCH  16  18
HETATM   18  N10 UNL     1      -1.942  -4.860  -4.134  1.00  0.00    -0.344 N 
ATOM     19 2H10 UNL     1      -2.310  -5.754  -3.810  1.00  0.00     0.176 HD
ATOM     20 1H10 UNL     1      -1.960  -4.627  -5.127  1.00  0.00     0.176 HD
ENDBRANCH  16  18
ENDBRANCH  10  16
ENDBRANCH   9  10
ENDBRANCH   8   9
ENDBRANCH   1   8
BRANCH   3  21
HETATM   21  C6  UNL     1      -0.765  -3.891   4.326  1.00  0.00     0.338 C 
BRANCH  21  22
HETATM   22  N4  UNL     1       0.434  -4.545   4.865  1.00  0.00    -0.052 N 
ATOM     23  H43 UNL     1       0.356  -4.765   5.858  1.00  0.00     0.277 HD
ATOM     24  H42 UNL     1       0.552  -5.500   4.527  1.00  0.00     0.277 HD
ATOM     25  H41 UNL     1       1.231  -3.945   4.650  1.00  0.00     0.277 HD
ENDBRANCH  21  22
BRANCH  21  26
HETATM   26  N5  UNL     1      -0.615  -2.486   4.573  1.00  0.00    -0.312 N 
HETATM   27  C7  UNL     1      -1.518  -1.570   3.998  1.00  0.00     0.330 C 
HETATM   28  N6  UNL     1      -1.384  -0.170   4.233  1.00  0.00    -0.040 NA
HETATM   29  O1  UNL     1      -2.465  -1.966   3.267  1.00  0.00    -0.251 OA
ATOM     30  H5  UNL     1       0.146  -2.151   5.164  1.00  0.00     0.166 HD
ENDBRANCH  21  26
ENDBRANCH   3  21
TORSDOF 9
ENDMDL
MODEL 5
REMARK VINA RESULT: -6.269121939      2.217      6.737
REMARK  9 active torsions:
REMARK  status: ('A' for Active; 'I' for Inactive)
REMARK    1  A    between atoms: N1_1  and  N2_4 
REMARK    2  A    between atoms: C1_6  and  C2_7 
REMARK    3  A    between atoms: C1_6  and  N9_26 
REMARK    4  A    between atoms: C2_7  and  C3_8 
REMARK    5  A    between atoms: C3_8  and  N3_9 
REMARK    6  A    between atoms: C5_11  and  C6_12 
REMARK    7  A    between atoms: C6_12  and  N4_13 
REMARK    8  A    between atoms: C6_12  and  N5_17 
REMARK       I    between atoms: N5_17  and  C7_19 
REMARK    9  A    between atoms: N9_26  and  N10_28 
ROOT
HETATM    1  N3  UNL     1      -0.077  -4.394   0.558  1.00  0.00    -0.287 N 
HETATM    2  C4  UNL     1       0.291  -4.228   1.851  1.00  0.00     0.142 A 
HETATM    3  C5  UNL     1      -0.813  -4.381   2.666  1.00  0.00     0.093 A 
HETATM    4  N7  UNL     1      -1.836  -4.638   1.823  1.00  0.00    -0.285 N 
ATOM      5  H7  UNL     1      -2.805  -4.804   2.094  1.00  0.00     0.188 HD
HETATM    6  N8  UNL     1      -1.366  -4.638   0.581  1.00  0.00    -0.241 N 
ATOM      7  H8  UNL     1      -1.935  -4.807  -0.249  1.00  0.00     0.208 HD
ENDROOT
BRANCH   1   8
HETATM    8  C3  UNL     1       0.842  -4.297  -0.540  1.00  0.00     0.157 C 
BRANCH   8   9
HETATM    9  C2  UNL     1       0.497  -5.258  -1.660  1.00  0.00     0.101 C 
BRANCH   9  10
HETATM   10  C1  UNL     1      -0.261  -4.505  -2.671  1.00  0.00     0.111 C 
HETATM   11  N2  UNL     1      -1.174  -5.086  -3.343  1.00  0.00    -0.294 N 
ATOM     12  H2  UNL     1      -1.337  -6.072  -3.138  1.00  0.00     0.187 HD
BRANCH  11  13
HETATM   13  N1  UNL     1      -1.964  -4.517  -4.318  1.00  0.00    -0.344 N 
ATOM     14  H12 UNL     1      -1.624  -3.635  -4.702  1.00  0.00     0.176 HD
ATOM     15  H11 UNL     1      -2.840  -4.889  -4.684  1.00  0.00     0.176 HD
ENDBRANCH  11  13
BRANCH  10  16
HETATM   16  N9  UNL     1       0.023  -3.147  -2.893  1.00  0.00    -0.294 N 
ATOM     17  H9  UNL     1      -0.383  -2.446  -2.272  1.00  0.00     0.187 HD
BRANCH  16  18
HETATM   18  N10 UNL     1       0.836  -2.739  -3.926  1.00  0.00    -0.344 N 
ATOM     19 2H10 UNL     1       1.662  -3.299  -4.139  1.00  0.00     0.176 HD
ATOM     20 1H10 UNL     1       0.629  -1.902  -4.472  1.00  0.00     0.176 HD
ENDBRANCH  16  18
ENDBRANCH  10  16
ENDBRANCH   9  10
ENDBRANCH   8   9
ENDBRANCH   1   8
BRANCH   3  21
HETATM   21  C6  UNL     1      -0.819  -4.273   4.147  1.00  0.00     0.338 C 
BRANCH  21  22
HETATM   22  N4  UNL     1       0.373  -4.975   4.641  1.00  0.00    -0.052 N 
ATOM     23  H43 UNL     1       0.224  -5.425   5.545  1.00  0.00     0.277 HD
ATOM     24  H42 UNL     1       0.588  -5.817   4.108  1.00  0.00     0.277 HD
ATOM     25  H41 UNL     1       1.140  -4.303   4.651  1.00  0.00     0.277 HD
ENDBRANCH  21  22
BRANCH  21  26
HETATM   26  N5  UNL     1      -0.715  -2.916   4.599  1.00  0.00    -0.312 N 
HETATM   27  C7  UNL     1      -1.549  -1.924   4.046  1.00  0.00     0.330 C 
HETATM   28  N6  UNL     1      -1.460  -0.571   4.484  1.00  0.00    -0.040 NA
HETATM   29  O1  UNL     1      -2.391  -2.210   3.153  1.00  0.00    -0.251 OA
ATOM     30  H5  UNL     1      -0.039  -2.670   5.322  1.00  0.00     0.166 HD
ENDBRANCH  21  26
ENDBRANCH   3  21
TORSDOF 9
ENDMDL
