MODEL 1
REMARK VINA RESULT: -7.069020684      0.000      0.000
REMARK  11 active torsions:
REMARK  status: ('A' for Active; 'I' for Inactive)
REMARK    1  A    between atoms: N1_1  and  C1_4 
REMARK    2  A    between atoms: N4_11  and  C4_12 
REMARK    3  A    between atoms: C4_12  and  C5_13 
REMARK       I    between atoms: C5_13  and  N5_15 
REMARK    4  A    between atoms: N5_15  and  C6_17 
REMARK    5  A    between atoms: C6_17  and  C7_18 
REMARK    6  A    between atoms: C7_18  and  N6_19 
REMARK    7  A    between atoms: N6_19  and  C8_22 
REMARK    8  A    between atoms: C8_22  and  C9_23 
REMARK    9  A    between atoms: C10_25  and  C11_26 
REMARK   10  A    between atoms: C11_26  and  N7_27 
REMARK   11  A    between atoms: C12_31  and  O3_32 
ROOT
HETATM    1  C5  UNL     1      13.741   6.036  14.059  1.00  0.00     0.235 C 
HETATM    2  O1  UNL     1      13.992   6.089  12.842  1.00  0.00    -0.272 OA
HETATM    3  N5  UNL     1      12.654   5.400  14.640  1.00  0.00    -0.358 N 
ATOM      4  H5  UNL     1      12.614   5.478  15.656  1.00  0.00     0.162 HD
ENDROOT
BRANCH   3   5
HETATM    5  C6  UNL     1      11.589   4.660  14.067  1.00  0.00     0.150 C 
BRANCH   5   6
HETATM    6  C7  UNL     1      11.634   3.186  14.311  1.00  0.00     0.252 C 
BRANCH   6   7
HETATM    7  N6  UNL     1      11.165   2.818  15.599  1.00  0.00    -0.071 N 
ATOM      8  H62 UNL     1      10.506   3.511  15.954  1.00  0.00     0.277 HD
ATOM      9  H61 UNL     1      10.546   2.009  15.541  1.00  0.00     0.277 HD
BRANCH   7  10
HETATM   10  C8  UNL     1      12.221   2.584  16.554  1.00  0.00     0.266 C 
BRANCH  10  11
HETATM   11  C9  UNL     1      12.779   1.209  16.306  1.00  0.00     0.179 C 
HETATM   12  O2  UNL     1      14.106   1.032  16.697  1.00  0.00    -0.372 OA
HETATM   13  C10 UNL     1      13.764  -0.291  16.967  1.00  0.00     0.178 C 
HETATM   14  C12 UNL     1      12.427   0.189  17.401  1.00  0.00     0.179 C 
BRANCH  13  15
HETATM   15  C11 UNL     1      14.614  -0.988  17.979  1.00  0.00     0.264 C 
BRANCH  15  16
HETATM   16  N7  UNL     1      15.805  -1.581  17.434  1.00  0.00    -0.077 N 
ATOM     17  H73 UNL     1      15.741  -1.646  16.417  1.00  0.00     0.274 HD
ATOM     18  H72 UNL     1      16.594  -0.939  17.515  1.00  0.00     0.274 HD
ATOM     19  H71 UNL     1      16.039  -2.489  17.837  1.00  0.00     0.274 HD
ENDBRANCH  15  16
ENDBRANCH  13  15
BRANCH  14  20
HETATM   20  O3  UNL     1      11.358  -0.637  17.057  1.00  0.00    -0.390 OA
ATOM     21  H3  UNL     1      11.416  -1.503  17.442  1.00  0.00     0.210 HD
ENDBRANCH  14  20
ENDBRANCH  10  11
ENDBRANCH   7  10
ENDBRANCH   6   7
ENDBRANCH   5   6
ENDBRANCH   3   5
BRANCH   1  22
HETATM   22  C4  UNL     1      14.757   6.750  14.924  1.00  0.00     0.234 C 
BRANCH  22  23
HETATM   23  N4  UNL     1      16.066   6.156  14.794  1.00  0.00    -0.317 N 
HETATM   24  C3  UNL     1      17.202   6.779  14.409  1.00  0.00     0.186 A 
HETATM   25  N3  UNL     1      18.192   5.892  14.413  1.00  0.00    -0.335 N 
HETATM   26  C2  UNL     1      17.697   4.709  14.798  1.00  0.00     0.167 A 
ATOM     27  H3  UNL     1      19.164   6.081  14.165  1.00  0.00     0.168 HD
HETATM   28  N2  UNL     1      17.954   3.411  15.052  1.00  0.00    -0.173 N 
HETATM   29  C13 UNL     1      16.358   4.870  15.039  1.00  0.00     0.169 A 
HETATM   30  C1  UNL     1      16.826   2.804  15.432  1.00  0.00     0.679 A 
ATOM     31  H2  UNL     1      18.866   2.962  14.968  1.00  0.00     0.186 HD
HETATM   32  N8  UNL     1      15.831   3.699  15.427  1.00  0.00    -0.173 N 
ATOM     33  H8  UNL     1      14.856   3.525  15.672  1.00  0.00     0.186 HD
BRANCH  30  34
HETATM   34  N1  UNL     1      16.696   1.561  15.754  1.00  0.00    -0.234 N 
ATOM     35  H12 UNL     1      16.067   0.903  15.294  1.00  0.00     0.174 HD
ATOM     36  H11 UNL     1      17.195   1.074  16.498  1.00  0.00     0.174 HD
ENDBRANCH  30  34
ENDBRANCH  22  23
ENDBRANCH   1  22
TORSDOF 11
ENDMDL
MODEL 2
REMARK VINA RESULT: -6.723191373      2.011      6.208
REMARK  11 active torsions:
REMARK  status: ('A' for Active; 'I' for Inactive)
REMARK    1  A    between atoms: N1_1  and  C1_4 
REMARK    2  A    between atoms: N4_11  and  C4_12 
REMARK    3  A    between atoms: C4_12  and  C5_13 
REMARK       I    between atoms: C5_13  and  N5_15 
REMARK    4  A    between atoms: N5_15  and  C6_17 
REMARK    5  A    between atoms: C6_17  and  C7_18 
REMARK    6  A    between atoms: C7_18  and  N6_19 
REMARK    7  A    between atoms: N6_19  and  C8_22 
REMARK    8  A    between atoms: C8_22  and  C9_23 
REMARK    9  A    between atoms: C10_25  and  C11_26 
REMARK   10  A    between atoms: C11_26  and  N7_27 
REMARK   11  A    between atoms: C12_31  and  O3_32 
ROOT
HETATM    1  C5  UNL     1      16.714   2.113  15.747  1.00  0.00     0.235 C 
HETATM    2  O1  UNL     1      16.835   1.525  14.658  1.00  0.00    -0.272 OA
HETATM    3  N5  UNL     1      16.648   3.487  15.929  1.00  0.00    -0.358 N 
ATOM      4  H5  UNL     1      16.561   3.780  16.903  1.00  0.00     0.162 HD
ENDROOT
BRANCH   3   5
HETATM    5  C6  UNL     1      16.680   4.556  14.997  1.00  0.00     0.150 C 
BRANCH   5   6
HETATM    6  C7  UNL     1      16.486   5.917  15.583  1.00  0.00     0.252 C 
BRANCH   6   7
HETATM    7  N6  UNL     1      15.206   6.465  15.306  1.00  0.00    -0.071 N 
ATOM      8  H62 UNL     1      14.471   5.897  15.729  1.00  0.00     0.277 HD
ATOM      9  H61 UNL     1      15.067   7.334  15.822  1.00  0.00     0.277 HD
BRANCH   7  10
HETATM   10  C8  UNL     1      14.952   6.662  13.900  1.00  0.00     0.266 C 
BRANCH  10  11
HETATM   11  C9  UNL     1      13.510   6.322  13.632  1.00  0.00     0.179 C 
HETATM   12  O2  UNL     1      13.294   5.494  12.532  1.00  0.00    -0.372 OA
HETATM   13  C10 UNL     1      12.200   4.989  13.230  1.00  0.00     0.178 C 
HETATM   14  C12 UNL     1      12.977   5.160  14.485  1.00  0.00     0.179 C 
BRANCH  13  15
HETATM   15  C11 UNL     1      11.773   3.607  12.860  1.00  0.00     0.264 C 
BRANCH  15  16
HETATM   16  N7  UNL     1      11.569   3.415  11.448  1.00  0.00    -0.077 N 
ATOM     17  H73 UNL     1      11.207   4.268  11.020  1.00  0.00     0.274 HD
ATOM     18  H72 UNL     1      12.464   3.345  10.964  1.00  0.00     0.274 HD
ATOM     19  H71 UNL     1      10.974   2.619  11.220  1.00  0.00     0.274 HD
ENDBRANCH  15  16
ENDBRANCH  13  15
BRANCH  14  20
HETATM   20  O3  UNL     1      12.239   5.584  15.589  1.00  0.00    -0.390 OA
ATOM     21  H3  UNL     1      11.454   5.068  15.733  1.00  0.00     0.210 HD
ENDBRANCH  14  20
ENDBRANCH  10  11
ENDBRANCH   7  10
ENDBRANCH   6   7
ENDBRANCH   5   6
ENDBRANCH   3   5
BRANCH   1  22
HETATM   22  C4  UNL     1      16.635   1.183  16.938  1.00  0.00     0.234 C 
BRANCH  22  23
HETATM   23  N4  UNL     1      15.395   0.445  16.946  1.00  0.00    -0.317 N 
HETATM   24  C3  UNL     1      15.247  -0.884  17.143  1.00  0.00     0.186 A 
HETATM   25  N3  UNL     1      13.952  -1.179  17.074  1.00  0.00    -0.335 N 
HETATM   26  C2  UNL     1      13.275  -0.049  16.835  1.00  0.00     0.167 A 
ATOM     27  H3  UNL     1      13.545  -2.108  17.183  1.00  0.00     0.168 HD
HETATM   28  N2  UNL     1      12.069   0.519  16.636  1.00  0.00    -0.173 N 
HETATM   29  C13 UNL     1      14.179   0.976  16.753  1.00  0.00     0.169 A 
HETATM   30  C1  UNL     1      12.226   1.832  16.443  1.00  0.00     0.679 A 
ATOM     31  H2  UNL     1      11.176   0.025  16.634  1.00  0.00     0.186 HD
HETATM   32  N8  UNL     1      13.530   2.126  16.513  1.00  0.00    -0.173 N 
ATOM     33  H8  UNL     1      13.951   3.049  16.406  1.00  0.00     0.186 HD
BRANCH  30  34
HETATM   34  N1  UNL     1      11.289   2.691  16.223  1.00  0.00    -0.234 N 
ATOM     35  H12 UNL     1      10.799   2.803  15.335  1.00  0.00     0.174 HD
ATOM     36  H11 UNL     1      10.915   3.363  16.893  1.00  0.00     0.174 HD
ENDBRANCH  30  34
ENDBRANCH  22  23
ENDBRANCH   1  22
TORSDOF 11
ENDMDL
MODEL 3
REMARK VINA RESULT: -6.712499448      2.310      5.396
REMARK  11 active torsions:
REMARK  status: ('A' for Active; 'I' for Inactive)
REMARK    1  A    between atoms: N1_1  and  C1_4 
REMARK    2  A    between atoms: N4_11  and  C4_12 
REMARK    3  A    between atoms: C4_12  and  C5_13 
REMARK       I    between atoms: C5_13  and  N5_15 
REMARK    4  A    between atoms: N5_15  and  C6_17 
REMARK    5  A    between atoms: C6_17  and  C7_18 
REMARK    6  A    between atoms: C7_18  and  N6_19 
REMARK    7  A    between atoms: N6_19  and  C8_22 
REMARK    8  A    between atoms: C8_22  and  C9_23 
REMARK    9  A    between atoms: C10_25  and  C11_26 
REMARK   10  A    between atoms: C11_26  and  N7_27 
REMARK   11  A    between atoms: C12_31  and  O3_32 
ROOT
HETATM    1  C5  UNL     1      12.241   2.728  16.630  1.00  0.00     0.235 C 
HETATM    2  O1  UNL     1      11.815   2.204  17.674  1.00  0.00    -0.272 OA
HETATM    3  N5  UNL     1      12.095   4.059  16.266  1.00  0.00    -0.358 N 
ATOM      4  H5  UNL     1      12.504   4.295  15.362  1.00  0.00     0.162 HD
ENDROOT
BRANCH   3   5
HETATM    5  C6  UNL     1      11.476   5.147  16.932  1.00  0.00     0.150 C 
BRANCH   5   6
HETATM    6  C7  UNL     1      12.046   6.492  16.619  1.00  0.00     0.252 C 
BRANCH   6   7
HETATM    7  N6  UNL     1      11.730   6.941  15.309  1.00  0.00    -0.071 N 
ATOM      8  H62 UNL     1      11.124   6.271  14.835  1.00  0.00     0.277 HD
ATOM      9  H61 UNL     1      11.102   7.744  15.345  1.00  0.00     0.277 HD
BRANCH   7  10
HETATM   10  C8  UNL     1      12.890   7.238  14.505  1.00  0.00     0.266 C 
BRANCH  10  11
HETATM   11  C9  UNL     1      12.916   6.275  13.348  1.00  0.00     0.179 C 
HETATM   12  O2  UNL     1      13.105   4.939  13.697  1.00  0.00    -0.372 OA
HETATM   13  C10 UNL     1      12.319   4.624  12.591  1.00  0.00     0.178 C 
HETATM   14  C12 UNL     1      11.521   5.847  12.865  1.00  0.00     0.179 C 
BRANCH  13  15
HETATM   15  C11 UNL     1      11.615   3.308  12.647  1.00  0.00     0.264 C 
BRANCH  15  16
HETATM   16  N7  UNL     1      11.522   2.640  11.376  1.00  0.00    -0.077 N 
ATOM     17  H73 UNL     1      11.049   3.233  10.693  1.00  0.00     0.274 HD
ATOM     18  H72 UNL     1      12.441   2.572  10.939  1.00  0.00     0.274 HD
ATOM     19  H71 UNL     1      11.078   1.722  11.422  1.00  0.00     0.274 HD
ENDBRANCH  15  16
ENDBRANCH  13  15
BRANCH  14  20
HETATM   20  O3  UNL     1      11.095   6.544  11.736  1.00  0.00    -0.390 OA
ATOM     21  H3  UNL     1      10.309   6.179  11.346  1.00  0.00     0.210 HD
ENDBRANCH  14  20
ENDBRANCH  10  11
ENDBRANCH   7  10
ENDBRANCH   6   7
ENDBRANCH   5   6
ENDBRANCH   3   5
BRANCH   1  22
HETATM   22  C4  UNL     1      12.977   1.766  15.722  1.00  0.00     0.234 C 
BRANCH  22  23
HETATM   23  N4  UNL     1      14.400   1.806  15.960  1.00  0.00    -0.317 N 
HETATM   24  C3  UNL     1      15.227   2.851  15.741  1.00  0.00     0.186 A 
HETATM   25  N3  UNL     1      16.462   2.492  16.082  1.00  0.00    -0.335 N 
HETATM   26  C2  UNL     1      16.427   1.226  16.517  1.00  0.00     0.167 A 
ATOM     27  H3  UNL     1      17.293   3.081  16.023  1.00  0.00     0.168 HD
HETATM   28  N2  UNL     1      17.129   0.184  17.002  1.00  0.00    -0.173 N 
HETATM   29  C13 UNL     1      15.131   0.789  16.441  1.00  0.00     0.169 A 
HETATM   30  C1  UNL     1      16.303  -0.844  17.215  1.00  0.00     0.679 A 
ATOM     31  H2  UNL     1      18.134   0.180  17.179  1.00  0.00     0.186 HD
HETATM   32  N8  UNL     1      15.062  -0.480  16.871  1.00  0.00    -0.173 N 
ATOM     33  H8  UNL     1      14.224  -1.058  16.925  1.00  0.00     0.186 HD
BRANCH  30  34
HETATM   34  N1  UNL     1      16.629  -2.005  17.676  1.00  0.00    -0.234 N 
ATOM     35  H12 UNL     1      17.005  -2.770  17.115  1.00  0.00     0.174 HD
ATOM     36  H11 UNL     1      16.556  -2.313  18.645  1.00  0.00     0.174 HD
ENDBRANCH  30  34
ENDBRANCH  22  23
ENDBRANCH   1  22
TORSDOF 11
ENDMDL
MODEL 4
REMARK VINA RESULT: -6.622776756      2.591      5.440
REMARK  11 active torsions:
REMARK  status: ('A' for Active; 'I' for Inactive)
REMARK    1  A    between atoms: N1_1  and  C1_4 
REMARK    2  A    between atoms: N4_11  and  C4_12 
REMARK    3  A    between atoms: C4_12  and  C5_13 
REMARK       I    between atoms: C5_13  and  N5_15 
REMARK    4  A    between atoms: N5_15  and  C6_17 
REMARK    5  A    between atoms: C6_17  and  C7_18 
REMARK    6  A    between atoms: C7_18  and  N6_19 
REMARK    7  A    between atoms: N6_19  and  C8_22 
REMARK    8  A    between atoms: C8_22  and  C9_23 
REMARK    9  A    between atoms: C10_25  and  C11_26 
REMARK   10  A    between atoms: C11_26  and  N7_27 
REMARK   11  A    between atoms: C12_31  and  O3_32 
ROOT
HETATM    1  C5  UNL     1      13.028   3.025  15.761  1.00  0.00     0.235 C 
HETATM    2  O1  UNL     1      12.670   2.814  16.933  1.00  0.00    -0.272 OA
HETATM    3  N5  UNL     1      14.312   3.349  15.346  1.00  0.00    -0.358 N 
ATOM      4  H5  UNL     1      14.405   3.496  14.341  1.00  0.00     0.162 HD
ENDROOT
BRANCH   3   5
HETATM    5  C6  UNL     1      15.517   3.509  16.076  1.00  0.00     0.150 C 
BRANCH   5   6
HETATM    6  C7  UNL     1      16.707   2.809  15.503  1.00  0.00     0.252 C 
BRANCH   6   7
HETATM    7  N6  UNL     1      16.637   1.397  15.630  1.00  0.00    -0.071 N 
ATOM      8  H62 UNL     1      15.676   1.072  15.522  1.00  0.00     0.277 HD
ATOM      9  H61 UNL     1      17.062   0.941  14.821  1.00  0.00     0.277 HD
BRANCH   7  10
HETATM   10  C8  UNL     1      17.210   0.897  16.855  1.00  0.00     0.266 C 
BRANCH  10  11
HETATM   11  C9  UNL     1      16.117   0.224  17.642  1.00  0.00     0.179 C 
HETATM   12  O2  UNL     1      14.820   0.562  17.258  1.00  0.00    -0.372 OA
HETATM   13  C10 UNL     1      14.459  -0.728  17.639  1.00  0.00     0.178 C 
HETATM   14  C12 UNL     1      15.784  -1.195  17.155  1.00  0.00     0.179 C 
BRANCH  13  15
HETATM   15  C11 UNL     1      13.242  -1.285  16.977  1.00  0.00     0.264 C 
BRANCH  15  16
HETATM   16  N7  UNL     1      12.136  -0.367  16.915  1.00  0.00    -0.077 N 
ATOM     17  H73 UNL     1      12.386   0.523  17.348  1.00  0.00     0.274 HD
ATOM     18  H72 UNL     1      11.983  -0.056  15.956  1.00  0.00     0.274 HD
ATOM     19  H71 UNL     1      11.272  -0.731  17.317  1.00  0.00     0.274 HD
ENDBRANCH  15  16
ENDBRANCH  13  15
BRANCH  14  20
HETATM   20  O3  UNL     1      16.381  -2.192  17.925  1.00  0.00    -0.390 OA
ATOM     21  H3  UNL     1      15.852  -2.979  17.991  1.00  0.00     0.210 HD
ENDBRANCH  14  20
ENDBRANCH  10  11
ENDBRANCH   7  10
ENDBRANCH   6   7
ENDBRANCH   5   6
ENDBRANCH   3   5
BRANCH   1  22
HETATM   22  C4  UNL     1      11.910   2.897  14.749  1.00  0.00     0.234 C 
BRANCH  22  23
HETATM   23  N4  UNL     1      11.572   4.178  14.177  1.00  0.00    -0.317 N 
HETATM   24  C3  UNL     1      11.863   4.609  12.930  1.00  0.00     0.186 A 
HETATM   25  N3  UNL     1      11.384   5.842  12.786  1.00  0.00    -0.335 N 
HETATM   26  C2  UNL     1      10.790   6.199  13.932  1.00  0.00     0.167 A 
ATOM     27  H3  UNL     1      11.458   6.417  11.947  1.00  0.00     0.168 HD
HETATM   28  N2  UNL     1      10.119   7.158  14.600  1.00  0.00    -0.173 N 
HETATM   29  C13 UNL     1      10.906   5.155  14.811  1.00  0.00     0.169 A 
HETATM   30  C1  UNL     1       9.836   6.723  15.831  1.00  0.00     0.679 A 
ATOM     31  H2  UNL     1       9.867   8.073  14.225  1.00  0.00     0.186 HD
HETATM   32  N8  UNL     1      10.319   5.483  15.972  1.00  0.00    -0.173 N 
ATOM     33  H8  UNL     1      10.253   4.897  16.805  1.00  0.00     0.186 HD
BRANCH  30  34
HETATM   34  N1  UNL     1       9.203   7.375  16.747  1.00  0.00    -0.234 N 
ATOM     35  H12 UNL     1       9.495   8.275  17.127  1.00  0.00     0.174 HD
ATOM     36  H11 UNL     1       8.340   7.087  17.208  1.00  0.00     0.174 HD
ENDBRANCH  30  34
ENDBRANCH  22  23
ENDBRANCH   1  22
TORSDOF 11
ENDMDL
MODEL 5
REMARK VINA RESULT: -6.562350654      3.962      6.275
REMARK  11 active torsions:
REMARK  status: ('A' for Active; 'I' for Inactive)
REMARK    1  A    between atoms: N1_1  and  C1_4 
REMARK    2  A    between atoms: N4_11  and  C4_12 
REMARK    3  A    between atoms: C4_12  and  C5_13 
REMARK       I    between atoms: C5_13  and  N5_15 
REMARK    4  A    between atoms: N5_15  and  C6_17 
REMARK    5  A    between atoms: C6_17  and  C7_18 
REMARK    6  A    between atoms: C7_18  and  N6_19 
REMARK    7  A    between atoms: N6_19  and  C8_22 
REMARK    8  A    between atoms: C8_22  and  C9_23 
REMARK    9  A    between atoms: C10_25  and  C11_26 
REMARK   10  A    between atoms: C11_26  and  N7_27 
REMARK   11  A    between atoms: C12_31  and  O3_32 
ROOT
HETATM    1  C5  UNL     1      13.664   4.338  15.805  1.00  0.00     0.235 C 
HETATM    2  O1  UNL     1      13.581   4.924  16.899  1.00  0.00    -0.272 OA
HETATM    3  N5  UNL     1      13.004   4.693  14.637  1.00  0.00    -0.358 N 
ATOM      4  H5  UNL     1      13.191   4.079  13.844  1.00  0.00     0.162 HD
ENDROOT
BRANCH   3   5
HETATM    5  C6  UNL     1      12.115   5.761  14.354  1.00  0.00     0.150 C 
BRANCH   5   6
HETATM    6  C7  UNL     1      10.728   5.592  14.884  1.00  0.00     0.252 C 
BRANCH   6   7
HETATM    7  N6  UNL     1      10.635   5.810  16.284  1.00  0.00    -0.071 N 
ATOM      8  H62 UNL     1      10.481   4.929  16.775  1.00  0.00     0.277 HD
ATOM      9  H61 UNL     1      11.544   6.064  16.671  1.00  0.00     0.277 HD
BRANCH   7  10
HETATM   10  C8  UNL     1       9.635   6.781  16.652  1.00  0.00     0.266 C 
BRANCH  10  11
HETATM   11  C9  UNL     1      10.155   7.567  17.826  1.00  0.00     0.179 C 
HETATM   12  O2  UNL     1       9.290   7.639  18.917  1.00  0.00    -0.372 OA
HETATM   13  C10 UNL     1      10.431   7.681  19.715  1.00  0.00     0.178 C 
HETATM   14  C12 UNL     1      11.087   6.764  18.747  1.00  0.00     0.179 C 
BRANCH  13  15
HETATM   15  C11 UNL     1      10.261   7.202  21.119  1.00  0.00     0.264 C 
BRANCH  15  16
HETATM   16  N7  UNL     1       9.210   7.868  21.842  1.00  0.00    -0.077 N 
ATOM     17  H73 UNL     1       8.408   8.036  21.233  1.00  0.00     0.274 HD
ATOM     18  H72 UNL     1       8.784   7.235  22.518  1.00  0.00     0.274 HD
ATOM     19  H71 UNL     1       9.503   8.734  22.295  1.00  0.00     0.274 HD
ENDBRANCH  15  16
ENDBRANCH  13  15
BRANCH  14  20
HETATM   20  O3  UNL     1      12.438   7.015  18.512  1.00  0.00    -0.390 OA
ATOM     21  H3  UNL     1      13.010   6.345  18.868  1.00  0.00     0.210 HD
ENDBRANCH  14  20
ENDBRANCH  10  11
ENDBRANCH   7  10
ENDBRANCH   6   7
ENDBRANCH   5   6
ENDBRANCH   3   5
BRANCH   1  22
HETATM   22  C4  UNL     1      14.587   3.139  15.824  1.00  0.00     0.234 C 
BRANCH  22  23
HETATM   23  N4  UNL     1      13.872   1.931  16.158  1.00  0.00    -0.317 N 
HETATM   24  C3  UNL     1      12.538   1.734  16.076  1.00  0.00     0.186 A 
HETATM   25  N3  UNL     1      12.269   0.494  16.475  1.00  0.00    -0.335 N 
HETATM   26  C2  UNL     1      13.421  -0.100  16.810  1.00  0.00     0.167 A 
ATOM     27  H3  UNL     1      11.343   0.068  16.518  1.00  0.00     0.168 HD
HETATM   28  N2  UNL     1      14.020  -1.219  17.264  1.00  0.00    -0.173 N 
HETATM   29  C13 UNL     1      14.434   0.801  16.612  1.00  0.00     0.169 A 
HETATM   30  C1  UNL     1      15.338  -1.013  17.342  1.00  0.00     0.679 A 
ATOM     31  H2  UNL     1      13.542  -2.086  17.511  1.00  0.00     0.186 HD
HETATM   32  N8  UNL     1      15.605   0.235  16.940  1.00  0.00    -0.173 N 
ATOM     33  H8  UNL     1      16.525   0.673  16.892  1.00  0.00     0.186 HD
BRANCH  30  34
HETATM   34  N1  UNL     1      16.223  -1.865  17.736  1.00  0.00    -0.234 N 
ATOM     35  H12 UNL     1      16.189  -2.373  18.620  1.00  0.00     0.174 HD
ATOM     36  H11 UNL     1      17.063  -2.143  17.229  1.00  0.00     0.174 HD
ENDBRANCH  30  34
ENDBRANCH  22  23
ENDBRANCH   1  22
TORSDOF 11
ENDMDL
