MODEL 1
REMARK VINA RESULT: -6.743695283      0.000      0.000
REMARK  13 active torsions:
REMARK  status: ('A' for Active; 'I' for Inactive)
REMARK    1  A    between atoms: O1_2  and  C2_3 
REMARK    2  A    between atoms: C2_3  and  N1_4 
REMARK    3  A    between atoms: C3_5  and  N2_6 
REMARK    4  A    between atoms: C5_12  and  N4_13 
REMARK    5  A    between atoms: N4_13  and  C6_15 
REMARK    6  A    between atoms: C6_15  and  C7_16 
REMARK    7  A    between atoms: C7_16  and  O2_17 
REMARK    8  A    between atoms: N6_22  and  C9_24 
REMARK    9  A    between atoms: C9_24  and  C10_25 
REMARK   10  A    between atoms: C10_25  and  N7_26 
REMARK   11  A    between atoms: N7_26  and  C11_28 
REMARK   12  A    between atoms: C11_28  and  C12_29 
REMARK   13  A    between atoms: C12_29  and  N8_30 
ROOT
HETATM    1  N1  UNL     1      13.014   2.476  16.379  1.00  0.00    -0.120 N 
HETATM    2  C3  UNL     1      12.857   1.226  16.820  1.00  0.00     0.686 A 
HETATM    3  N3  UNL     1      14.092   0.647  16.832  1.00  0.00    -0.184 N 
ATOM      4  H3  UNL     1      14.294  -0.310  17.122  1.00  0.00     0.184 HD
HETATM    5  C4  UNL     1      14.995   1.535  16.401  1.00  0.00     0.139 A 
HETATM    6  C5  UNL     1      16.352   1.514  16.206  1.00  0.00     0.148 A 
HETATM    7  N5  UNL     1      16.977   2.642  15.732  1.00  0.00    -0.174 N 
ATOM      8  H5  UNL     1      17.986   2.613  15.591  1.00  0.00     0.186 HD
HETATM    9  C8  UNL     1      16.329   3.781  15.446  1.00  0.00     0.685 A 
HETATM   10  N6  UNL     1      16.991   4.784  15.010  1.00  0.00    -0.204 N 
ATOM     11  H6  UNL     1      17.993   4.619  14.916  1.00  0.00     0.183 HD
HETATM   12  N9  UNL     1      15.004   3.772  15.647  1.00  0.00    -0.173 N 
ATOM     13  H9  UNL     1      14.485   4.624  15.438  1.00  0.00     0.186 HD
HETATM   14  C13 UNL     1      14.310   2.711  16.108  1.00  0.00     0.176 A 
ENDROOT
BRANCH  10  15
HETATM   15  C9  UNL     1      16.580   6.072  14.638  1.00  0.00     0.098 C 
BRANCH  15  16
HETATM   16  C10 UNL     1      17.642   6.899  13.950  1.00  0.00     0.159 C 
BRANCH  16  17
HETATM   17  N7  UNL     1      17.109   7.647  12.857  1.00  0.00    -0.415 N 
ATOM     18  H7  UNL     1      16.119   7.631  12.613  1.00  0.00     0.153 HD
BRANCH  17  19
HETATM   19  C11 UNL     1      18.075   8.423  12.129  1.00  0.00     0.141 C 
BRANCH  19  20
HETATM   20  C12 UNL     1      18.536   7.725  10.868  1.00  0.00     0.248 C 
BRANCH  20  21
HETATM   21  N8  UNL     1      17.823   8.263   9.747  1.00  0.00    -0.078 N 
ATOM     22  H83 UNL     1      16.937   8.687  10.019  1.00  0.00     0.274 HD
ATOM     23  H82 UNL     1      18.271   9.097   9.367  1.00  0.00     0.274 HD
ATOM     24  H81 UNL     1      17.705   7.532   9.046  1.00  0.00     0.274 HD
ENDBRANCH  20  21
ENDBRANCH  19  20
ENDBRANCH  17  19
ENDBRANCH  16  17
ENDBRANCH  15  16
ENDBRANCH  10  15
BRANCH   6  25
HETATM   25  N4  UNL     1      17.050   0.513  16.451  1.00  0.00    -0.372 N 
ATOM     26  H4  UNL     1      17.522   0.186  15.607  1.00  0.00     0.161 HD
BRANCH  25  27
HETATM   27  C6  UNL     1      17.374  -0.289  17.535  1.00  0.00     0.147 C 
BRANCH  27  28
HETATM   28  C7  UNL     1      16.630  -1.642  17.473  1.00  0.00     0.183 C 
BRANCH  28  29
HETATM   29  O2  UNL     1      15.454  -1.628  18.181  1.00  0.00    -0.399 OA
ATOM     30  H2  UNL     1      15.509  -1.103  18.970  1.00  0.00     0.209 HD
ENDBRANCH  28  29
ENDBRANCH  27  28
ENDBRANCH  25  27
ENDBRANCH   6  25
BRANCH   1  31
HETATM   31  C2  UNL     1      11.955   3.445  16.230  1.00  0.00     0.252 C 
BRANCH  31  32
HETATM   32  O1  UNL     1      11.096   3.244  15.196  1.00  0.00    -0.350 OA
HETATM   33  C1  UNL     1      11.493   3.678  13.949  1.00  0.00     0.210 C 
ENDBRANCH  31  32
ENDBRANCH   1  31
BRANCH   2  34
HETATM   34  N2  UNL     1      11.778   0.596  17.180  1.00  0.00    -0.234 N 
ATOM     35  H22 UNL     1      10.975   0.473  16.563  1.00  0.00     0.174 HD
ATOM     36  H21 UNL     1      11.542   0.154  18.069  1.00  0.00     0.174 HD
ENDBRANCH   2  34
TORSDOF 13
ENDMDL
MODEL 2
REMARK VINA RESULT: -6.742074511      2.552      4.929
REMARK  13 active torsions:
REMARK  status: ('A' for Active; 'I' for Inactive)
REMARK    1  A    between atoms: O1_2  and  C2_3 
REMARK    2  A    between atoms: C2_3  and  N1_4 
REMARK    3  A    between atoms: C3_5  and  N2_6 
REMARK    4  A    between atoms: C5_12  and  N4_13 
REMARK    5  A    between atoms: N4_13  and  C6_15 
REMARK    6  A    between atoms: C6_15  and  C7_16 
REMARK    7  A    between atoms: C7_16  and  O2_17 
REMARK    8  A    between atoms: N6_22  and  C9_24 
REMARK    9  A    between atoms: C9_24  and  C10_25 
REMARK   10  A    between atoms: C10_25  and  N7_26 
REMARK   11  A    between atoms: N7_26  and  C11_28 
REMARK   12  A    between atoms: C11_28  and  C12_29 
REMARK   13  A    between atoms: C12_29  and  N8_30 
ROOT
HETATM    1  N1  UNL     1      16.478   4.362  15.022  1.00  0.00    -0.120 N 
HETATM    2  C3  UNL     1      17.484   3.487  14.969  1.00  0.00     0.686 A 
HETATM    3  N3  UNL     1      17.019   2.309  15.478  1.00  0.00    -0.184 N 
ATOM      4  H3  UNL     1      17.560   1.450  15.568  1.00  0.00     0.184 HD
HETATM    5  C4  UNL     1      15.741   2.465  15.839  1.00  0.00     0.139 A 
HETATM    6  C5  UNL     1      14.789   1.648  16.395  1.00  0.00     0.148 A 
HETATM    7  N5  UNL     1      13.537   2.155  16.643  1.00  0.00    -0.174 N 
ATOM      8  H5  UNL     1      12.839   1.537  17.058  1.00  0.00     0.186 HD
HETATM    9  C8  UNL     1      13.182   3.419  16.370  1.00  0.00     0.685 A 
HETATM   10  N6  UNL     1      11.993   3.807  16.634  1.00  0.00    -0.204 N 
ATOM     11  H6  UNL     1      11.397   3.088  17.046  1.00  0.00     0.183 HD
HETATM   12  N9  UNL     1      14.133   4.193  15.827  1.00  0.00    -0.173 N 
ATOM     13  H9  UNL     1      13.892   5.159  15.609  1.00  0.00     0.186 HD
HETATM   14  C13 UNL     1      15.386   3.780  15.550  1.00  0.00     0.176 A 
ENDROOT
BRANCH  10  15
HETATM   15  C9  UNL     1      11.363   5.047  16.457  1.00  0.00     0.098 C 
BRANCH  15  16
HETATM   16  C10 UNL     1      10.709   5.235  15.107  1.00  0.00     0.159 C 
BRANCH  16  17
HETATM   17  N7  UNL     1      11.542   5.971  14.212  1.00  0.00    -0.415 N 
ATOM     18  H7  UNL     1      11.947   6.875  14.456  1.00  0.00     0.153 HD
BRANCH  17  19
HETATM   19  C11 UNL     1      11.766   5.341  12.939  1.00  0.00     0.141 C 
BRANCH  19  20
HETATM   20  C12 UNL     1      11.821   3.833  13.049  1.00  0.00     0.248 C 
BRANCH  20  21
HETATM   21  N8  UNL     1      11.633   3.261  11.749  1.00  0.00    -0.078 N 
ATOM     22  H83 UNL     1      11.167   2.355  11.788  1.00  0.00     0.274 HD
ATOM     23  H82 UNL     1      10.930   3.760  11.204  1.00  0.00     0.274 HD
ATOM     24  H81 UNL     1      12.533   3.214  11.272  1.00  0.00     0.274 HD
ENDBRANCH  20  21
ENDBRANCH  19  20
ENDBRANCH  17  19
ENDBRANCH  16  17
ENDBRANCH  15  16
ENDBRANCH  10  15
BRANCH   6  25
HETATM   25  N4  UNL     1      15.009   0.456  16.677  1.00  0.00    -0.372 N 
ATOM     26  H4  UNL     1      14.732  -0.155  15.908  1.00  0.00     0.161 HD
BRANCH  25  27
HETATM   27  C6  UNL     1      15.521  -0.285  17.732  1.00  0.00     0.147 C 
BRANCH  27  28
HETATM   28  C7  UNL     1      16.773  -1.081  17.302  1.00  0.00     0.183 C 
BRANCH  28  29
HETATM   29  O2  UNL     1      16.748  -2.380  17.743  1.00  0.00    -0.399 OA
ATOM     30  H2  UNL     1      17.605  -2.691  18.011  1.00  0.00     0.209 HD
ENDBRANCH  28  29
ENDBRANCH  27  28
ENDBRANCH  25  27
ENDBRANCH   6  25
BRANCH   1  31
HETATM   31  C2  UNL     1      16.538   5.729  14.565  1.00  0.00     0.252 C 
BRANCH  31  32
HETATM   32  O1  UNL     1      15.674   6.071  13.574  1.00  0.00    -0.350 OA
HETATM   33  C1  UNL     1      15.015   7.277  13.695  1.00  0.00     0.210 C 
ENDBRANCH  31  32
ENDBRANCH   1  31
BRANCH   2  34
HETATM   34  N2  UNL     1      18.703   3.641  14.543  1.00  0.00    -0.234 N 
ATOM     35  H22 UNL     1      19.305   2.858  14.287  1.00  0.00     0.174 HD
ATOM     36  H21 UNL     1      19.245   4.493  14.404  1.00  0.00     0.174 HD
ENDBRANCH   2  34
TORSDOF 13
ENDMDL
MODEL 3
REMARK VINA RESULT: -6.631187698      1.179      1.285
REMARK  13 active torsions:
REMARK  status: ('A' for Active; 'I' for Inactive)
REMARK    1  A    between atoms: O1_2  and  C2_3 
REMARK    2  A    between atoms: C2_3  and  N1_4 
REMARK    3  A    between atoms: C3_5  and  N2_6 
REMARK    4  A    between atoms: C5_12  and  N4_13 
REMARK    5  A    between atoms: N4_13  and  C6_15 
REMARK    6  A    between atoms: C6_15  and  C7_16 
REMARK    7  A    between atoms: C7_16  and  O2_17 
REMARK    8  A    between atoms: N6_22  and  C9_24 
REMARK    9  A    between atoms: C9_24  and  C10_25 
REMARK   10  A    between atoms: C10_25  and  N7_26 
REMARK   11  A    between atoms: N7_26  and  C11_28 
REMARK   12  A    between atoms: C11_28  and  C12_29 
REMARK   13  A    between atoms: C12_29  and  N8_30 
ROOT
HETATM    1  N1  UNL     1      13.093   2.622  16.403  1.00  0.00    -0.120 N 
HETATM    2  C3  UNL     1      12.876   1.379  16.836  1.00  0.00     0.686 A 
HETATM    3  N3  UNL     1      14.078   0.734  16.822  1.00  0.00    -0.184 N 
ATOM      4  H3  UNL     1      14.232  -0.235  17.101  1.00  0.00     0.184 HD
HETATM    5  C4  UNL     1      15.020   1.575  16.384  1.00  0.00     0.139 A 
HETATM    6  C5  UNL     1      16.371   1.483  16.166  1.00  0.00     0.148 A 
HETATM    7  N5  UNL     1      17.048   2.580  15.692  1.00  0.00    -0.174 N 
ATOM      8  H5  UNL     1      18.052   2.497  15.533  1.00  0.00     0.186 HD
HETATM    9  C8  UNL     1      16.459   3.755  15.425  1.00  0.00     0.685 A 
HETATM   10  N6  UNL     1      17.167   4.725  14.987  1.00  0.00    -0.204 N 
ATOM     11  H6  UNL     1      18.157   4.507  14.875  1.00  0.00     0.183 HD
HETATM   12  N9  UNL     1      15.138   3.815  15.649  1.00  0.00    -0.173 N 
ATOM     13  H9  UNL     1      14.663   4.697  15.456  1.00  0.00     0.186 HD
HETATM   14  C13 UNL     1      14.395   2.790  16.112  1.00  0.00     0.176 A 
ENDROOT
BRANCH  10  15
HETATM   15  C9  UNL     1      16.821   6.037  14.633  1.00  0.00     0.098 C 
BRANCH  15  16
HETATM   16  C10 UNL     1      17.981   6.896  14.186  1.00  0.00     0.159 C 
BRANCH  16  17
HETATM   17  N7  UNL     1      19.233   6.364  14.617  1.00  0.00    -0.415 N 
ATOM     18  H7  UNL     1      19.447   6.192  15.599  1.00  0.00     0.153 HD
BRANCH  17  19
HETATM   19  C11 UNL     1      20.170   6.091  13.561  1.00  0.00     0.141 C 
BRANCH  19  20
HETATM   20  C12 UNL     1      19.806   6.804  12.276  1.00  0.00     0.248 C 
BRANCH  20  21
HETATM   21  N8  UNL     1      20.444   6.142  11.177  1.00  0.00    -0.078 N 
ATOM     22  H83 UNL     1      21.380   5.813  11.413  1.00  0.00     0.274 HD
ATOM     23  H82 UNL     1      20.021   5.237  10.972  1.00  0.00     0.274 HD
ATOM     24  H81 UNL     1      20.444   6.763  10.368  1.00  0.00     0.274 HD
ENDBRANCH  20  21
ENDBRANCH  19  20
ENDBRANCH  17  19
ENDBRANCH  16  17
ENDBRANCH  15  16
ENDBRANCH  10  15
BRANCH   6  25
HETATM   25  N4  UNL     1      17.018   0.443  16.390  1.00  0.00    -0.372 N 
ATOM     26  H4  UNL     1      17.393   0.056  15.524  1.00  0.00     0.161 HD
BRANCH  25  27
HETATM   27  C6  UNL     1      17.377  -0.344  17.475  1.00  0.00     0.147 C 
BRANCH  27  28
HETATM   28  C7  UNL     1      16.609  -1.685  17.472  1.00  0.00     0.183 C 
BRANCH  28  29
HETATM   29  O2  UNL     1      15.464  -1.637  18.226  1.00  0.00    -0.399 OA
ATOM     30  H2  UNL     1      14.779  -2.202  17.886  1.00  0.00     0.209 HD
ENDBRANCH  28  29
ENDBRANCH  27  28
ENDBRANCH  25  27
ENDBRANCH   6  25
BRANCH   1  31
HETATM   31  C2  UNL     1      12.086   3.649  16.280  1.00  0.00     0.252 C 
BRANCH  31  32
HETATM   32  O1  UNL     1      11.106   3.424  15.366  1.00  0.00    -0.350 OA
HETATM   33  C1  UNL     1      11.457   3.476  14.033  1.00  0.00     0.210 C 
ENDBRANCH  31  32
ENDBRANCH   1  31
BRANCH   2  34
HETATM   34  N2  UNL     1      11.770   0.806  17.209  1.00  0.00    -0.234 N 
ATOM     35  H22 UNL     1      11.594   0.511  18.169  1.00  0.00     0.174 HD
ATOM     36  H21 UNL     1      10.945   0.555  16.663  1.00  0.00     0.174 HD
ENDBRANCH   2  34
TORSDOF 13
ENDMDL
MODEL 4
REMARK VINA RESULT: -6.607433148      1.588      2.465
REMARK  13 active torsions:
REMARK  status: ('A' for Active; 'I' for Inactive)
REMARK    1  A    between atoms: O1_2  and  C2_3 
REMARK    2  A    between atoms: C2_3  and  N1_4 
REMARK    3  A    between atoms: C3_5  and  N2_6 
REMARK    4  A    between atoms: C5_12  and  N4_13 
REMARK    5  A    between atoms: N4_13  and  C6_15 
REMARK    6  A    between atoms: C6_15  and  C7_16 
REMARK    7  A    between atoms: C7_16  and  O2_17 
REMARK    8  A    between atoms: N6_22  and  C9_24 
REMARK    9  A    between atoms: C9_24  and  C10_25 
REMARK   10  A    between atoms: C10_25  and  N7_26 
REMARK   11  A    between atoms: N7_26  and  C11_28 
REMARK   12  A    between atoms: C11_28  and  C12_29 
REMARK   13  A    between atoms: C12_29  and  N8_30 
ROOT
HETATM    1  N1  UNL     1      12.991   2.190  16.124  1.00  0.00    -0.120 N 
HETATM    2  C3  UNL     1      12.887   0.940  16.580  1.00  0.00     0.686 A 
HETATM    3  N3  UNL     1      14.155   0.450  16.701  1.00  0.00    -0.184 N 
ATOM      4  H3  UNL     1      14.399  -0.484  17.028  1.00  0.00     0.184 HD
HETATM    5  C4  UNL     1      15.025   1.393  16.322  1.00  0.00     0.139 A 
HETATM    6  C5  UNL     1      16.392   1.465  16.234  1.00  0.00     0.148 A 
HETATM    7  N5  UNL     1      16.972   2.627  15.785  1.00  0.00    -0.174 N 
ATOM      8  H5  UNL     1      17.989   2.666  15.723  1.00  0.00     0.186 HD
HETATM    9  C8  UNL     1      16.271   3.712  15.422  1.00  0.00     0.685 A 
HETATM   10  N6  UNL     1      16.894   4.752  15.017  1.00  0.00    -0.204 N 
ATOM     11  H6  UNL     1      17.909   4.657  15.005  1.00  0.00     0.183 HD
HETATM   12  N9  UNL     1      14.938   3.611  15.520  1.00  0.00    -0.173 N 
ATOM     13  H9  UNL     1      14.379   4.421  15.252  1.00  0.00     0.186 HD
HETATM   14  C13 UNL     1      14.285   2.512  15.949  1.00  0.00     0.176 A 
ENDROOT
BRANCH  10  15
HETATM   15  C9  UNL     1      16.425   6.000  14.585  1.00  0.00     0.098 C 
BRANCH  15  16
HETATM   16  C10 UNL     1      17.497   7.055  14.423  1.00  0.00     0.159 C 
BRANCH  16  17
HETATM   17  N7  UNL     1      18.785   6.563  14.792  1.00  0.00    -0.415 N 
ATOM     18  H7  UNL     1      19.227   5.775  14.321  1.00  0.00     0.153 HD
BRANCH  17  19
HETATM   19  C11 UNL     1      19.410   7.266  15.880  1.00  0.00     0.141 C 
BRANCH  19  20
HETATM   20  C12 UNL     1      18.886   6.816  17.227  1.00  0.00     0.248 C 
BRANCH  20  21
HETATM   21  N8  UNL     1      19.956   6.852  18.180  1.00  0.00    -0.078 N 
ATOM     22  H83 UNL     1      20.792   7.302  17.808  1.00  0.00     0.274 HD
ATOM     23  H82 UNL     1      19.772   7.502  18.945  1.00  0.00     0.274 HD
ATOM     24  H81 UNL     1      20.139   5.905  18.511  1.00  0.00     0.274 HD
ENDBRANCH  20  21
ENDBRANCH  19  20
ENDBRANCH  17  19
ENDBRANCH  16  17
ENDBRANCH  15  16
ENDBRANCH  10  15
BRANCH   6  25
HETATM   25  N4  UNL     1      17.136   0.520  16.555  1.00  0.00    -0.372 N 
ATOM     26  H4  UNL     1      17.723   0.239  15.769  1.00  0.00     0.161 HD
BRANCH  25  27
HETATM   27  C6  UNL     1      17.401  -0.262  17.669  1.00  0.00     0.147 C 
BRANCH  27  28
HETATM   28  C7  UNL     1      16.727  -1.648  17.553  1.00  0.00     0.183 C 
BRANCH  28  29
HETATM   29  O2  UNL     1      15.500  -1.690  18.165  1.00  0.00    -0.399 OA
ATOM     30  H2  UNL     1      14.807  -1.963  17.576  1.00  0.00     0.209 HD
ENDBRANCH  28  29
ENDBRANCH  27  28
ENDBRANCH  25  27
ENDBRANCH   6  25
BRANCH   1  31
HETATM   31  C2  UNL     1      11.883   3.078  15.870  1.00  0.00     0.252 C 
BRANCH  31  32
HETATM   32  O1  UNL     1      11.178   2.852  14.731  1.00  0.00    -0.350 OA
HETATM   33  C1  UNL     1      11.592   3.505  13.589  1.00  0.00     0.210 C 
ENDBRANCH  31  32
ENDBRANCH   1  31
BRANCH   2  34
HETATM   34  N2  UNL     1      11.829   0.241  16.869  1.00  0.00    -0.234 N 
ATOM     35  H22 UNL     1      10.956   0.662  17.187  1.00  0.00     0.174 HD
ATOM     36  H21 UNL     1      11.683  -0.768  16.844  1.00  0.00     0.174 HD
ENDBRANCH   2  34
TORSDOF 13
ENDMDL
MODEL 5
REMARK VINA RESULT: -6.600973803      2.828      5.484
REMARK  13 active torsions:
REMARK  status: ('A' for Active; 'I' for Inactive)
REMARK    1  A    between atoms: O1_2  and  C2_3 
REMARK    2  A    between atoms: C2_3  and  N1_4 
REMARK    3  A    between atoms: C3_5  and  N2_6 
REMARK    4  A    between atoms: C5_12  and  N4_13 
REMARK    5  A    between atoms: N4_13  and  C6_15 
REMARK    6  A    between atoms: C6_15  and  C7_16 
REMARK    7  A    between atoms: C7_16  and  O2_17 
REMARK    8  A    between atoms: N6_22  and  C9_24 
REMARK    9  A    between atoms: C9_24  and  C10_25 
REMARK   10  A    between atoms: C10_25  and  N7_26 
REMARK   11  A    between atoms: N7_26  and  C11_28 
REMARK   12  A    between atoms: C11_28  and  C12_29 
REMARK   13  A    between atoms: C12_29  and  N8_30 
ROOT
HETATM    1  N1  UNL     1      15.241   0.054  17.034  1.00  0.00    -0.120 N 
HETATM    2  C3  UNL     1      16.528  -0.298  17.059  1.00  0.00     0.686 A 
HETATM    3  N3  UNL     1      17.236   0.732  16.513  1.00  0.00    -0.184 N 
ATOM      4  H3  UNL     1      18.249   0.757  16.394  1.00  0.00     0.184 HD
HETATM    5  C4  UNL     1      16.389   1.704  16.158  1.00  0.00     0.139 A 
HETATM    6  C5  UNL     1      16.526   2.939  15.577  1.00  0.00     0.148 A 
HETATM    7  N5  UNL     1      15.403   3.697  15.346  1.00  0.00    -0.174 N 
ATOM      8  H5  UNL     1      15.520   4.613  14.912  1.00  0.00     0.186 HD
HETATM    9  C8  UNL     1      14.162   3.296  15.659  1.00  0.00     0.685 A 
HETATM   10  N6  UNL     1      13.174   4.067  15.409  1.00  0.00    -0.204 N 
ATOM     11  H6  UNL     1      13.431   4.954  14.976  1.00  0.00     0.183 HD
HETATM   12  N9  UNL     1      14.060   2.086  16.226  1.00  0.00    -0.173 N 
ATOM     13  H9  UNL     1      13.129   1.755  16.476  1.00  0.00     0.186 HD
HETATM   14  C13 UNL     1      15.106   1.276  16.489  1.00  0.00     0.176 A 
ENDROOT
BRANCH  10  15
HETATM   15  C9  UNL     1      11.798   3.908  15.626  1.00  0.00     0.098 C 
BRANCH  15  16
HETATM   16  C10 UNL     1      11.007   3.520  14.398  1.00  0.00     0.159 C 
BRANCH  16  17
HETATM   17  N7  UNL     1      11.852   3.056  13.346  1.00  0.00    -0.415 N 
ATOM     18  H7  UNL     1      12.495   2.273  13.463  1.00  0.00     0.153 HD
BRANCH  17  19
HETATM   19  C11 UNL     1      11.729   3.779  12.109  1.00  0.00     0.141 C 
BRANCH  19  20
HETATM   20  C12 UNL     1      11.875   2.877  10.903  1.00  0.00     0.248 C 
BRANCH  20  21
HETATM   21  N8  UNL     1      10.583   2.383  10.529  1.00  0.00    -0.078 N 
ATOM     22  H83 UNL     1       9.906   3.134  10.390  1.00  0.00     0.274 HD
ATOM     23  H82 UNL     1      10.572   2.004   9.581  1.00  0.00     0.274 HD
ATOM     24  H81 UNL     1      10.272   1.703  11.222  1.00  0.00     0.274 HD
ENDBRANCH  20  21
ENDBRANCH  19  20
ENDBRANCH  17  19
ENDBRANCH  16  17
ENDBRANCH  15  16
ENDBRANCH  10  15
BRANCH   6  25
HETATM   25  N4  UNL     1      17.632   3.412  15.257  1.00  0.00    -0.372 N 
ATOM     26  H4  UNL     1      18.331   2.673  15.175  1.00  0.00     0.161 HD
BRANCH  25  27
HETATM   27  C6  UNL     1      18.193   4.650  14.979  1.00  0.00     0.147 C 
BRANCH  27  28
HETATM   28  C7  UNL     1      19.507   4.503  14.180  1.00  0.00     0.183 C 
BRANCH  28  29
HETATM   29  O2  UNL     1      19.549   5.323  13.080  1.00  0.00    -0.399 OA
ATOM     30  H2  UNL     1      18.812   5.921  13.043  1.00  0.00     0.209 HD
ENDBRANCH  28  29
ENDBRANCH  27  28
ENDBRANCH  25  27
ENDBRANCH   6  25
BRANCH   1  31
HETATM   31  C2  UNL     1      14.149  -0.746  17.535  1.00  0.00     0.252 C 
BRANCH  31  32
HETATM   32  O1  UNL     1      13.159  -0.077  18.181  1.00  0.00    -0.350 OA
HETATM   33  C1  UNL     1      11.890  -0.151  17.646  1.00  0.00     0.210 C 
ENDBRANCH  31  32
ENDBRANCH   1  31
BRANCH   2  34
HETATM   34  N2  UNL     1      17.087  -1.391  17.488  1.00  0.00    -0.234 N 
ATOM     35  H22 UNL     1      17.623  -2.014  16.885  1.00  0.00     0.174 HD
ATOM     36  H21 UNL     1      17.089  -1.802  18.422  1.00  0.00     0.174 HD
ENDBRANCH   2  34
TORSDOF 13
ENDMDL
