MODEL 1
REMARK VINA RESULT: -5.259527737      0.000      0.000
REMARK  15 active torsions:
REMARK  status: ('A' for Active; 'I' for Inactive)
REMARK    1  A    between atoms: N1_2  and  C3_4 
REMARK    2  A    between atoms: N1_2  and  C5_10 
REMARK    3  A    between atoms: C3_4  and  C4_5 
REMARK    4  A    between atoms: C4_5  and  N2_6 
REMARK    5  A    between atoms: C5_10  and  C6_11 
REMARK    6  A    between atoms: C6_11  and  C7_12 
REMARK    7  A    between atoms: C7_12  and  C8_13 
REMARK    8  A    between atoms: C8_13  and  C9_14 
REMARK    9  A    between atoms: C9_14  and  O1_15 
REMARK   10  A    between atoms: O1_15  and  C10_16 
REMARK   11  A    between atoms: C11_18  and  N3_19 
REMARK   12  A    between atoms: C12_23  and  N4_24 
REMARK   13  A    between atoms: C12_23  and  N5_28 
REMARK   14  A    between atoms: C13_32  and  O3_33 
REMARK   15  A    between atoms: C14_35  and  O4_36 
ROOT
HETATM    1  C10 UNL     1      13.874   2.509  15.951  1.00  0.00     0.293 C 
HETATM    2  O2  UNL     1      14.725   1.838  16.811  1.00  0.00    -0.322 OA
HETATM    3  C11 UNL     1      14.685   0.470  16.702  1.00  0.00     0.388 C 
HETATM    4  C12 UNL     1      13.353  -0.120  17.131  1.00  0.00     0.360 C 
HETATM    5  C13 UNL     1      12.260   0.832  16.664  1.00  0.00     0.220 C 
HETATM    6  C14 UNL     1      12.832   1.538  15.449  1.00  0.00     0.206 C 
ENDROOT
BRANCH   1   7
HETATM    7  O1  UNL     1      13.347   3.572  16.628  1.00  0.00    -0.358 OA
BRANCH   7   8
HETATM    8  C9  UNL     1      13.905   4.788  16.378  1.00  0.00     0.171 C 
BRANCH   8   9
HETATM    9  C8  UNL     1      13.118   5.971  16.834  1.00  0.00     0.026 C 
BRANCH   9  10
HETATM   10  C7  UNL     1      11.687   5.480  17.096  1.00  0.00     0.004 C 
BRANCH  10  11
HETATM   11  C6  UNL     1      10.744   6.318  16.305  1.00  0.00     0.028 C 
BRANCH  11  12
HETATM   12  C5  UNL     1      10.581   5.945  14.882  1.00  0.00     0.236 C 
BRANCH  12  13
HETATM   13  N1  UNL     1      10.688   6.954  13.900  1.00  0.00    -0.073 N 
HETATM   14  C1  UNL     1      11.661   7.966  14.311  1.00  0.00     0.272 C 
HETATM   15  C2  UNL     1       9.443   7.576  13.521  1.00  0.00     0.272 C 
BRANCH  13  16
HETATM   16  C3  UNL     1      11.236   6.351  12.692  1.00  0.00     0.263 C 
BRANCH  16  17
HETATM   17  C4  UNL     1      12.140   5.186  12.978  1.00  0.00     0.257 C 
BRANCH  17  18
HETATM   18  N2  UNL     1      11.711   4.067  12.132  1.00  0.00    -0.078 N 
ATOM     19  H23 UNL     1      11.671   4.312  11.143  1.00  0.00     0.274 HD
ATOM     20  H22 UNL     1      12.415   3.333  12.062  1.00  0.00     0.274 HD
ATOM     21  H21 UNL     1      10.819   3.728  12.493  1.00  0.00     0.274 HD
ENDBRANCH  17  18
ENDBRANCH  16  17
ENDBRANCH  13  16
ENDBRANCH  12  13
ENDBRANCH  11  12
ENDBRANCH  10  11
ENDBRANCH   9  10
ENDBRANCH   8   9
ENDBRANCH   7   8
ENDBRANCH   1   7
BRANCH   6  22
HETATM   22  O4  UNL     1      11.843   2.156  14.698  1.00  0.00    -0.388 OA
ATOM     23  H4  UNL     1      11.607   3.012  15.036  1.00  0.00     0.210 HD
ENDBRANCH   6  22
BRANCH   3  24
HETATM   24  N3  UNL     1      15.671  -0.058  17.648  1.00  0.00    -0.048 N 
ATOM     25  H33 UNL     1      16.577  -0.249  17.220  1.00  0.00     0.277 HD
ATOM     26  H32 UNL     1      15.992   0.635  18.323  1.00  0.00     0.277 HD
ATOM     27  H31 UNL     1      15.251  -0.880  18.084  1.00  0.00     0.277 HD
ENDBRANCH   3  24
BRANCH   5  28
HETATM   28  O3  UNL     1      12.007   1.746  17.685  1.00  0.00    -0.388 OA
ATOM     29  H3  UNL     1      11.874   1.264  18.492  1.00  0.00     0.210 HD
ENDBRANCH   5  28
BRANCH   4  30
HETATM   30  N4  UNL     1      13.119  -1.383  16.454  1.00  0.00    -0.038 N 
ATOM     31  H43 UNL     1      13.255  -1.305  15.447  1.00  0.00     0.277 HD
ATOM     32  H42 UNL     1      13.853  -2.063  16.654  1.00  0.00     0.277 HD
ATOM     33  H41 UNL     1      12.194  -1.744  16.687  1.00  0.00     0.277 HD
ENDBRANCH   4  30
BRANCH   4  34
HETATM   34  N5  UNL     1      13.288  -0.317  18.560  1.00  0.00    -0.038 N 
ATOM     35  H53 UNL     1      14.051  -0.909  18.888  1.00  0.00     0.277 HD
ATOM     36  H52 UNL     1      13.521   0.539  19.064  1.00  0.00     0.277 HD
ATOM     37  H51 UNL     1      12.382  -0.684  18.852  1.00  0.00     0.277 HD
ENDBRANCH   4  34
TORSDOF 15
ENDMDL
MODEL 2
REMARK VINA RESULT: -5.258385632      1.175      1.932
REMARK  15 active torsions:
REMARK  status: ('A' for Active; 'I' for Inactive)
REMARK    1  A    between atoms: N1_2  and  C3_4 
REMARK    2  A    between atoms: N1_2  and  C5_10 
REMARK    3  A    between atoms: C3_4  and  C4_5 
REMARK    4  A    between atoms: C4_5  and  N2_6 
REMARK    5  A    between atoms: C5_10  and  C6_11 
REMARK    6  A    between atoms: C6_11  and  C7_12 
REMARK    7  A    between atoms: C7_12  and  C8_13 
REMARK    8  A    between atoms: C8_13  and  C9_14 
REMARK    9  A    between atoms: C9_14  and  O1_15 
REMARK   10  A    between atoms: O1_15  and  C10_16 
REMARK   11  A    between atoms: C11_18  and  N3_19 
REMARK   12  A    between atoms: C12_23  and  N4_24 
REMARK   13  A    between atoms: C12_23  and  N5_28 
REMARK   14  A    between atoms: C13_32  and  O3_33 
REMARK   15  A    between atoms: C14_35  and  O4_36 
ROOT
HETATM    1  C10 UNL     1      13.927   2.539  15.928  1.00  0.00     0.293 C 
HETATM    2  O2  UNL     1      14.730   1.894  16.852  1.00  0.00    -0.322 OA
HETATM    3  C11 UNL     1      14.727   0.524  16.753  1.00  0.00     0.388 C 
HETATM    4  C12 UNL     1      13.381  -0.092  17.092  1.00  0.00     0.360 C 
HETATM    5  C13 UNL     1      12.303   0.832  16.540  1.00  0.00     0.220 C 
HETATM    6  C14 UNL     1      12.945   1.542  15.362  1.00  0.00     0.206 C 
ENDROOT
BRANCH   1   7
HETATM    7  O1  UNL     1      13.331   3.596  16.557  1.00  0.00    -0.358 OA
BRANCH   7   8
HETATM    8  C9  UNL     1      13.905   4.815  16.371  1.00  0.00     0.171 C 
BRANCH   8   9
HETATM    9  C8  UNL     1      14.913   4.898  15.273  1.00  0.00     0.026 C 
BRANCH   9  10
HETATM   10  C7  UNL     1      14.613   6.183  14.488  1.00  0.00     0.004 C 
BRANCH  10  11
HETATM   11  C6  UNL     1      13.428   5.943  13.618  1.00  0.00     0.028 C 
BRANCH  11  12
HETATM   12  C5  UNL     1      12.460   7.057  13.519  1.00  0.00     0.236 C 
BRANCH  12  13
HETATM   13  N1  UNL     1      11.233   6.953  14.211  1.00  0.00    -0.073 N 
HETATM   14  C1  UNL     1      10.141   7.488  13.399  1.00  0.00     0.272 C 
HETATM   15  C2  UNL     1      11.219   7.544  15.527  1.00  0.00     0.272 C 
BRANCH  13  16
HETATM   16  C3  UNL     1      10.934   5.539  14.388  1.00  0.00     0.263 C 
BRANCH  16  17
HETATM   17  C4  UNL     1      10.207   5.249  15.671  1.00  0.00     0.257 C 
BRANCH  17  18
HETATM   18  N2  UNL     1      10.161   3.794  15.842  1.00  0.00    -0.078 N 
ATOM     19  H23 UNL     1       9.670   3.322  15.083  1.00  0.00     0.274 HD
ATOM     20  H22 UNL     1      11.071   3.352  15.711  1.00  0.00     0.274 HD
ATOM     21  H21 UNL     1       9.754   3.600  16.757  1.00  0.00     0.274 HD
ENDBRANCH  17  18
ENDBRANCH  16  17
ENDBRANCH  13  16
ENDBRANCH  12  13
ENDBRANCH  11  12
ENDBRANCH  10  11
ENDBRANCH   9  10
ENDBRANCH   8   9
ENDBRANCH   7   8
ENDBRANCH   1   7
BRANCH   6  22
HETATM   22  O4  UNL     1      11.999   2.132  14.538  1.00  0.00    -0.388 OA
ATOM     23  H4  UNL     1      12.325   2.289  13.659  1.00  0.00     0.210 HD
ENDBRANCH   6  22
BRANCH   3  24
HETATM   24  N3  UNL     1      15.655   0.025  17.771  1.00  0.00    -0.048 N 
ATOM     25  H33 UNL     1      16.263  -0.720  17.431  1.00  0.00     0.277 HD
ATOM     26  H32 UNL     1      16.389   0.692  18.008  1.00  0.00     0.277 HD
ATOM     27  H31 UNL     1      15.089  -0.253  18.574  1.00  0.00     0.277 HD
ENDBRANCH   3  24
BRANCH   5  28
HETATM   28  O3  UNL     1      11.959   1.748  17.532  1.00  0.00    -0.388 OA
ATOM     29  H3  UNL     1      12.671   2.370  17.626  1.00  0.00     0.210 HD
ENDBRANCH   5  28
BRANCH   4  30
HETATM   30  N4  UNL     1      13.223  -1.365  16.412  1.00  0.00    -0.038 N 
ATOM     31  H43 UNL     1      13.846  -2.077  16.790  1.00  0.00     0.277 HD
ATOM     32  H42 UNL     1      12.333  -1.808  16.637  1.00  0.00     0.277 HD
ATOM     33  H41 UNL     1      13.345  -1.247  15.406  1.00  0.00     0.277 HD
ENDBRANCH   4  30
BRANCH   4  34
HETATM   34  N5  UNL     1      13.218  -0.280  18.514  1.00  0.00    -0.038 N 
ATOM     35  H53 UNL     1      13.166  -1.270  18.754  1.00  0.00     0.277 HD
ATOM     36  H52 UNL     1      14.070  -0.037  19.021  1.00  0.00     0.277 HD
ATOM     37  H51 UNL     1      12.414   0.232  18.876  1.00  0.00     0.277 HD
ENDBRANCH   4  34
TORSDOF 15
ENDMDL
MODEL 3
REMARK VINA RESULT: -5.206799358      1.293      2.283
REMARK  15 active torsions:
REMARK  status: ('A' for Active; 'I' for Inactive)
REMARK    1  A    between atoms: N1_2  and  C3_4 
REMARK    2  A    between atoms: N1_2  and  C5_10 
REMARK    3  A    between atoms: C3_4  and  C4_5 
REMARK    4  A    between atoms: C4_5  and  N2_6 
REMARK    5  A    between atoms: C5_10  and  C6_11 
REMARK    6  A    between atoms: C6_11  and  C7_12 
REMARK    7  A    between atoms: C7_12  and  C8_13 
REMARK    8  A    between atoms: C8_13  and  C9_14 
REMARK    9  A    between atoms: C9_14  and  O1_15 
REMARK   10  A    between atoms: O1_15  and  C10_16 
REMARK   11  A    between atoms: C11_18  and  N3_19 
REMARK   12  A    between atoms: C12_23  and  N4_24 
REMARK   13  A    between atoms: C12_23  and  N5_28 
REMARK   14  A    between atoms: C13_32  and  O3_33 
REMARK   15  A    between atoms: C14_35  and  O4_36 
ROOT
HETATM    1  C10 UNL     1      13.788   2.465  16.081  1.00  0.00     0.293 C 
HETATM    2  O2  UNL     1      14.645   1.794  16.933  1.00  0.00    -0.322 OA
HETATM    3  C11 UNL     1      14.635   0.427  16.793  1.00  0.00     0.388 C 
HETATM    4  C12 UNL     1      13.312  -0.200  17.196  1.00  0.00     0.360 C 
HETATM    5  C13 UNL     1      12.203   0.739  16.740  1.00  0.00     0.220 C 
HETATM    6  C14 UNL     1      12.772   1.484  15.547  1.00  0.00     0.206 C 
ENDROOT
BRANCH   1   7
HETATM    7  O1  UNL     1      13.232   3.502  16.777  1.00  0.00    -0.358 OA
BRANCH   7   8
HETATM    8  C9  UNL     1      13.586   4.755  16.384  1.00  0.00     0.171 C 
BRANCH   8   9
HETATM    9  C8  UNL     1      14.382   4.840  15.124  1.00  0.00     0.026 C 
BRANCH   9  10
HETATM   10  C7  UNL     1      13.692   5.882  14.230  1.00  0.00     0.004 C 
BRANCH  10  11
HETATM   11  C6  UNL     1      12.332   5.386  13.884  1.00  0.00     0.028 C 
BRANCH  11  12
HETATM   12  C5  UNL     1      11.249   6.394  13.902  1.00  0.00     0.236 C 
BRANCH  12  13
HETATM   13  N1  UNL     1      10.370   6.426  15.008  1.00  0.00    -0.073 N 
HETATM   14  C1  UNL     1      10.815   7.420  15.985  1.00  0.00     0.272 C 
HETATM   15  C2  UNL     1      10.146   5.154  15.649  1.00  0.00     0.272 C 
BRANCH  13  16
HETATM   16  C3  UNL     1       9.072   6.890  14.539  1.00  0.00     0.263 C 
BRANCH  16  17
HETATM   17  C4  UNL     1       8.091   7.111  15.655  1.00  0.00     0.257 C 
BRANCH  17  18
HETATM   18  N2  UNL     1       6.908   6.289  15.381  1.00  0.00    -0.078 N 
ATOM     19  H23 UNL     1       6.035   6.807  15.482  1.00  0.00     0.274 HD
ATOM     20  H22 UNL     1       6.811   6.052  14.394  1.00  0.00     0.274 HD
ATOM     21  H21 UNL     1       6.953   5.467  15.984  1.00  0.00     0.274 HD
ENDBRANCH  17  18
ENDBRANCH  16  17
ENDBRANCH  13  16
ENDBRANCH  12  13
ENDBRANCH  11  12
ENDBRANCH  10  11
ENDBRANCH   9  10
ENDBRANCH   8   9
ENDBRANCH   7   8
ENDBRANCH   1   7
BRANCH   6  22
HETATM   22  O4  UNL     1      11.776   2.098  14.800  1.00  0.00    -0.388 OA
ATOM     23  H4  UNL     1      11.509   1.580  14.050  1.00  0.00     0.210 HD
ENDBRANCH   6  22
BRANCH   3  24
HETATM   24  N3  UNL     1      15.624  -0.101  17.737  1.00  0.00    -0.048 N 
ATOM     25  H33 UNL     1      16.553   0.300  17.613  1.00  0.00     0.277 HD
ATOM     26  H32 UNL     1      15.474   0.215  18.694  1.00  0.00     0.277 HD
ATOM     27  H31 UNL     1      15.609  -1.117  17.641  1.00  0.00     0.277 HD
ENDBRANCH   3  24
BRANCH   5  28
HETATM   28  O3  UNL     1      11.922   1.624  17.779  1.00  0.00    -0.388 OA
ATOM     29  H3  UNL     1      12.335   1.298  18.570  1.00  0.00     0.210 HD
ENDBRANCH   5  28
BRANCH   4  30
HETATM   30  N4  UNL     1      13.112  -1.452  16.489  1.00  0.00    -0.038 N 
ATOM     31  H43 UNL     1      13.244  -1.346  15.484  1.00  0.00     0.277 HD
ATOM     32  H42 UNL     1      13.863  -2.117  16.672  1.00  0.00     0.277 HD
ATOM     33  H41 UNL     1      12.197  -1.843  16.713  1.00  0.00     0.277 HD
ENDBRANCH   4  30
BRANCH   4  34
HETATM   34  N5  UNL     1      13.238  -0.431  18.620  1.00  0.00    -0.038 N 
ATOM     35  H53 UNL     1      12.337  -0.829  18.884  1.00  0.00     0.277 HD
ATOM     36  H52 UNL     1      13.843  -1.202  18.902  1.00  0.00     0.277 HD
ATOM     37  H51 UNL     1      13.441   0.414  19.153  1.00  0.00     0.277 HD
ENDBRANCH   4  34
TORSDOF 15
ENDMDL
MODEL 4
REMARK VINA RESULT: -5.172689962      1.282      2.044
REMARK  15 active torsions:
REMARK  status: ('A' for Active; 'I' for Inactive)
REMARK    1  A    between atoms: N1_2  and  C3_4 
REMARK    2  A    between atoms: N1_2  and  C5_10 
REMARK    3  A    between atoms: C3_4  and  C4_5 
REMARK    4  A    between atoms: C4_5  and  N2_6 
REMARK    5  A    between atoms: C5_10  and  C6_11 
REMARK    6  A    between atoms: C6_11  and  C7_12 
REMARK    7  A    between atoms: C7_12  and  C8_13 
REMARK    8  A    between atoms: C8_13  and  C9_14 
REMARK    9  A    between atoms: C9_14  and  O1_15 
REMARK   10  A    between atoms: O1_15  and  C10_16 
REMARK   11  A    between atoms: C11_18  and  N3_19 
REMARK   12  A    between atoms: C12_23  and  N4_24 
REMARK   13  A    between atoms: C12_23  and  N5_28 
REMARK   14  A    between atoms: C13_32  and  O3_33 
REMARK   15  A    between atoms: C14_35  and  O4_36 
ROOT
HETATM    1  C10 UNL     1      14.060   2.436  16.004  1.00  0.00     0.293 C 
HETATM    2  O2  UNL     1      14.866   1.726  16.875  1.00  0.00    -0.322 OA
HETATM    3  C11 UNL     1      14.772   0.361  16.756  1.00  0.00     0.388 C 
HETATM    4  C12 UNL     1      13.409  -0.176  17.155  1.00  0.00     0.360 C 
HETATM    5  C13 UNL     1      12.364   0.822  16.674  1.00  0.00     0.220 C 
HETATM    6  C14 UNL     1      12.989   1.512  15.476  1.00  0.00     0.206 C 
ENDROOT
BRANCH   1   7
HETATM    7  O1  UNL     1      13.564   3.516  16.679  1.00  0.00    -0.358 OA
BRANCH   7   8
HETATM    8  C9  UNL     1      14.027   4.737  16.295  1.00  0.00     0.171 C 
BRANCH   8   9
HETATM    9  C8  UNL     1      13.032   5.848  16.324  1.00  0.00     0.026 C 
BRANCH   9  10
HETATM   10  C7  UNL     1      11.747   5.280  16.943  1.00  0.00     0.004 C 
BRANCH  10  11
HETATM   11  C6  UNL     1      10.673   5.300  15.911  1.00  0.00     0.028 C 
BRANCH  11  12
HETATM   12  C5  UNL     1      10.858   6.259  14.799  1.00  0.00     0.236 C 
BRANCH  12  13
HETATM   13  N1  UNL     1      10.149   7.480  14.832  1.00  0.00    -0.073 N 
HETATM   14  C1  UNL     1       9.631   7.805  13.503  1.00  0.00     0.272 C 
HETATM   15  C2  UNL     1      10.880   8.599  15.375  1.00  0.00     0.272 C 
BRANCH  13  16
HETATM   16  C3  UNL     1       8.978   7.299  15.677  1.00  0.00     0.263 C 
BRANCH  16  17
HETATM   17  C4  UNL     1       7.694   7.250  14.897  1.00  0.00     0.257 C 
BRANCH  17  18
HETATM   18  N2  UNL     1       6.879   6.161  15.442  1.00  0.00    -0.078 N 
ATOM     19  H23 UNL     1       6.789   5.374  14.800  1.00  0.00     0.274 HD
ATOM     20  H22 UNL     1       7.342   5.663  16.203  1.00  0.00     0.274 HD
ATOM     21  H21 UNL     1       5.978   6.553  15.717  1.00  0.00     0.274 HD
ENDBRANCH  17  18
ENDBRANCH  16  17
ENDBRANCH  13  16
ENDBRANCH  12  13
ENDBRANCH  11  12
ENDBRANCH  10  11
ENDBRANCH   9  10
ENDBRANCH   8   9
ENDBRANCH   7   8
ENDBRANCH   1   7
BRANCH   6  22
HETATM   22  O4  UNL     1      12.040   2.175  14.710  1.00  0.00    -0.388 OA
ATOM     23  H4  UNL     1      11.153   1.906  14.914  1.00  0.00     0.210 HD
ENDBRANCH   6  22
BRANCH   3  24
HETATM   24  N3  UNL     1      15.717  -0.213  17.717  1.00  0.00    -0.048 N 
ATOM     25  H33 UNL     1      16.028  -1.151  17.464  1.00  0.00     0.277 HD
ATOM     26  H32 UNL     1      16.633   0.235  17.697  1.00  0.00     0.277 HD
ATOM     27  H31 UNL     1      15.269  -0.171  18.632  1.00  0.00     0.277 HD
ENDBRANCH   3  24
BRANCH   5  28
HETATM   28  O3  UNL     1      12.130   1.740  17.697  1.00  0.00    -0.388 OA
ATOM     29  H3  UNL     1      11.557   2.420  17.364  1.00  0.00     0.210 HD
ENDBRANCH   5  28
BRANCH   4  30
HETATM   30  N4  UNL     1      13.137  -1.424  16.466  1.00  0.00    -0.038 N 
ATOM     31  H43 UNL     1      13.626  -1.480  15.573  1.00  0.00     0.277 HD
ATOM     32  H42 UNL     1      13.577  -2.219  16.929  1.00  0.00     0.277 HD
ATOM     33  H41 UNL     1      12.131  -1.557  16.357  1.00  0.00     0.277 HD
ENDBRANCH   4  30
BRANCH   4  34
HETATM   34  N5  UNL     1      13.308  -0.380  18.582  1.00  0.00    -0.038 N 
ATOM     35  H53 UNL     1      13.938  -1.117  18.896  1.00  0.00     0.277 HD
ATOM     36  H52 UNL     1      13.708   0.404  19.098  1.00  0.00     0.277 HD
ATOM     37  H51 UNL     1      12.348  -0.564  18.872  1.00  0.00     0.277 HD
ENDBRANCH   4  34
TORSDOF 15
ENDMDL
MODEL 5
REMARK VINA RESULT: -5.098125363      2.445      3.765
REMARK  15 active torsions:
REMARK  status: ('A' for Active; 'I' for Inactive)
REMARK    1  A    between atoms: N1_2  and  C3_4 
REMARK    2  A    between atoms: N1_2  and  C5_10 
REMARK    3  A    between atoms: C3_4  and  C4_5 
REMARK    4  A    between atoms: C4_5  and  N2_6 
REMARK    5  A    between atoms: C5_10  and  C6_11 
REMARK    6  A    between atoms: C6_11  and  C7_12 
REMARK    7  A    between atoms: C7_12  and  C8_13 
REMARK    8  A    between atoms: C8_13  and  C9_14 
REMARK    9  A    between atoms: C9_14  and  O1_15 
REMARK   10  A    between atoms: O1_15  and  C10_16 
REMARK   11  A    between atoms: C11_18  and  N3_19 
REMARK   12  A    between atoms: C12_23  and  N4_24 
REMARK   13  A    between atoms: C12_23  and  N5_28 
REMARK   14  A    between atoms: C13_32  and  O3_33 
REMARK   15  A    between atoms: C14_35  and  O4_36 
ROOT
HETATM    1  C10 UNL     1      13.587   2.581  16.084  1.00  0.00     0.293 C 
HETATM    2  O2  UNL     1      14.531   1.957  16.879  1.00  0.00    -0.322 OA
HETATM    3  C11 UNL     1      14.627   0.600  16.694  1.00  0.00     0.388 C 
HETATM    4  C12 UNL     1      13.378  -0.146  17.128  1.00  0.00     0.360 C 
HETATM    5  C13 UNL     1      12.177   0.710  16.748  1.00  0.00     0.220 C 
HETATM    6  C14 UNL     1      12.632   1.536  15.559  1.00  0.00     0.206 C 
ENDROOT
BRANCH   1   7
HETATM    7  O1  UNL     1      12.978   3.547  16.836  1.00  0.00    -0.358 OA
BRANCH   7   8
HETATM    8  C9  UNL     1      13.209   4.837  16.468  1.00  0.00     0.171 C 
BRANCH   8   9
HETATM    9  C8  UNL     1      12.353   5.360  15.364  1.00  0.00     0.026 C 
BRANCH   9  10
HETATM   10  C7  UNL     1      13.296   5.772  14.224  1.00  0.00     0.004 C 
BRANCH  10  11
HETATM   11  C6  UNL     1      14.435   6.537  14.802  1.00  0.00     0.028 C 
BRANCH  11  12
HETATM   12  C5  UNL     1      15.776   6.208  14.269  1.00  0.00     0.236 C 
BRANCH  12  13
HETATM   13  N1  UNL     1      16.826   5.959  15.180  1.00  0.00    -0.073 N 
HETATM   14  C1  UNL     1      16.664   6.775  16.382  1.00  0.00     0.272 C 
HETATM   15  C2  UNL     1      18.155   6.114  14.641  1.00  0.00     0.272 C 
BRANCH  13  16
HETATM   16  C3  UNL     1      16.717   4.577  15.625  1.00  0.00     0.263 C 
BRANCH  16  17
HETATM   17  C4  UNL     1      17.665   3.655  14.911  1.00  0.00     0.257 C 
BRANCH  17  18
HETATM   18  N2  UNL     1      17.037   2.332  14.841  1.00  0.00    -0.078 N 
ATOM     19  H23 UNL     1      17.455   1.733  14.130  1.00  0.00     0.274 HD
ATOM     20  H22 UNL     1      17.249   1.750  15.651  1.00  0.00     0.274 HD
ATOM     21  H21 UNL     1      16.035   2.469  14.704  1.00  0.00     0.274 HD
ENDBRANCH  17  18
ENDBRANCH  16  17
ENDBRANCH  13  16
ENDBRANCH  12  13
ENDBRANCH  11  12
ENDBRANCH  10  11
ENDBRANCH   9  10
ENDBRANCH   8   9
ENDBRANCH   7   8
ENDBRANCH   1   7
BRANCH   6  22
HETATM   22  O4  UNL     1      11.560   2.087  14.873  1.00  0.00    -0.388 OA
ATOM     23  H4  UNL     1      11.247   1.527  14.173  1.00  0.00     0.210 HD
ENDBRANCH   6  22
BRANCH   3  24
HETATM   24  N3  UNL     1      15.694   0.127  17.580  1.00  0.00    -0.048 N 
ATOM     25  H33 UNL     1      16.536  -0.159  17.079  1.00  0.00     0.277 HD
ATOM     26  H32 UNL     1      16.120   0.873  18.130  1.00  0.00     0.277 HD
ATOM     27  H31 UNL     1      15.295  -0.617  18.152  1.00  0.00     0.277 HD
ENDBRANCH   3  24
BRANCH   5  28
HETATM   28  O3  UNL     1      11.869   1.538  17.826  1.00  0.00    -0.388 OA
ATOM     29  H3  UNL     1      12.095   2.430  17.593  1.00  0.00     0.210 HD
ENDBRANCH   5  28
BRANCH   4  30
HETATM   30  N4  UNL     1      13.250  -1.389  16.389  1.00  0.00    -0.038 N 
ATOM     31  H43 UNL     1      12.876  -2.140  16.969  1.00  0.00     0.277 HD
ATOM     32  H42 UNL     1      12.502  -1.345  15.697  1.00  0.00     0.277 HD
ATOM     33  H41 UNL     1      14.143  -1.644  15.967  1.00  0.00     0.277 HD
ENDBRANCH   4  30
BRANCH   4  34
HETATM   34  N5  UNL     1      13.383  -0.425  18.545  1.00  0.00    -0.038 N 
ATOM     35  H53 UNL     1      12.848  -1.266  18.760  1.00  0.00     0.277 HD
ATOM     36  H52 UNL     1      14.303  -0.736  18.859  1.00  0.00     0.277 HD
ATOM     37  H51 UNL     1      13.055   0.372  19.091  1.00  0.00     0.277 HD
ENDBRANCH   4  34
TORSDOF 15
ENDMDL
