MODEL 1
REMARK VINA RESULT: -7.688215536      0.000      0.000
REMARK  6 active torsions:
REMARK  status: ('A' for Active; 'I' for Inactive)
REMARK    1  A    between atoms: C2_2  and  C3_3 
REMARK    2  A    between atoms: C3_3  and  N1_4 
REMARK    3  A    between atoms: C3_3  and  C4_9 
REMARK    4  A    between atoms: C4_9  and  C5_10 
REMARK    5  A    between atoms: C4_9  and  N7_22 
REMARK    6  A    between atoms: C5_10  and  C6_11 
ROOT
HETATM    1  C4  UNL     1     -16.347  56.048  49.651  1.00  0.00     0.129 C 
ENDROOT
BRANCH   1   2
HETATM    2  C3  UNL     1     -15.225  55.440  50.460  1.00  0.00     0.122 C 
BRANCH   2   3
HETATM    3  C2  UNL     1     -14.285  56.526  50.925  1.00  0.00     0.024 C 
HETATM    4  C1  UNL     1     -12.949  56.342  50.220  1.00  0.00     0.007 C 
ENDBRANCH   2   3
BRANCH   2   5
HETATM    5  N1  UNL     1     -14.493  54.476  49.642  1.00  0.00    -0.336 N 
HETATM    6  N2  UNL     1     -14.778  53.268  49.656  1.00  0.00    -0.349 N 
ATOM      7  H22 UNL     1     -15.542  52.958  50.257  1.00  0.00     0.176 HD
ATOM      8  H21 UNL     1     -14.267  52.595  49.085  1.00  0.00     0.176 HD
ATOM      9  H1  UNL     1     -13.731  54.802  49.047  1.00  0.00     0.180 HD
ENDBRANCH   2   5
ENDBRANCH   1   2
BRANCH   1  10
HETATM   10  C5  UNL     1     -16.495  57.492  49.946  1.00  0.00     0.106 C 
BRANCH  10  11
HETATM   11  C6  UNL     1     -16.173  58.365  48.786  1.00  0.00     0.114 A 
HETATM   12  N3  UNL     1     -15.023  58.497  48.111  1.00  0.00    -0.274 N 
HETATM   13  N4  UNL     1     -15.150  59.383  47.141  1.00  0.00    -0.131 N 
ATOM     14  H3  UNL     1     -14.168  57.983  48.319  1.00  0.00     0.189 HD
HETATM   15  C7  UNL     1     -16.413  59.839  47.185  1.00  0.00     0.691 A 
ATOM     16  H4  UNL     1     -14.425  59.668  46.482  1.00  0.00     0.205 HD
HETATM   17  N5  UNL     1     -16.882  60.731  46.363  1.00  0.00    -0.233 N 
HETATM   18  N6  UNL     1     -17.036  59.210  48.198  1.00  0.00    -0.178 N 
ATOM     19  H52 UNL     1     -16.409  61.208  45.595  1.00  0.00     0.174 HD
ATOM     20  H51 UNL     1     -17.841  61.076  46.396  1.00  0.00     0.174 HD
ATOM     21  H6  UNL     1     -18.007  59.351  48.475  1.00  0.00     0.185 HD
ENDBRANCH  10  11
ENDBRANCH   1  10
BRANCH   1  22
HETATM   22  N7  UNL     1     -17.561  55.296  49.779  1.00  0.00    -0.254 N 
HETATM   23  C8  UNL     1     -17.794  54.217  50.668  1.00  0.00     0.332 A 
HETATM   24  O1  UNL     1     -17.004  53.706  51.509  1.00  0.00    -0.246 OA
HETATM   25  N8  UNL     1     -19.143  53.737  50.481  1.00  0.00    -0.271 N 
HETATM   26  C9  UNL     1     -19.763  54.520  49.468  1.00  0.00     0.318 A 
ATOM     27  H8  UNL     1     -19.578  52.967  50.989  1.00  0.00     0.174 HD
HETATM   28  O2  UNL     1     -20.944  54.340  49.082  1.00  0.00    -0.262 OA
HETATM   29  C10 UNL     1     -18.767  55.478  49.049  1.00  0.00     0.320 A 
HETATM   30  O3  UNL     1     -18.975  56.343  48.152  1.00  0.00    -0.262 OA
ENDBRANCH   1  22
TORSDOF 6
ENDMDL
MODEL 2
REMARK VINA RESULT: -7.433339752      0.779      1.788
REMARK  6 active torsions:
REMARK  status: ('A' for Active; 'I' for Inactive)
REMARK    1  A    between atoms: C2_2  and  C3_3 
REMARK    2  A    between atoms: C3_3  and  N1_4 
REMARK    3  A    between atoms: C3_3  and  C4_9 
REMARK    4  A    between atoms: C4_9  and  C5_10 
REMARK    5  A    between atoms: C4_9  and  N7_22 
REMARK    6  A    between atoms: C5_10  and  C6_11 
ROOT
HETATM    1  C4  UNL     1     -16.455  56.048  49.624  1.00  0.00     0.129 C 
ENDROOT
BRANCH   1   2
HETATM    2  C3  UNL     1     -15.302  55.499  50.431  1.00  0.00     0.122 C 
BRANCH   2   3
HETATM    3  C2  UNL     1     -14.360  56.620  50.802  1.00  0.00     0.024 C 
HETATM    4  C1  UNL     1     -12.998  56.329  50.188  1.00  0.00     0.007 C 
ENDBRANCH   2   3
BRANCH   2   5
HETATM    5  N1  UNL     1     -14.584  54.497  49.646  1.00  0.00    -0.336 N 
HETATM    6  N2  UNL     1     -14.885  53.293  49.704  1.00  0.00    -0.349 N 
ATOM      7  H22 UNL     1     -15.652  53.016  50.317  1.00  0.00     0.176 HD
ATOM      8  H21 UNL     1     -14.384  52.594  49.157  1.00  0.00     0.176 HD
ATOM      9  H1  UNL     1     -13.819  54.791  49.038  1.00  0.00     0.180 HD
ENDBRANCH   2   5
ENDBRANCH   1   2
BRANCH   1  10
HETATM   10  C5  UNL     1     -16.655  57.491  49.892  1.00  0.00     0.106 C 
BRANCH  10  11
HETATM   11  C6  UNL     1     -16.278  58.359  48.745  1.00  0.00     0.114 A 
HETATM   12  N3  UNL     1     -15.102  58.476  48.115  1.00  0.00    -0.274 N 
HETATM   13  N4  UNL     1     -15.180  59.364  47.140  1.00  0.00    -0.131 N 
ATOM     14  H3  UNL     1     -14.262  57.952  48.355  1.00  0.00     0.189 HD
HETATM   15  C7  UNL     1     -16.438  59.835  47.137  1.00  0.00     0.691 A 
ATOM     16  H4  UNL     1     -14.427  59.639  46.510  1.00  0.00     0.205 HD
HETATM   17  N5  UNL     1     -16.864  60.733  46.297  1.00  0.00    -0.233 N 
HETATM   18  N6  UNL     1     -17.107  59.215  48.125  1.00  0.00    -0.178 N 
ATOM     19  H52 UNL     1     -16.357  61.204  45.548  1.00  0.00     0.174 HD
ATOM     20  H51 UNL     1     -17.819  61.091  46.294  1.00  0.00     0.174 HD
ATOM     21  H6  UNL     1     -18.086  59.369  48.365  1.00  0.00     0.185 HD
ENDBRANCH  10  11
ENDBRANCH   1  10
BRANCH   1  22
HETATM   22  N7  UNL     1     -17.639  55.253  49.783  1.00  0.00    -0.254 N 
HETATM   23  C8  UNL     1     -18.827  55.349  49.017  1.00  0.00     0.332 A 
HETATM   24  O1  UNL     1     -19.086  56.131  48.061  1.00  0.00    -0.246 OA
HETATM   25  N8  UNL     1     -19.775  54.371  49.497  1.00  0.00    -0.271 N 
HETATM   26  C9  UNL     1     -19.179  53.656  50.572  1.00  0.00     0.318 A 
ATOM     27  H8  UNL     1     -20.714  54.219  49.128  1.00  0.00     0.174 HD
HETATM   28  O2  UNL     1     -19.762  52.736  51.197  1.00  0.00    -0.262 OA
HETATM   29  C10 UNL     1     -17.858  54.217  50.732  1.00  0.00     0.320 A 
HETATM   30  O3  UNL     1     -17.039  53.817  51.606  1.00  0.00    -0.262 OA
ENDBRANCH   1  22
TORSDOF 6
ENDMDL
MODEL 3
REMARK VINA RESULT: -7.338437163      2.322      5.672
REMARK  6 active torsions:
REMARK  status: ('A' for Active; 'I' for Inactive)
REMARK    1  A    between atoms: C2_2  and  C3_3 
REMARK    2  A    between atoms: C3_3  and  N1_4 
REMARK    3  A    between atoms: C3_3  and  C4_9 
REMARK    4  A    between atoms: C4_9  and  C5_10 
REMARK    5  A    between atoms: C4_9  and  N7_22 
REMARK    6  A    between atoms: C5_10  and  C6_11 
ROOT
HETATM    1  C4  UNL     1     -17.157  55.713  49.040  1.00  0.00     0.129 C 
ENDROOT
BRANCH   1   2
HETATM    2  C3  UNL     1     -17.985  55.725  50.303  1.00  0.00     0.122 C 
BRANCH   2   3
HETATM    3  C2  UNL     1     -19.452  55.649  49.954  1.00  0.00     0.024 C 
HETATM    4  C1  UNL     1     -19.727  54.293  49.321  1.00  0.00     0.007 C 
ENDBRANCH   2   3
BRANCH   2   5
HETATM    5  N1  UNL     1     -17.724  56.952  51.053  1.00  0.00    -0.336 N 
HETATM    6  N2  UNL     1     -17.162  56.926  52.160  1.00  0.00    -0.349 N 
ATOM      7  H22 UNL     1     -16.884  56.022  52.540  1.00  0.00     0.176 HD
ATOM      8  H21 UNL     1     -16.981  57.783  52.683  1.00  0.00     0.176 HD
ATOM      9  H1  UNL     1     -18.009  57.849  50.658  1.00  0.00     0.180 HD
ENDBRANCH   2   5
ENDBRANCH   1   2
BRANCH   1  10
HETATM   10  C5  UNL     1     -15.990  54.813  49.175  1.00  0.00     0.106 C 
BRANCH  10  11
HETATM   11  C6  UNL     1     -15.893  54.175  50.516  1.00  0.00     0.114 A 
HETATM   12  N3  UNL     1     -14.913  54.247  51.426  1.00  0.00    -0.274 N 
HETATM   13  N4  UNL     1     -15.212  53.530  52.493  1.00  0.00    -0.131 N 
ATOM     14  H3  UNL     1     -14.054  54.784  51.310  1.00  0.00     0.189 HD
HETATM   15  C7  UNL     1     -16.416  52.977  52.271  1.00  0.00     0.691 A 
ATOM     16  H4  UNL     1     -14.637  53.417  53.327  1.00  0.00     0.205 HD
HETATM   17  N5  UNL     1     -17.016  52.201  53.126  1.00  0.00    -0.233 N 
HETATM   18  N6  UNL     1     -16.829  53.376  51.055  1.00  0.00    -0.178 N 
ATOM     19  H52 UNL     1     -16.703  51.898  54.048  1.00  0.00     0.174 HD
ATOM     20  H51 UNL     1     -17.930  51.782  52.958  1.00  0.00     0.174 HD
ATOM     21  H6  UNL     1     -17.710  53.115  50.614  1.00  0.00     0.185 HD
ENDBRANCH  10  11
ENDBRANCH   1  10
BRANCH   1  22
HETATM   22  N7  UNL     1     -16.827  57.042  48.610  1.00  0.00    -0.254 N 
HETATM   23  C8  UNL     1     -15.727  57.820  49.050  1.00  0.00     0.332 A 
HETATM   24  O1  UNL     1     -14.833  57.516  49.887  1.00  0.00    -0.246 OA
HETATM   25  N8  UNL     1     -15.755  59.096  48.374  1.00  0.00    -0.271 N 
HETATM   26  C9  UNL     1     -16.880  59.120  47.503  1.00  0.00     0.318 A 
ATOM     27  H8  UNL     1     -15.082  59.852  48.500  1.00  0.00     0.174 HD
HETATM   28  O2  UNL     1     -17.170  60.102  46.777  1.00  0.00    -0.262 OA
HETATM   29  C10 UNL     1     -17.528  57.839  47.665  1.00  0.00     0.320 A 
HETATM   30  O3  UNL     1     -18.573  57.510  47.036  1.00  0.00    -0.262 OA
ENDBRANCH   1  22
TORSDOF 6
ENDMDL
MODEL 4
REMARK VINA RESULT: -7.286905543      2.752      6.162
REMARK  6 active torsions:
REMARK  status: ('A' for Active; 'I' for Inactive)
REMARK    1  A    between atoms: C2_2  and  C3_3 
REMARK    2  A    between atoms: C3_3  and  N1_4 
REMARK    3  A    between atoms: C3_3  and  C4_9 
REMARK    4  A    between atoms: C4_9  and  C5_10 
REMARK    5  A    between atoms: C4_9  and  N7_22 
REMARK    6  A    between atoms: C5_10  and  C6_11 
ROOT
HETATM    1  C4  UNL     1     -17.027  56.323  49.347  1.00  0.00     0.129 C 
ENDROOT
BRANCH   1   2
HETATM    2  C3  UNL     1     -17.857  56.667  50.561  1.00  0.00     0.122 C 
BRANCH   2   3
HETATM    3  C2  UNL     1     -18.727  57.864  50.263  1.00  0.00     0.024 C 
HETATM    4  C1  UNL     1     -19.796  57.448  49.263  1.00  0.00     0.007 C 
ENDBRANCH   2   3
BRANCH   2   5
HETATM    5  N1  UNL     1     -16.979  56.969  51.690  1.00  0.00    -0.336 N 
HETATM    6  N2  UNL     1     -17.437  57.321  52.789  1.00  0.00    -0.349 N 
ATOM      7  H22 UNL     1     -18.449  57.396  52.889  1.00  0.00     0.176 HD
ATOM      8  H21 UNL     1     -16.824  57.532  53.576  1.00  0.00     0.176 HD
ATOM      9  H1  UNL     1     -15.969  56.889  51.572  1.00  0.00     0.180 HD
ENDBRANCH   2   5
ENDBRANCH   1   2
BRANCH   1  10
HETATM   10  C5  UNL     1     -17.220  54.909  48.952  1.00  0.00     0.106 C 
BRANCH  10  11
HETATM   11  C6  UNL     1     -17.868  54.088  50.009  1.00  0.00     0.114 A 
HETATM   12  N3  UNL     1     -19.127  53.637  50.086  1.00  0.00    -0.274 N 
HETATM   13  N4  UNL     1     -19.307  52.940  51.193  1.00  0.00    -0.131 N 
ATOM     14  H3  UNL     1     -19.847  53.808  49.385  1.00  0.00     0.189 HD
HETATM   15  C7  UNL     1     -18.136  52.938  51.853  1.00  0.00     0.691 A 
ATOM     16  H4  UNL     1     -20.172  52.489  51.491  1.00  0.00     0.205 HD
HETATM   17  N5  UNL     1     -17.958  52.338  52.993  1.00  0.00    -0.233 N 
HETATM   18  N6  UNL     1     -17.257  53.645  51.121  1.00  0.00    -0.178 N 
ATOM     19  H52 UNL     1     -18.625  51.802  53.548  1.00  0.00     0.174 HD
ATOM     20  H51 UNL     1     -17.069  52.336  53.494  1.00  0.00     0.174 HD
ATOM     21  H6  UNL     1     -16.283  53.817  51.369  1.00  0.00     0.185 HD
ENDBRANCH  10  11
ENDBRANCH   1  10
BRANCH   1  22
HETATM   22  N7  UNL     1     -15.654  56.703  49.518  1.00  0.00    -0.254 N 
HETATM   23  C8  UNL     1     -15.033  57.868  49.004  1.00  0.00     0.332 A 
HETATM   24  O1  UNL     1     -15.541  58.791  48.310  1.00  0.00    -0.246 OA
HETATM   25  N8  UNL     1     -13.644  57.874  49.402  1.00  0.00    -0.271 N 
HETATM   26  C9  UNL     1     -13.392  56.704  50.171  1.00  0.00     0.318 A 
ATOM     27  H8  UNL     1     -12.960  58.594  49.171  1.00  0.00     0.174 HD
HETATM   28  O2  UNL     1     -12.269  56.428  50.660  1.00  0.00    -0.262 OA
HETATM   29  C10 UNL     1     -14.648  55.995  50.230  1.00  0.00     0.320 A 
HETATM   30  O3  UNL     1     -14.794  54.898  50.840  1.00  0.00    -0.262 OA
ENDBRANCH   1  22
TORSDOF 6
ENDMDL
MODEL 5
REMARK VINA RESULT: -7.130687915      1.858      3.732
REMARK  6 active torsions:
REMARK  status: ('A' for Active; 'I' for Inactive)
REMARK    1  A    between atoms: C2_2  and  C3_3 
REMARK    2  A    between atoms: C3_3  and  N1_4 
REMARK    3  A    between atoms: C3_3  and  C4_9 
REMARK    4  A    between atoms: C4_9  and  C5_10 
REMARK    5  A    between atoms: C4_9  and  N7_22 
REMARK    6  A    between atoms: C5_10  and  C6_11 
ROOT
HETATM    1  C4  UNL     1     -17.700  57.115  49.989  1.00  0.00     0.129 C 
ENDROOT
BRANCH   1   2
HETATM    2  C3  UNL     1     -16.906  57.500  48.763  1.00  0.00     0.122 C 
BRANCH   2   3
HETATM    3  C2  UNL     1     -17.197  58.936  48.397  1.00  0.00     0.024 C 
HETATM    4  C1  UNL     1     -16.050  59.458  47.544  1.00  0.00     0.007 C 
ENDBRANCH   2   3
BRANCH   2   5
HETATM    5  N1  UNL     1     -17.266  56.628  47.648  1.00  0.00    -0.336 N 
HETATM    6  N2  UNL     1     -18.007  57.021  46.732  1.00  0.00    -0.349 N 
ATOM      7  H22 UNL     1     -18.363  57.976  46.775  1.00  0.00     0.176 HD
ATOM      8  H21 UNL     1     -18.258  56.412  45.954  1.00  0.00     0.176 HD
ATOM      9  H1  UNL     1     -16.901  55.675  47.620  1.00  0.00     0.180 HD
ENDBRANCH   2   5
ENDBRANCH   1   2
BRANCH   1  10
HETATM   10  C5  UNL     1     -16.808  56.656  51.079  1.00  0.00     0.106 C 
BRANCH  10  11
HETATM   11  C6  UNL     1     -15.482  56.187  50.595  1.00  0.00     0.114 A 
HETATM   12  N3  UNL     1     -15.178  55.129  49.833  1.00  0.00    -0.274 N 
HETATM   13  N4  UNL     1     -13.876  55.060  49.628  1.00  0.00    -0.131 N 
ATOM     14  H3  UNL     1     -15.860  54.468  49.462  1.00  0.00     0.189 HD
HETATM   15  C7  UNL     1     -13.319  56.099  50.273  1.00  0.00     0.691 A 
ATOM     16  H4  UNL     1     -13.386  54.351  49.082  1.00  0.00     0.205 HD
HETATM   17  N5  UNL     1     -12.040  56.335  50.280  1.00  0.00    -0.233 N 
HETATM   18  N6  UNL     1     -14.311  56.787  50.865  1.00  0.00    -0.178 N 
ATOM     19  H52 UNL     1     -11.288  55.813  49.830  1.00  0.00     0.174 HD
ATOM     20  H51 UNL     1     -11.617  57.124  50.769  1.00  0.00     0.174 HD
ATOM     21  H6  UNL     1     -14.193  57.629  51.429  1.00  0.00     0.185 HD
ENDBRANCH  10  11
ENDBRANCH   1  10
BRANCH   1  22
HETATM   22  N7  UNL     1     -18.756  56.198  49.670  1.00  0.00    -0.254 N 
HETATM   23  C8  UNL     1     -18.721  54.789  49.815  1.00  0.00     0.332 A 
HETATM   24  O1  UNL     1     -17.780  54.066  50.243  1.00  0.00    -0.246 OA
HETATM   25  N8  UNL     1     -19.985  54.241  49.382  1.00  0.00    -0.271 N 
HETATM   26  C9  UNL     1     -20.821  55.313  48.962  1.00  0.00     0.318 A 
ATOM     27  H8  UNL     1     -20.236  53.252  49.377  1.00  0.00     0.174 HD
HETATM   28  O2  UNL     1     -21.988  55.150  48.530  1.00  0.00    -0.262 OA
HETATM   29  C10 UNL     1     -20.041  56.514  49.150  1.00  0.00     0.320 A 
HETATM   30  O3  UNL     1     -20.475  57.669  48.876  1.00  0.00    -0.262 OA
ENDBRANCH   1  22
TORSDOF 6
ENDMDL
