MODEL 1
REMARK VINA RESULT: -6.567625305      0.000      0.000
REMARK  5 active torsions:
REMARK  status: ('A' for Active; 'I' for Inactive)
REMARK    1  A    between atoms: C1_2  and  C2_4 
REMARK    2  A    between atoms: C2_4  and  N2_5 
REMARK       I    between atoms: N4_9  and  C4_11 
REMARK       I    between atoms: C4_11  and  N5_13 
REMARK    3  A    between atoms: N5_13  and  C5_15 
REMARK    4  A    between atoms: C5_15  and  C6_16 
REMARK    5  A    between atoms: C6_16  and  N6_17 
ROOT
HETATM    1  N2  UNL     1     -17.856  57.142  49.402  1.00  0.00    -0.232 N 
HETATM    2  N3  UNL     1     -17.095  56.456  50.218  1.00  0.00    -0.274 N 
ATOM      3  H3  UNL     1     -16.273  56.911  50.614  1.00  0.00     0.189 HD
HETATM    4  C3  UNL     1     -17.353  55.153  50.566  1.00  0.00     0.194 A 
HETATM    5  N4  UNL     1     -16.566  54.624  51.326  1.00  0.00    -0.289 N 
ATOM      6  H4  UNL     1     -15.872  55.347  51.518  1.00  0.00     0.172 HD
HETATM    7  C4  UNL     1     -16.153  53.567  52.038  1.00  0.00     0.321 C 
HETATM    8  O2  UNL     1     -16.881  52.543  52.285  1.00  0.00    -0.247 OA
HETATM    9  N5  UNL     1     -14.822  53.552  52.567  1.00  0.00    -0.341 N 
ATOM     10  H5  UNL     1     -14.252  54.374  52.365  1.00  0.00     0.164 HD
HETATM   11  C8  UNL     1     -18.498  54.598  49.985  1.00  0.00     0.295 A 
HETATM   12  O3  UNL     1     -18.746  53.414  50.297  1.00  0.00    -0.264 OA
HETATM   13  N9  UNL     1     -19.279  55.296  49.149  1.00  0.00    -0.271 N 
ATOM     14  H9  UNL     1     -20.110  54.872  48.736  1.00  0.00     0.174 HD
HETATM   15  C9  UNL     1     -18.945  56.568  48.866  1.00  0.00     0.344 A 
HETATM   16  O4  UNL     1     -19.636  57.264  48.094  1.00  0.00    -0.245 OA
ENDROOT
BRANCH   1  17
HETATM   17  C2  UNL     1     -17.493  58.544  49.116  1.00  0.00     0.253 C 
BRANCH  17  18
HETATM   18  C1  UNL     1     -16.246  58.573  48.322  1.00  0.00     0.251 C 
HETATM   19  N1  UNL     1     -16.175  59.060  46.991  1.00  0.00    -0.061 NA
HETATM   20  O1  UNL     1     -15.170  58.137  48.855  1.00  0.00    -0.275 OA
ENDBRANCH  17  18
ENDBRANCH   1  17
BRANCH   9  21
HETATM   21  C5  UNL     1     -14.198  52.539  53.335  1.00  0.00     0.144 C 
BRANCH  21  22
HETATM   22  C6  UNL     1     -12.861  53.018  53.861  1.00  0.00     0.141 C 
BRANCH  22  23
HETATM   23  N6  UNL     1     -12.428  52.109  54.886  1.00  0.00    -0.365 N 
HETATM   24  C7  UNL     1     -12.364  52.426  56.103  1.00  0.00     0.197 C 
HETATM   25  N7  UNL     1     -12.719  53.712  56.557  1.00  0.00    -0.067 NA
HETATM   26  N8  UNL     1     -11.923  51.481  57.100  1.00  0.00    -0.067 NA
ATOM     27  H6  UNL     1     -12.159  51.163  54.615  1.00  0.00     0.161 HD
ENDBRANCH  22  23
ENDBRANCH  21  22
ENDBRANCH   9  21
TORSDOF 5
ENDMDL
MODEL 2
REMARK VINA RESULT: -6.056325753      1.057      1.111
REMARK  5 active torsions:
REMARK  status: ('A' for Active; 'I' for Inactive)
REMARK    1  A    between atoms: C1_2  and  C2_4 
REMARK    2  A    between atoms: C2_4  and  N2_5 
REMARK       I    between atoms: N4_9  and  C4_11 
REMARK       I    between atoms: C4_11  and  N5_13 
REMARK    3  A    between atoms: N5_13  and  C5_15 
REMARK    4  A    between atoms: C5_15  and  C6_16 
REMARK    5  A    between atoms: C6_16  and  N6_17 
ROOT
HETATM    1  N2  UNL     1     -16.901  57.008  48.605  1.00  0.00    -0.232 N 
HETATM    2  N3  UNL     1     -16.283  56.365  49.565  1.00  0.00    -0.274 N 
ATOM      3  H3  UNL     1     -15.414  56.753  49.929  1.00  0.00     0.189 HD
HETATM    4  C3  UNL     1     -16.753  55.193  50.103  1.00  0.00     0.194 A 
HETATM    5  N4  UNL     1     -16.084  54.689  50.983  1.00  0.00    -0.289 N 
ATOM      6  H4  UNL     1     -15.293  55.322  51.096  1.00  0.00     0.172 HD
HETATM    7  C4  UNL     1     -15.866  53.717  51.880  1.00  0.00     0.321 C 
HETATM    8  O2  UNL     1     -16.753  52.869  52.247  1.00  0.00    -0.247 OA
HETATM    9  N5  UNL     1     -14.572  53.594  52.481  1.00  0.00    -0.341 N 
ATOM     10  H5  UNL     1     -13.874  54.275  52.183  1.00  0.00     0.164 HD
HETATM   11  C8  UNL     1     -17.951  54.724  49.553  1.00  0.00     0.295 A 
HETATM   12  O3  UNL     1     -18.392  53.659  50.038  1.00  0.00    -0.264 OA
HETATM   13  N9  UNL     1     -18.585  55.379  48.571  1.00  0.00    -0.271 N 
ATOM     14  H9  UNL     1     -19.458  55.019  48.184  1.00  0.00     0.174 HD
HETATM   15  C9  UNL     1     -18.048  56.521  48.105  1.00  0.00     0.344 A 
HETATM   16  O4  UNL     1     -18.596  57.171  47.192  1.00  0.00    -0.245 OA
ENDROOT
BRANCH   1  17
HETATM   17  C2  UNL     1     -16.314  58.272  48.117  1.00  0.00     0.253 C 
BRANCH  17  18
HETATM   18  C1  UNL     1     -17.344  59.332  48.143  1.00  0.00     0.251 C 
HETATM   19  N1  UNL     1     -17.465  60.332  47.145  1.00  0.00    -0.061 NA
HETATM   20  O1  UNL     1     -18.174  59.356  49.114  1.00  0.00    -0.275 OA
ENDBRANCH  17  18
ENDBRANCH   1  17
BRANCH   9  21
HETATM   21  C5  UNL     1     -14.139  52.644  53.439  1.00  0.00     0.144 C 
BRANCH  21  22
HETATM   22  C6  UNL     1     -12.766  53.006  53.965  1.00  0.00     0.141 C 
BRANCH  22  23
HETATM   23  N6  UNL     1     -12.447  52.113  55.045  1.00  0.00    -0.365 N 
HETATM   24  C7  UNL     1     -12.427  52.473  56.251  1.00  0.00     0.197 C 
HETATM   25  N7  UNL     1     -12.721  53.797  56.638  1.00  0.00    -0.067 NA
HETATM   26  N8  UNL     1     -12.100  51.542  57.304  1.00  0.00    -0.067 NA
ATOM     27  H6  UNL     1     -12.227  51.142  54.823  1.00  0.00     0.161 HD
ENDBRANCH  22  23
ENDBRANCH  21  22
ENDBRANCH   9  21
TORSDOF 5
ENDMDL
MODEL 3
REMARK VINA RESULT: -4.988205686      0.909      1.166
REMARK  5 active torsions:
REMARK  status: ('A' for Active; 'I' for Inactive)
REMARK    1  A    between atoms: C1_2  and  C2_4 
REMARK    2  A    between atoms: C2_4  and  N2_5 
REMARK       I    between atoms: N4_9  and  C4_11 
REMARK       I    between atoms: C4_11  and  N5_13 
REMARK    3  A    between atoms: N5_13  and  C5_15 
REMARK    4  A    between atoms: C5_15  and  C6_16 
REMARK    5  A    between atoms: C6_16  and  N6_17 
ROOT
HETATM    1  N2  UNL     1     -18.126  57.242  49.283  1.00  0.00    -0.232 N 
HETATM    2  N3  UNL     1     -17.479  56.461  50.111  1.00  0.00    -0.274 N 
ATOM      3  H3  UNL     1     -16.652  56.828  50.581  1.00  0.00     0.189 HD
HETATM    4  C3  UNL     1     -17.863  55.169  50.376  1.00  0.00     0.194 A 
HETATM    5  N4  UNL     1     -17.175  54.544  51.158  1.00  0.00    -0.289 N 
ATOM      6  H4  UNL     1     -16.440  55.197  51.430  1.00  0.00     0.172 HD
HETATM    7  C4  UNL     1     -16.898  53.425  51.842  1.00  0.00     0.321 C 
HETATM    8  O2  UNL     1     -17.720  52.455  51.991  1.00  0.00    -0.247 OA
HETATM    9  N5  UNL     1     -15.610  53.277  52.453  1.00  0.00    -0.341 N 
ATOM     10  H5  UNL     1     -14.964  54.056  52.329  1.00  0.00     0.164 HD
HETATM   11  C8  UNL     1     -19.007  54.738  49.696  1.00  0.00     0.295 A 
HETATM   12  O3  UNL     1     -19.370  53.565  49.933  1.00  0.00    -0.264 OA
HETATM   13  N9  UNL     1     -19.671  55.534  48.848  1.00  0.00    -0.271 N 
ATOM     14  H9  UNL     1     -20.504  55.199  48.362  1.00  0.00     0.174 HD
HETATM   15  C9  UNL     1     -19.218  56.786  48.650  1.00  0.00     0.344 A 
HETATM   16  O4  UNL     1     -19.798  57.570  47.871  1.00  0.00    -0.245 OA
ENDROOT
BRANCH   1  17
HETATM   17  C2  UNL     1     -17.633  58.620  49.090  1.00  0.00     0.253 C 
BRANCH  17  18
HETATM   18  C1  UNL     1     -16.346  58.582  48.364  1.00  0.00     0.251 C 
HETATM   19  N1  UNL     1     -16.169  59.096  47.054  1.00  0.00    -0.061 NA
HETATM   20  O1  UNL     1     -15.333  58.058  48.940  1.00  0.00    -0.275 OA
ENDBRANCH  17  18
ENDBRANCH   1  17
BRANCH   9  21
HETATM   21  C5  UNL     1     -15.123  52.182  53.209  1.00  0.00     0.144 C 
BRANCH  21  22
HETATM   22  C6  UNL     1     -14.110  52.651  54.232  1.00  0.00     0.141 C 
BRANCH  22  23
HETATM   23  N6  UNL     1     -12.795  52.432  53.696  1.00  0.00    -0.365 N 
HETATM   24  C7  UNL     1     -11.812  52.090  54.406  1.00  0.00     0.197 C 
HETATM   25  N7  UNL     1     -11.931  51.893  55.797  1.00  0.00    -0.067 NA
HETATM   26  N8  UNL     1     -10.508  51.881  53.826  1.00  0.00    -0.067 NA
ATOM     27  H6  UNL     1     -12.650  52.559  52.694  1.00  0.00     0.161 HD
ENDBRANCH  22  23
ENDBRANCH  21  22
ENDBRANCH   9  21
TORSDOF 5
ENDMDL
MODEL 4
REMARK VINA RESULT: -4.950573327      1.760      3.056
REMARK  5 active torsions:
REMARK  status: ('A' for Active; 'I' for Inactive)
REMARK    1  A    between atoms: C1_2  and  C2_4 
REMARK    2  A    between atoms: C2_4  and  N2_5 
REMARK       I    between atoms: N4_9  and  C4_11 
REMARK       I    between atoms: C4_11  and  N5_13 
REMARK    3  A    between atoms: N5_13  and  C5_15 
REMARK    4  A    between atoms: C5_15  and  C6_16 
REMARK    5  A    between atoms: C6_16  and  N6_17 
ROOT
HETATM    1  N2  UNL     1     -18.205  57.400  49.669  1.00  0.00    -0.232 N 
HETATM    2  N3  UNL     1     -17.978  56.291  50.329  1.00  0.00    -0.274 N 
ATOM      3  H3  UNL     1     -18.774  55.776  50.703  1.00  0.00     0.189 HD
HETATM    4  C3  UNL     1     -16.717  55.790  50.540  1.00  0.00     0.194 A 
HETATM    5  N4  UNL     1     -16.639  54.757  51.174  1.00  0.00    -0.289 N 
ATOM      6  H4  UNL     1     -17.606  54.519  51.395  1.00  0.00     0.172 HD
HETATM    7  C4  UNL     1     -15.917  53.773  51.728  1.00  0.00     0.321 C 
HETATM    8  O2  UNL     1     -14.686  53.549  51.458  1.00  0.00    -0.247 OA
HETATM    9  N5  UNL     1     -16.534  52.903  52.685  1.00  0.00    -0.341 N 
ATOM     10  H5  UNL     1     -17.515  53.090  52.891  1.00  0.00     0.164 HD
HETATM   11  C8  UNL     1     -15.676  56.551  49.996  1.00  0.00     0.295 A 
HETATM   12  O3  UNL     1     -14.524  56.103  50.177  1.00  0.00    -0.264 OA
HETATM   13  N9  UNL     1     -15.905  57.686  49.321  1.00  0.00    -0.271 N 
ATOM     14  H9  UNL     1     -15.131  58.226  48.933  1.00  0.00     0.174 HD
HETATM   15  C9  UNL     1     -17.176  58.100  49.166  1.00  0.00     0.344 A 
HETATM   16  O4  UNL     1     -17.445  59.149  48.547  1.00  0.00    -0.245 OA
ENDROOT
BRANCH   1  17
HETATM   17  C2  UNL     1     -19.604  57.833  49.486  1.00  0.00     0.253 C 
BRANCH  17  18
HETATM   18  C1  UNL     1     -20.386  56.723  48.900  1.00  0.00     0.251 C 
HETATM   19  N1  UNL     1     -20.194  55.361  49.246  1.00  0.00    -0.061 NA
HETATM   20  O1  UNL     1     -21.285  56.996  48.034  1.00  0.00    -0.275 OA
ENDBRANCH  17  18
ENDBRANCH   1  17
BRANCH   9  21
HETATM   21  C5  UNL     1     -15.951  51.816  53.381  1.00  0.00     0.144 C 
BRANCH  21  22
HETATM   22  C6  UNL     1     -14.942  52.313  54.395  1.00  0.00     0.141 C 
BRANCH  22  23
HETATM   23  N6  UNL     1     -13.625  52.029  53.897  1.00  0.00    -0.365 N 
HETATM   24  C7  UNL     1     -12.577  52.247  54.561  1.00  0.00     0.197 C 
HETATM   25  N7  UNL     1     -12.619  52.791  55.861  1.00  0.00    -0.067 NA
HETATM   26  N8  UNL     1     -11.274  51.946  54.021  1.00  0.00    -0.067 NA
ATOM     27  H6  UNL     1     -13.534  51.633  52.961  1.00  0.00     0.161 HD
ENDBRANCH  22  23
ENDBRANCH  21  22
ENDBRANCH   9  21
TORSDOF 5
ENDMDL
MODEL 5
REMARK VINA RESULT: -4.813882376      1.849      3.063
REMARK  5 active torsions:
REMARK  status: ('A' for Active; 'I' for Inactive)
REMARK    1  A    between atoms: C1_2  and  C2_4 
REMARK    2  A    between atoms: C2_4  and  N2_5 
REMARK       I    between atoms: N4_9  and  C4_11 
REMARK       I    between atoms: C4_11  and  N5_13 
REMARK    3  A    between atoms: N5_13  and  C5_15 
REMARK    4  A    between atoms: C5_15  and  C6_16 
REMARK    5  A    between atoms: C6_16  and  N6_17 
ROOT
HETATM    1  N2  UNL     1     -17.488  57.188  48.577  1.00  0.00    -0.232 N 
HETATM    2  N3  UNL     1     -17.369  56.139  49.352  1.00  0.00    -0.274 N 
ATOM      3  H3  UNL     1     -18.145  55.479  49.398  1.00  0.00     0.189 HD
HETATM    4  C3  UNL     1     -16.248  55.887  50.104  1.00  0.00     0.194 A 
HETATM    5  N4  UNL     1     -16.264  54.883  50.788  1.00  0.00    -0.289 N 
ATOM      6  H4  UNL     1     -17.176  54.464  50.605  1.00  0.00     0.172 HD
HETATM    7  C4  UNL     1     -15.683  54.052  51.664  1.00  0.00     0.321 C 
HETATM    8  O2  UNL     1     -14.435  54.070  51.948  1.00  0.00    -0.247 OA
HETATM    9  N5  UNL     1     -16.483  53.074  52.341  1.00  0.00    -0.341 N 
ATOM     10  H5  UNL     1     -17.475  53.068  52.106  1.00  0.00     0.164 HD
HETATM   11  C8  UNL     1     -15.227  56.836  49.986  1.00  0.00     0.295 A 
HETATM   12  O3  UNL     1     -14.200  56.615  50.663  1.00  0.00    -0.264 OA
HETATM   13  N9  UNL     1     -15.346  57.911  49.195  1.00  0.00    -0.271 N 
ATOM     14  H9  UNL     1     -14.589  58.591  49.124  1.00  0.00     0.174 HD
HETATM   15  C9  UNL     1     -16.483  58.075  48.496  1.00  0.00     0.344 A 
HETATM   16  O4  UNL     1     -16.647  59.057  47.744  1.00  0.00    -0.245 OA
ENDROOT
BRANCH   1  17
HETATM   17  C2  UNL     1     -18.731  57.347  47.797  1.00  0.00     0.253 C 
BRANCH  17  18
HETATM   18  C1  UNL     1     -19.893  57.273  48.709  1.00  0.00     0.251 C 
HETATM   19  N1  UNL     1     -21.089  56.575  48.399  1.00  0.00    -0.061 NA
HETATM   20  O1  UNL     1     -19.826  57.867  49.838  1.00  0.00    -0.275 OA
ENDBRANCH  17  18
ENDBRANCH   1  17
BRANCH   9  21
HETATM   21  C5  UNL     1     -16.066  52.113  53.295  1.00  0.00     0.144 C 
BRANCH  21  22
HETATM   22  C6  UNL     1     -14.555  52.071  53.382  1.00  0.00     0.141 C 
BRANCH  22  23
HETATM   23  N6  UNL     1     -14.155  52.713  54.603  1.00  0.00    -0.365 N 
HETATM   24  C7  UNL     1     -12.984  52.652  55.061  1.00  0.00     0.197 C 
HETATM   25  N7  UNL     1     -11.962  51.941  54.399  1.00  0.00    -0.067 NA
HETATM   26  N8  UNL     1     -12.627  53.313  56.292  1.00  0.00    -0.067 NA
ATOM     27  H6  UNL     1     -14.854  53.244  55.124  1.00  0.00     0.161 HD
ENDBRANCH  22  23
ENDBRANCH  21  22
ENDBRANCH   9  21
TORSDOF 5
ENDMDL
