MODEL 1
REMARK VINA RESULT: -7.744502972      0.000      0.000
REMARK  8 active torsions:
REMARK  status: ('A' for Active; 'I' for Inactive)
REMARK    1  A    between atoms: N2_3  and  N3_5 
REMARK    2  A    between atoms: N3_5  and  C2_7 
REMARK       I    between atoms: N4_8  and  C3_10 
REMARK    3  A    between atoms: C3_10  and  C4_12 
REMARK    4  A    between atoms: C4_12  and  O2_13 
REMARK    5  A    between atoms: C4_12  and  C5_15 
REMARK    6  A    between atoms: C9_19  and  N5_20 
REMARK    7  A    between atoms: N5_20  and  S1_22 
REMARK    8  A    between atoms: S1_22  and  N6_23 
ROOT
HETATM    1  C5  UNL     1     -16.763  54.041  51.087  1.00  0.00     0.072 A 
HETATM    2  C6  UNL     1     -17.332  53.061  51.848  1.00  0.00     0.032 A 
HETATM    3  C7  UNL     1     -18.670  52.658  51.673  1.00  0.00     0.006 A 
HETATM    4  C8  UNL     1     -19.384  53.303  50.688  1.00  0.00     0.049 A 
HETATM    5  C9  UNL     1     -18.822  54.293  49.912  1.00  0.00     0.116 A 
HETATM    6  N7  UNL     1     -17.549  54.633  50.125  1.00  0.00    -0.340 N 
ATOM      7  H7  UNL     1     -17.140  55.367  49.548  1.00  0.00     0.167 HD
ENDROOT
BRANCH   1   8
HETATM    8  C4  UNL     1     -15.402  54.463  51.254  1.00  0.00     0.161 C 
BRANCH   8   9
HETATM    9  C3  UNL     1     -14.734  55.486  50.517  1.00  0.00     0.281 C 
HETATM   10  N4  UNL     1     -15.421  56.188  49.429  1.00  0.00    -0.316 N 
HETATM   11  C2  UNL     1     -15.772  57.412  49.583  1.00  0.00     0.200 C 
ATOM     12  H4  UNL     1     -15.619  55.705  48.553  1.00  0.00     0.170 HD
HETATM   13  O1  UNL     1     -13.554  55.839  50.744  1.00  0.00    -0.265 OA
BRANCH  11  14
HETATM   14  N3  UNL     1     -16.437  58.117  48.551  1.00  0.00    -0.296 N 
ATOM     15  H3  UNL     1     -17.392  57.863  48.298  1.00  0.00     0.187 HD
BRANCH  14  16
HETATM   16  N2  UNL     1     -15.797  59.152  47.879  1.00  0.00    -0.298 N 
HETATM   17  C1  UNL     1     -16.462  60.051  47.231  1.00  0.00     0.206 C 
HETATM   18  N1  UNL     1     -15.835  61.113  46.540  1.00  0.00    -0.095 NA
ATOM     19  H2  UNL     1     -14.778  59.203  47.898  1.00  0.00     0.187 HD
ENDBRANCH  14  16
ENDBRANCH  11  14
ENDBRANCH   8   9
BRANCH   8  20
HETATM   20  O2  UNL     1     -14.670  53.879  52.159  1.00  0.00    -0.354 OA
ATOM     21  H2  UNL     1     -14.310  53.040  51.895  1.00  0.00     0.218 HD
ENDBRANCH   8  20
ENDBRANCH   1   8
BRANCH   5  22
HETATM   22  N5  UNL     1     -19.505  54.867  49.016  1.00  0.00    -0.253 N 
ATOM     23  H5  UNL     1     -20.030  54.262  48.385  1.00  0.00     0.182 HD
BRANCH  22  24
HETATM   24  S1  UNL     1     -19.638  56.540  48.751  1.00  0.00     0.318 S 
HETATM   25  O3  UNL     1     -18.883  57.036  47.568  1.00  0.00    -0.183 OA
HETATM   26  O4  UNL     1     -19.063  57.247  49.972  1.00  0.00    -0.183 OA
BRANCH  24  27
HETATM   27  N6  UNL     1     -21.273  57.063  48.616  1.00  0.00    -0.311 N 
ATOM     28  H62 UNL     1     -22.011  56.734  49.238  1.00  0.00     0.170 HD
ATOM     29  H61 UNL     1     -21.412  57.728  47.856  1.00  0.00     0.170 HD
ENDBRANCH  24  27
ENDBRANCH  22  24
ENDBRANCH   5  22
TORSDOF 8
ENDMDL
MODEL 2
REMARK VINA RESULT: -7.484715657      2.085      4.130
REMARK  8 active torsions:
REMARK  status: ('A' for Active; 'I' for Inactive)
REMARK    1  A    between atoms: N2_3  and  N3_5 
REMARK    2  A    between atoms: N3_5  and  C2_7 
REMARK       I    between atoms: N4_8  and  C3_10 
REMARK    3  A    between atoms: C3_10  and  C4_12 
REMARK    4  A    between atoms: C4_12  and  O2_13 
REMARK    5  A    between atoms: C4_12  and  C5_15 
REMARK    6  A    between atoms: C9_19  and  N5_20 
REMARK    7  A    between atoms: N5_20  and  S1_22 
REMARK    8  A    between atoms: S1_22  and  N6_23 
ROOT
HETATM    1  C5  UNL     1     -18.389  54.056  50.597  1.00  0.00     0.072 A 
HETATM    2  C6  UNL     1     -18.714  53.000  51.398  1.00  0.00     0.032 A 
HETATM    3  C7  UNL     1     -17.785  52.414  52.280  1.00  0.00     0.006 A 
HETATM    4  C8  UNL     1     -16.521  52.963  52.297  1.00  0.00     0.049 A 
HETATM    5  C9  UNL     1     -16.181  54.029  51.493  1.00  0.00     0.116 A 
HETATM    6  N7  UNL     1     -17.104  54.541  50.678  1.00  0.00    -0.340 N 
ATOM      7  H7  UNL     1     -16.845  55.330  50.086  1.00  0.00     0.167 HD
ENDROOT
BRANCH   1   8
HETATM    8  C4  UNL     1     -19.324  54.663  49.694  1.00  0.00     0.161 C 
BRANCH   8   9
HETATM    9  C3  UNL     1     -19.307  56.013  49.234  1.00  0.00     0.281 C 
HETATM   10  N4  UNL     1     -18.068  56.795  49.271  1.00  0.00    -0.316 N 
HETATM   11  C2  UNL     1     -17.464  57.083  48.176  1.00  0.00     0.200 C 
ATOM     12  H4  UNL     1     -17.687  57.109  50.163  1.00  0.00     0.170 HD
HETATM   13  O1  UNL     1     -20.317  56.599  48.783  1.00  0.00    -0.265 OA
BRANCH  11  14
HETATM   14  N3  UNL     1     -16.266  57.837  48.180  1.00  0.00    -0.296 N 
ATOM     15  H3  UNL     1     -15.565  57.673  48.903  1.00  0.00     0.187 HD
BRANCH  14  16
HETATM   16  N2  UNL     1     -16.037  58.801  47.205  1.00  0.00    -0.298 N 
HETATM   17  C1  UNL     1     -16.646  59.941  47.224  1.00  0.00     0.206 C 
HETATM   18  N1  UNL     1     -16.430  60.938  46.244  1.00  0.00    -0.095 NA
ATOM     19  H2  UNL     1     -15.373  58.604  46.456  1.00  0.00     0.187 HD
ENDBRANCH  14  16
ENDBRANCH  11  14
ENDBRANCH   8   9
BRANCH   8  20
HETATM   20  O2  UNL     1     -20.301  53.942  49.223  1.00  0.00    -0.354 OA
ATOM     21  H2  UNL     1     -20.065  53.386  48.489  1.00  0.00     0.218 HD
ENDBRANCH   8  20
ENDBRANCH   1   8
BRANCH   5  22
HETATM   22  N5  UNL     1     -15.011  54.509  51.532  1.00  0.00    -0.253 N 
ATOM     23  H5  UNL     1     -14.370  54.096  52.209  1.00  0.00     0.182 HD
BRANCH  22  24
HETATM   24  S1  UNL     1     -14.396  55.772  50.576  1.00  0.00     0.318 S 
HETATM   25  O3  UNL     1     -15.130  57.059  50.712  1.00  0.00    -0.183 OA
HETATM   26  O4  UNL     1     -14.517  55.346  49.118  1.00  0.00    -0.183 OA
BRANCH  24  27
HETATM   27  N6  UNL     1     -12.722  56.063  50.855  1.00  0.00    -0.311 N 
ATOM     28  H62 UNL     1     -12.269  55.869  51.748  1.00  0.00     0.170 HD
ATOM     29  H61 UNL     1     -12.247  56.445  50.038  1.00  0.00     0.170 HD
ENDBRANCH  24  27
ENDBRANCH  22  24
ENDBRANCH   5  22
TORSDOF 8
ENDMDL
MODEL 3
REMARK VINA RESULT: -7.193566911      2.423      4.810
REMARK  8 active torsions:
REMARK  status: ('A' for Active; 'I' for Inactive)
REMARK    1  A    between atoms: N2_3  and  N3_5 
REMARK    2  A    between atoms: N3_5  and  C2_7 
REMARK       I    between atoms: N4_8  and  C3_10 
REMARK    3  A    between atoms: C3_10  and  C4_12 
REMARK    4  A    between atoms: C4_12  and  O2_13 
REMARK    5  A    between atoms: C4_12  and  C5_15 
REMARK    6  A    between atoms: C9_19  and  N5_20 
REMARK    7  A    between atoms: N5_20  and  S1_22 
REMARK    8  A    between atoms: S1_22  and  N6_23 
ROOT
HETATM    1  C5  UNL     1     -19.027  56.629  49.389  1.00  0.00     0.072 A 
HETATM    2  C6  UNL     1     -20.179  56.016  48.989  1.00  0.00     0.032 A 
HETATM    3  C7  UNL     1     -20.391  54.634  49.158  1.00  0.00     0.006 A 
HETATM    4  C8  UNL     1     -19.372  53.922  49.752  1.00  0.00     0.049 A 
HETATM    5  C9  UNL     1     -18.204  54.529  50.160  1.00  0.00     0.116 A 
HETATM    6  N7  UNL     1     -18.061  55.842  49.973  1.00  0.00    -0.340 N 
ATOM      7  H7  UNL     1     -17.194  56.284  50.277  1.00  0.00     0.167 HD
ENDROOT
BRANCH   1   8
HETATM    8  C4  UNL     1     -18.795  58.035  49.223  1.00  0.00     0.161 C 
BRANCH   8   9
HETATM    9  C3  UNL     1     -17.723  58.640  48.502  1.00  0.00     0.281 C 
HETATM   10  N4  UNL     1     -16.382  58.712  49.088  1.00  0.00    -0.316 N 
HETATM   11  C2  UNL     1     -15.441  57.978  48.617  1.00  0.00     0.200 C 
ATOM     12  H4  UNL     1     -16.197  59.344  49.867  1.00  0.00     0.170 HD
HETATM   13  O1  UNL     1     -17.854  59.133  47.359  1.00  0.00    -0.265 OA
BRANCH  11  14
HETATM   14  N3  UNL     1     -14.135  58.026  49.161  1.00  0.00    -0.296 N 
ATOM     15  H3  UNL     1     -13.667  58.925  49.276  1.00  0.00     0.187 HD
BRANCH  14  16
HETATM   16  N2  UNL     1     -13.487  56.857  49.541  1.00  0.00    -0.298 N 
HETATM   17  C1  UNL     1     -12.515  56.869  50.393  1.00  0.00     0.206 C 
HETATM   18  N1  UNL     1     -11.839  55.693  50.795  1.00  0.00    -0.095 NA
ATOM     19  H2  UNL     1     -13.784  55.968  49.138  1.00  0.00     0.187 HD
ENDBRANCH  14  16
ENDBRANCH  11  14
ENDBRANCH   8   9
BRANCH   8  20
HETATM   20  O2  UNL     1     -19.626  58.876  49.769  1.00  0.00    -0.354 OA
ATOM     21  H2  UNL     1     -20.355  58.473  50.226  1.00  0.00     0.218 HD
ENDBRANCH   8  20
ENDBRANCH   1   8
BRANCH   5  22
HETATM   22  N5  UNL     1     -17.287  53.847  50.703  1.00  0.00    -0.253 N 
ATOM     23  H5  UNL     1     -17.540  52.910  51.017  1.00  0.00     0.182 HD
BRANCH  22  24
HETATM   24  S1  UNL     1     -15.679  54.328  50.964  1.00  0.00     0.318 S 
HETATM   25  O3  UNL     1     -15.510  55.780  51.242  1.00  0.00    -0.183 OA
HETATM   26  O4  UNL     1     -14.896  54.028  49.692  1.00  0.00    -0.183 OA
BRANCH  24  27
HETATM   27  N6  UNL     1     -14.914  53.436  52.222  1.00  0.00    -0.311 N 
ATOM     28  H62 UNL     1     -14.561  52.488  52.091  1.00  0.00     0.170 HD
ATOM     29  H61 UNL     1     -14.857  53.958  53.096  1.00  0.00     0.170 HD
ENDBRANCH  24  27
ENDBRANCH  22  24
ENDBRANCH   5  22
TORSDOF 8
ENDMDL
MODEL 4
REMARK VINA RESULT: -6.876336674      2.279      6.517
REMARK  8 active torsions:
REMARK  status: ('A' for Active; 'I' for Inactive)
REMARK    1  A    between atoms: N2_3  and  N3_5 
REMARK    2  A    between atoms: N3_5  and  C2_7 
REMARK       I    between atoms: N4_8  and  C3_10 
REMARK    3  A    between atoms: C3_10  and  C4_12 
REMARK    4  A    between atoms: C4_12  and  O2_13 
REMARK    5  A    between atoms: C4_12  and  C5_15 
REMARK    6  A    between atoms: C9_19  and  N5_20 
REMARK    7  A    between atoms: N5_20  and  S1_22 
REMARK    8  A    between atoms: S1_22  and  N6_23 
ROOT
HETATM    1  C5  UNL     1     -17.699  58.522  48.671  1.00  0.00     0.072 A 
HETATM    2  C6  UNL     1     -17.577  59.502  47.729  1.00  0.00     0.032 A 
HETATM    3  C7  UNL     1     -16.325  59.909  47.229  1.00  0.00     0.006 A 
HETATM    4  C8  UNL     1     -15.219  59.265  47.738  1.00  0.00     0.049 A 
HETATM    5  C9  UNL     1     -15.329  58.274  48.688  1.00  0.00     0.116 A 
HETATM    6  N7  UNL     1     -16.542  57.932  49.124  1.00  0.00    -0.340 N 
ATOM      7  H7  UNL     1     -16.616  57.197  49.828  1.00  0.00     0.167 HD
ENDROOT
BRANCH   1   8
HETATM    8  C4  UNL     1     -18.967  58.097  49.191  1.00  0.00     0.161 C 
BRANCH   8   9
HETATM    9  C3  UNL     1     -19.776  57.033  48.693  1.00  0.00     0.281 C 
HETATM   10  N4  UNL     1     -19.339  55.641  48.828  1.00  0.00    -0.316 N 
HETATM   11  C2  UNL     1     -19.938  54.862  49.653  1.00  0.00     0.200 C 
ATOM     12  H4  UNL     1     -18.561  55.292  48.268  1.00  0.00     0.170 HD
HETATM   13  O1  UNL     1     -20.878  57.214  48.127  1.00  0.00    -0.265 OA
BRANCH  11  14
HETATM   14  N3  UNL     1     -19.539  53.513  49.805  1.00  0.00    -0.296 N 
ATOM     15  H3  UNL     1     -19.950  52.793  49.211  1.00  0.00     0.187 HD
BRANCH  14  16
HETATM   16  N2  UNL     1     -18.592  53.162  50.759  1.00  0.00    -0.298 N 
HETATM   17  C1  UNL     1     -17.526  53.870  50.947  1.00  0.00     0.206 C 
HETATM   18  N1  UNL     1     -16.548  53.534  51.912  1.00  0.00    -0.095 NA
ATOM     19  H2  UNL     1     -18.740  52.326  51.325  1.00  0.00     0.187 HD
ENDBRANCH  14  16
ENDBRANCH  11  14
ENDBRANCH   8   9
BRANCH   8  20
HETATM   20  O2  UNL     1     -19.463  58.720  50.221  1.00  0.00    -0.354 OA
ATOM     21  H2  UNL     1     -18.891  58.749  50.980  1.00  0.00     0.218 HD
ENDBRANCH   8  20
ENDBRANCH   1   8
BRANCH   5  22
HETATM   22  N5  UNL     1     -14.293  57.702  49.136  1.00  0.00    -0.253 N 
ATOM     23  H5  UNL     1     -13.397  58.042  48.788  1.00  0.00     0.182 HD
BRANCH  22  24
HETATM   24  S1  UNL     1     -14.239  56.425  50.255  1.00  0.00     0.318 S 
HETATM   25  O3  UNL     1     -15.134  56.600  51.430  1.00  0.00    -0.183 OA
HETATM   26  O4  UNL     1     -12.815  56.344  50.792  1.00  0.00    -0.183 OA
BRANCH  24  27
HETATM   27  N6  UNL     1     -14.570  54.896  49.536  1.00  0.00    -0.311 N 
ATOM     28  H62 UNL     1     -14.685  54.771  48.530  1.00  0.00     0.170 HD
ATOM     29  H61 UNL     1     -14.637  54.144  50.222  1.00  0.00     0.170 HD
ENDBRANCH  24  27
ENDBRANCH  22  24
ENDBRANCH   5  22
TORSDOF 8
ENDMDL
MODEL 5
REMARK VINA RESULT: -6.806935489      2.556      5.840
REMARK  8 active torsions:
REMARK  status: ('A' for Active; 'I' for Inactive)
REMARK    1  A    between atoms: N2_3  and  N3_5 
REMARK    2  A    between atoms: N3_5  and  C2_7 
REMARK       I    between atoms: N4_8  and  C3_10 
REMARK    3  A    between atoms: C3_10  and  C4_12 
REMARK    4  A    between atoms: C4_12  and  O2_13 
REMARK    5  A    between atoms: C4_12  and  C5_15 
REMARK    6  A    between atoms: C9_19  and  N5_20 
REMARK    7  A    between atoms: N5_20  and  S1_22 
REMARK    8  A    between atoms: S1_22  and  N6_23 
ROOT
HETATM    1  C5  UNL     1     -15.217  57.970  48.826  1.00  0.00     0.072 A 
HETATM    2  C6  UNL     1     -13.867  57.956  49.024  1.00  0.00     0.032 A 
HETATM    3  C7  UNL     1     -13.255  57.094  49.954  1.00  0.00     0.006 A 
HETATM    4  C8  UNL     1     -14.090  56.256  50.661  1.00  0.00     0.049 A 
HETATM    5  C9  UNL     1     -15.455  56.260  50.469  1.00  0.00     0.116 A 
HETATM    6  N7  UNL     1     -15.976  57.101  49.574  1.00  0.00    -0.340 N 
ATOM      7  H7  UNL     1     -16.987  57.098  49.438  1.00  0.00     0.167 HD
ENDROOT
BRANCH   1   8
HETATM    8  C4  UNL     1     -15.855  58.843  47.883  1.00  0.00     0.161 C 
BRANCH   8   9
HETATM    9  C3  UNL     1     -17.260  59.027  47.711  1.00  0.00     0.281 C 
HETATM   10  N4  UNL     1     -18.145  57.871  47.541  1.00  0.00    -0.316 N 
HETATM   11  C2  UNL     1     -18.947  57.539  48.485  1.00  0.00     0.200 C 
ATOM     12  H4  UNL     1     -18.124  57.333  46.675  1.00  0.00     0.170 HD
HETATM   13  O1  UNL     1     -17.809  60.151  47.695  1.00  0.00    -0.265 OA
BRANCH  11  14
HETATM   14  N3  UNL     1     -19.815  56.429  48.350  1.00  0.00    -0.296 N 
ATOM     15  H3  UNL     1     -20.319  56.283  47.475  1.00  0.00     0.187 HD
BRANCH  14  16
HETATM   16  N2  UNL     1     -19.984  55.536  49.401  1.00  0.00    -0.298 N 
HETATM   17  C1  UNL     1     -19.437  54.364  49.389  1.00  0.00     0.206 C 
HETATM   18  N1  UNL     1     -19.594  53.438  50.445  1.00  0.00    -0.095 NA
ATOM     19  H2  UNL     1     -20.555  55.810  50.201  1.00  0.00     0.187 HD
ENDBRANCH  14  16
ENDBRANCH  11  14
ENDBRANCH   8   9
BRANCH   8  20
HETATM   20  O2  UNL     1     -15.113  59.556  47.086  1.00  0.00    -0.354 OA
ATOM     21  H2  UNL     1     -15.590  60.010  46.401  1.00  0.00     0.218 HD
ENDBRANCH   8  20
ENDBRANCH   1   8
BRANCH   5  22
HETATM   22  N5  UNL     1     -16.194  55.479  51.134  1.00  0.00    -0.253 N 
ATOM     23  H5  UNL     1     -17.039  55.883  51.538  1.00  0.00     0.182 HD
BRANCH  22  24
HETATM   24  S1  UNL     1     -15.928  53.827  51.426  1.00  0.00     0.318 S 
HETATM   25  O3  UNL     1     -14.721  53.535  52.246  1.00  0.00    -0.183 OA
HETATM   26  O4  UNL     1     -15.722  53.148  50.078  1.00  0.00    -0.183 OA
BRANCH  24  27
HETATM   27  N6  UNL     1     -17.284  53.053  52.153  1.00  0.00    -0.311 N 
ATOM     28  H62 UNL     1     -17.413  52.999  53.163  1.00  0.00     0.170 HD
ATOM     29  H61 UNL     1     -17.930  52.663  51.467  1.00  0.00     0.170 HD
ENDBRANCH  24  27
ENDBRANCH  22  24
ENDBRANCH   5  22
TORSDOF 8
ENDMDL
