MODEL 1
REMARK VINA RESULT: -4.368190587      0.000      0.000
REMARK  8 active torsions:
REMARK  status: ('A' for Active; 'I' for Inactive)
REMARK    1  A    between atoms: C3_3  and  N1_4 
REMARK    2  A    between atoms: N2_7  and  C6_8 
REMARK    3  A    between atoms: C6_8  and  N3_9 
REMARK       I    between atoms: N3_9  and  C7_11 
REMARK       I    between atoms: C7_11  and  N8_25 
REMARK    4  A    between atoms: N4_12  and  C8_14 
REMARK    5  A    between atoms: C9_19  and  N7_20 
REMARK    6  A    between atoms: N8_25  and  C10_27 
REMARK    7  A    between atoms: C10_27  and  C11_28 
REMARK    8  A    between atoms: C11_28  and  N9_29 
ROOT
HETATM    1  C1  UNL     1     -12.670  52.320  54.113  1.00  0.00     0.014 C 
HETATM    2  C2  UNL     1     -13.852  52.064  54.123  1.00  0.00    -0.097 C 
HETATM    3  C3  UNL     1     -15.300  51.772  54.146  1.00  0.00     0.220 C 
ENDROOT
BRANCH   3   4
HETATM    4  N1  UNL     1     -15.917  52.437  53.015  1.00  0.00    -0.353 N 
HETATM    5  C4  UNL     1     -15.111  53.094  52.155  1.00  0.00     0.108 A 
HETATM    6  C5  UNL     1     -15.661  53.727  51.085  1.00  0.00     0.109 A 
HETATM    7  N2  UNL     1     -17.002  53.729  50.839  1.00  0.00    -0.347 N 
HETATM    8  C12 UNL     1     -17.782  53.067  51.711  1.00  0.00     0.109 A 
HETATM    9  C13 UNL     1     -17.255  52.410  52.813  1.00  0.00     0.108 A 
BRANCH   7  10
HETATM   10  C6  UNL     1     -17.503  54.419  49.687  1.00  0.00     0.269 C 
BRANCH  10  11
HETATM   11  N3  UNL     1     -17.684  55.841  49.925  1.00  0.00    -0.210 N 
HETATM   12  C7  UNL     1     -16.699  56.706  49.390  1.00  0.00     0.674 C 
HETATM   13  N4  UNL     1     -17.058  57.739  48.728  1.00  0.00    -0.181 N 
HETATM   14  N8  UNL     1     -15.307  56.465  49.561  1.00  0.00    -0.225 N 
ATOM     15  H4  UNL     1     -16.337  58.354  48.349  1.00  0.00     0.182 HD
ATOM     16  H8  UNL     1     -14.985  55.498  49.524  1.00  0.00     0.177 HD
ATOM     17  H3  UNL     1     -18.481  56.198  50.451  1.00  0.00     0.179 HD
BRANCH  13  18
HETATM   18  C8  UNL     1     -18.430  58.066  48.500  1.00  0.00     0.363 C 
HETATM   19  N5  UNL     1     -19.019  58.321  49.805  1.00  0.00    -0.290 N 
HETATM   20  N6  UNL     1     -20.174  57.818  49.841  1.00  0.00    -0.285 N 
ATOM     21  H5  UNL     1     -18.570  58.826  50.569  1.00  0.00     0.184 HD
HETATM   22  C9  UNL     1     -20.455  57.187  48.572  1.00  0.00     0.443 C 
ATOM     23  H6  UNL     1     -20.808  57.851  50.639  1.00  0.00     0.184 HD
HETATM   24  O1  UNL     1     -19.188  57.002  48.005  1.00  0.00    -0.298 OA
BRANCH  22  25
HETATM   25  N7  UNL     1     -21.136  55.928  48.721  1.00  0.00    -0.033 N 
ATOM     26  H73 UNL     1     -21.619  55.875  49.618  1.00  0.00     0.279 HD
ATOM     27  H72 UNL     1     -21.940  55.870  48.097  1.00  0.00     0.279 HD
ATOM     28  H71 UNL     1     -20.513  55.130  48.592  1.00  0.00     0.279 HD
ENDBRANCH  22  25
ENDBRANCH  13  18
BRANCH  14  29
HETATM   29  C10 UNL     1     -14.326  57.488  49.780  1.00  0.00     0.165 C 
BRANCH  29  30
HETATM   30  C11 UNL     1     -13.013  56.931  50.319  1.00  0.00     0.249 C 
BRANCH  30  31
HETATM   31  N9  UNL     1     -12.723  55.692  49.587  1.00  0.00    -0.078 N 
ATOM     32  H93 UNL     1     -12.262  54.989  50.165  1.00  0.00     0.274 HD
ATOM     33  H92 UNL     1     -13.561  55.155  49.367  1.00  0.00     0.274 HD
ATOM     34  H91 UNL     1     -12.183  55.942  48.759  1.00  0.00     0.274 HD
ENDBRANCH  30  31
ENDBRANCH  29  30
ENDBRANCH  14  29
ENDBRANCH  10  11
ENDBRANCH   7  10
ENDBRANCH   3   4
TORSDOF 8
ENDMDL
MODEL 2
REMARK VINA RESULT: -3.939337618      3.010      7.902
REMARK  8 active torsions:
REMARK  status: ('A' for Active; 'I' for Inactive)
REMARK    1  A    between atoms: C3_3  and  N1_4 
REMARK    2  A    between atoms: N2_7  and  C6_8 
REMARK    3  A    between atoms: C6_8  and  N3_9 
REMARK       I    between atoms: N3_9  and  C7_11 
REMARK       I    between atoms: C7_11  and  N8_25 
REMARK    4  A    between atoms: N4_12  and  C8_14 
REMARK    5  A    between atoms: C9_19  and  N7_20 
REMARK    6  A    between atoms: N8_25  and  C10_27 
REMARK    7  A    between atoms: C10_27  and  C11_28 
REMARK    8  A    between atoms: C11_28  and  N9_29 
ROOT
HETATM    1  C1  UNL     1     -16.546  60.200  47.002  1.00  0.00     0.014 C 
HETATM    2  C2  UNL     1     -17.224  59.434  47.648  1.00  0.00    -0.097 C 
HETATM    3  C3  UNL     1     -18.053  58.484  48.417  1.00  0.00     0.220 C 
ENDROOT
BRANCH   3   4
HETATM    4  N1  UNL     1     -17.195  57.425  48.911  1.00  0.00    -0.353 N 
HETATM    5  C4  UNL     1     -16.091  57.780  49.602  1.00  0.00     0.108 A 
HETATM    6  C5  UNL     1     -15.266  56.809  50.077  1.00  0.00     0.109 A 
HETATM    7  N2  UNL     1     -15.505  55.481  49.884  1.00  0.00    -0.347 N 
HETATM    8  C12 UNL     1     -16.611  55.154  49.193  1.00  0.00     0.109 A 
HETATM    9  C13 UNL     1     -17.474  56.118  48.694  1.00  0.00     0.108 A 
BRANCH   7  10
HETATM   10  C6  UNL     1     -14.587  54.519  50.419  1.00  0.00     0.269 C 
BRANCH  10  11
HETATM   11  N3  UNL     1     -14.650  54.435  51.868  1.00  0.00    -0.210 N 
HETATM   12  C7  UNL     1     -15.308  53.306  52.412  1.00  0.00     0.674 C 
HETATM   13  N4  UNL     1     -14.747  52.639  53.348  1.00  0.00    -0.181 N 
HETATM   14  N8  UNL     1     -16.583  52.877  51.949  1.00  0.00    -0.225 N 
ATOM     15  H4  UNL     1     -15.233  51.827  53.731  1.00  0.00     0.182 HD
ATOM     16  H8  UNL     1     -16.775  52.949  50.950  1.00  0.00     0.177 HD
ATOM     17  H3  UNL     1     -14.241  55.154  52.464  1.00  0.00     0.179 HD
BRANCH  13  18
HETATM   18  C8  UNL     1     -13.467  52.986  53.879  1.00  0.00     0.363 C 
HETATM   19  N5  UNL     1     -12.552  51.927  53.485  1.00  0.00    -0.290 N 
HETATM   20  N6  UNL     1     -11.780  51.672  54.446  1.00  0.00    -0.285 N 
ATOM     21  H5  UNL     1     -12.539  51.464  52.576  1.00  0.00     0.184 HD
HETATM   22  C9  UNL     1     -12.108  52.532  55.559  1.00  0.00     0.443 C 
ATOM     23  H6  UNL     1     -11.040  50.969  54.440  1.00  0.00     0.184 HD
HETATM   24  O1  UNL     1     -13.411  52.961  55.274  1.00  0.00    -0.298 OA
BRANCH  22  25
HETATM   25  N7  UNL     1     -12.063  51.843  56.822  1.00  0.00    -0.033 N 
ATOM     26  H73 UNL     1     -12.116  50.832  56.691  1.00  0.00     0.279 HD
ATOM     27  H72 UNL     1     -11.136  51.906  57.242  1.00  0.00     0.279 HD
ATOM     28  H71 UNL     1     -12.782  52.166  57.469  1.00  0.00     0.279 HD
ENDBRANCH  22  25
ENDBRANCH  13  18
BRANCH  14  29
HETATM   29  C10 UNL     1     -17.619  52.350  52.791  1.00  0.00     0.165 C 
BRANCH  29  30
HETATM   30  C11 UNL     1     -19.003  52.843  52.391  1.00  0.00     0.249 C 
BRANCH  30  31
HETATM   31  N9  UNL     1     -18.983  53.100  50.945  1.00  0.00    -0.078 N 
ATOM     32  H93 UNL     1     -18.305  52.522  50.449  1.00  0.00     0.274 HD
ATOM     33  H92 UNL     1     -19.820  52.764  50.470  1.00  0.00     0.274 HD
ATOM     34  H91 UNL     1     -18.826  54.099  50.812  1.00  0.00     0.274 HD
ENDBRANCH  30  31
ENDBRANCH  29  30
ENDBRANCH  14  29
ENDBRANCH  10  11
ENDBRANCH   7  10
ENDBRANCH   3   4
TORSDOF 8
ENDMDL
MODEL 3
REMARK VINA RESULT: -3.927018459      2.558      5.006
REMARK  8 active torsions:
REMARK  status: ('A' for Active; 'I' for Inactive)
REMARK    1  A    between atoms: C3_3  and  N1_4 
REMARK    2  A    between atoms: N2_7  and  C6_8 
REMARK    3  A    between atoms: C6_8  and  N3_9 
REMARK       I    between atoms: N3_9  and  C7_11 
REMARK       I    between atoms: C7_11  and  N8_25 
REMARK    4  A    between atoms: N4_12  and  C8_14 
REMARK    5  A    between atoms: C9_19  and  N7_20 
REMARK    6  A    between atoms: N8_25  and  C10_27 
REMARK    7  A    between atoms: C10_27  and  C11_28 
REMARK    8  A    between atoms: C11_28  and  N9_29 
ROOT
HETATM    1  C1  UNL     1     -12.891  56.613  50.281  1.00  0.00     0.014 C 
HETATM    2  C2  UNL     1     -13.630  55.691  50.540  1.00  0.00    -0.097 C 
HETATM    3  C3  UNL     1     -14.539  54.577  50.877  1.00  0.00     0.220 C 
ENDROOT
BRANCH   3   4
HETATM    4  N1  UNL     1     -15.886  54.955  50.497  1.00  0.00    -0.353 N 
HETATM    5  C4  UNL     1     -16.449  56.002  51.136  1.00  0.00     0.108 A 
HETATM    6  C5  UNL     1     -17.712  56.381  50.801  1.00  0.00     0.109 A 
HETATM    7  N2  UNL     1     -18.441  55.744  49.840  1.00  0.00    -0.347 N 
HETATM    8  C12 UNL     1     -17.856  54.706  49.219  1.00  0.00     0.109 A 
HETATM    9  C13 UNL     1     -16.570  54.292  49.535  1.00  0.00     0.108 A 
BRANCH   7  10
HETATM   10  C6  UNL     1     -19.765  56.206  49.545  1.00  0.00     0.269 C 
BRANCH  10  11
HETATM   11  N3  UNL     1     -19.768  57.498  48.881  1.00  0.00    -0.210 N 
HETATM   12  C7  UNL     1     -19.413  58.619  49.669  1.00  0.00     0.674 C 
HETATM   13  N4  UNL     1     -18.556  59.458  49.224  1.00  0.00    -0.181 N 
HETATM   14  N8  UNL     1     -19.977  58.849  50.955  1.00  0.00    -0.225 N 
ATOM     15  H4  UNL     1     -18.310  60.261  49.803  1.00  0.00     0.182 HD
ATOM     16  H8  UNL     1     -20.147  58.040  51.551  1.00  0.00     0.177 HD
ATOM     17  H3  UNL     1     -20.014  57.593  47.896  1.00  0.00     0.179 HD
BRANCH  13  18
HETATM   18  C8  UNL     1     -17.932  59.314  47.948  1.00  0.00     0.363 C 
HETATM   19  N5  UNL     1     -16.702  58.569  48.168  1.00  0.00    -0.290 N 
HETATM   20  N6  UNL     1     -15.788  59.062  47.455  1.00  0.00    -0.285 N 
ATOM     21  H5  UNL     1     -16.596  57.775  48.800  1.00  0.00     0.184 HD
HETATM   22  C9  UNL     1     -16.324  60.172  46.700  1.00  0.00     0.443 C 
ATOM     23  H6  UNL     1     -14.824  58.731  47.417  1.00  0.00     0.184 HD
HETATM   24  O1  UNL     1     -17.486  60.519  47.399  1.00  0.00    -0.298 OA
BRANCH  22  25
HETATM   25  N7  UNL     1     -15.415  61.286  46.637  1.00  0.00    -0.033 N 
ATOM     26  H73 UNL     1     -14.753  61.265  47.414  1.00  0.00     0.279 HD
ATOM     27  H72 UNL     1     -14.760  61.182  45.862  1.00  0.00     0.279 HD
ATOM     28  H71 UNL     1     -15.898  62.183  46.591  1.00  0.00     0.279 HD
ENDBRANCH  22  25
ENDBRANCH  13  18
BRANCH  14  29
HETATM   29  C10 UNL     1     -20.322  60.143  51.472  1.00  0.00     0.165 C 
BRANCH  29  30
HETATM   30  C11 UNL     1     -19.807  60.360  52.890  1.00  0.00     0.249 C 
BRANCH  30  31
HETATM   31  N9  UNL     1     -20.832  61.113  53.624  1.00  0.00    -0.078 N 
ATOM     32  H93 UNL     1     -21.599  61.426  53.027  1.00  0.00     0.274 HD
ATOM     33  H92 UNL     1     -21.382  60.527  54.252  1.00  0.00     0.274 HD
ATOM     34  H91 UNL     1     -20.365  61.881  54.106  1.00  0.00     0.274 HD
ENDBRANCH  30  31
ENDBRANCH  29  30
ENDBRANCH  14  29
ENDBRANCH  10  11
ENDBRANCH   7  10
ENDBRANCH   3   4
TORSDOF 8
ENDMDL
MODEL 4
REMARK VINA RESULT: -3.598141925      2.961      7.854
REMARK  8 active torsions:
REMARK  status: ('A' for Active; 'I' for Inactive)
REMARK    1  A    between atoms: C3_3  and  N1_4 
REMARK    2  A    between atoms: N2_7  and  C6_8 
REMARK    3  A    between atoms: C6_8  and  N3_9 
REMARK       I    between atoms: N3_9  and  C7_11 
REMARK       I    between atoms: C7_11  and  N8_25 
REMARK    4  A    between atoms: N4_12  and  C8_14 
REMARK    5  A    between atoms: C9_19  and  N7_20 
REMARK    6  A    between atoms: N8_25  and  C10_27 
REMARK    7  A    between atoms: C10_27  and  C11_28 
REMARK    8  A    between atoms: C11_28  and  N9_29 
ROOT
HETATM    1  C1  UNL     1     -20.765  56.731  48.840  1.00  0.00     0.014 C 
HETATM    2  C2  UNL     1     -19.699  57.213  48.531  1.00  0.00    -0.097 C 
HETATM    3  C3  UNL     1     -18.397  57.812  48.176  1.00  0.00     0.220 C 
ENDROOT
BRANCH   3   4
HETATM    4  N1  UNL     1     -17.349  57.030  48.802  1.00  0.00    -0.353 N 
HETATM    5  C4  UNL     1     -17.382  55.691  48.641  1.00  0.00     0.108 A 
HETATM    6  C5  UNL     1     -16.412  54.930  49.217  1.00  0.00     0.109 A 
HETATM    7  N2  UNL     1     -15.399  55.465  49.957  1.00  0.00    -0.347 N 
HETATM    8  C12 UNL     1     -15.390  56.802  50.101  1.00  0.00     0.109 A 
HETATM    9  C13 UNL     1     -16.363  57.608  49.528  1.00  0.00     0.108 A 
BRANCH   7  10
HETATM   10  C6  UNL     1     -14.414  54.595  50.529  1.00  0.00     0.269 C 
BRANCH  10  11
HETATM   11  N3  UNL     1     -14.540  54.486  51.971  1.00  0.00    -0.210 N 
HETATM   12  C7  UNL     1     -15.202  53.338  52.468  1.00  0.00     0.674 C 
HETATM   13  N4  UNL     1     -14.673  52.663  53.416  1.00  0.00    -0.181 N 
HETATM   14  N8  UNL     1     -16.449  52.898  51.942  1.00  0.00    -0.225 N 
ATOM     15  H4  UNL     1     -15.162  51.837  53.763  1.00  0.00     0.182 HD
ATOM     16  H8  UNL     1     -16.598  52.985  50.937  1.00  0.00     0.177 HD
ATOM     17  H3  UNL     1     -14.169  55.201  52.597  1.00  0.00     0.179 HD
BRANCH  13  18
HETATM   18  C8  UNL     1     -13.423  53.021  54.008  1.00  0.00     0.363 C 
HETATM   19  N5  UNL     1     -12.454  52.032  53.563  1.00  0.00    -0.290 N 
HETATM   20  N6  UNL     1     -11.697  51.736  54.525  1.00  0.00    -0.285 N 
ATOM     21  H5  UNL     1     -12.398  51.640  52.623  1.00  0.00     0.184 HD
HETATM   22  C9  UNL     1     -12.090  52.496  55.689  1.00  0.00     0.443 C 
ATOM     23  H6  UNL     1     -10.928  51.066  54.488  1.00  0.00     0.184 HD
HETATM   24  O1  UNL     1     -13.402  52.892  55.399  1.00  0.00    -0.298 OA
BRANCH  22  25
HETATM   25  N7  UNL     1     -12.049  51.715  56.898  1.00  0.00    -0.033 N 
ATOM     26  H73 UNL     1     -11.425  50.914  56.797  1.00  0.00     0.279 HD
ATOM     27  H72 UNL     1     -11.557  52.213  57.639  1.00  0.00     0.279 HD
ATOM     28  H71 UNL     1     -12.976  51.422  57.205  1.00  0.00     0.279 HD
ENDBRANCH  22  25
ENDBRANCH  13  18
BRANCH  14  29
HETATM   29  C10 UNL     1     -17.512  52.341  52.729  1.00  0.00     0.165 C 
BRANCH  29  30
HETATM   30  C11 UNL     1     -18.864  52.969  52.411  1.00  0.00     0.249 C 
BRANCH  30  31
HETATM   31  N9  UNL     1     -19.026  52.960  50.952  1.00  0.00    -0.078 N 
ATOM     32  H93 UNL     1     -18.757  52.072  50.528  1.00  0.00     0.274 HD
ATOM     33  H92 UNL     1     -20.003  52.958  50.660  1.00  0.00     0.274 HD
ATOM     34  H91 UNL     1     -18.503  53.753  50.578  1.00  0.00     0.274 HD
ENDBRANCH  30  31
ENDBRANCH  29  30
ENDBRANCH  14  29
ENDBRANCH  10  11
ENDBRANCH   7  10
ENDBRANCH   3   4
TORSDOF 8
ENDMDL
MODEL 5
REMARK VINA RESULT: -3.200299822      3.000      6.011
REMARK  8 active torsions:
REMARK  status: ('A' for Active; 'I' for Inactive)
REMARK    1  A    between atoms: C3_3  and  N1_4 
REMARK    2  A    between atoms: N2_7  and  C6_8 
REMARK    3  A    between atoms: C6_8  and  N3_9 
REMARK       I    between atoms: N3_9  and  C7_11 
REMARK       I    between atoms: C7_11  and  N8_25 
REMARK    4  A    between atoms: N4_12  and  C8_14 
REMARK    5  A    between atoms: C9_19  and  N7_20 
REMARK    6  A    between atoms: N8_25  and  C10_27 
REMARK    7  A    between atoms: C10_27  and  C11_28 
REMARK    8  A    between atoms: C11_28  and  N9_29 
ROOT
HETATM    1  C1  UNL     1     -18.865  59.978  54.849  1.00  0.00     0.014 C 
HETATM    2  C2  UNL     1     -19.335  60.117  53.743  1.00  0.00    -0.097 C 
HETATM    3  C3  UNL     1     -19.888  60.296  52.385  1.00  0.00     0.220 C 
ENDROOT
BRANCH   3   4
HETATM    4  N1  UNL     1     -19.447  59.185  51.563  1.00  0.00    -0.353 N 
HETATM    5  C4  UNL     1     -20.012  59.039  50.347  1.00  0.00     0.108 A 
HETATM    6  C5  UNL     1     -19.619  58.007  49.553  1.00  0.00     0.109 A 
HETATM    7  N2  UNL     1     -18.671  57.104  49.935  1.00  0.00    -0.347 N 
HETATM    8  C12 UNL     1     -18.124  57.273  51.151  1.00  0.00     0.109 A 
HETATM    9  C13 UNL     1     -18.501  58.315  51.986  1.00  0.00     0.108 A 
BRANCH   7  10
HETATM   10  C6  UNL     1     -18.311  56.045  49.040  1.00  0.00     0.269 C 
BRANCH  10  11
HETATM   11  N3  UNL     1     -16.872  55.898  48.902  1.00  0.00    -0.210 N 
HETATM   12  C7  UNL     1     -16.100  57.080  48.999  1.00  0.00     0.674 C 
HETATM   13  N4  UNL     1     -15.068  57.101  49.754  1.00  0.00    -0.181 N 
HETATM   14  N8  UNL     1     -16.433  58.262  48.281  1.00  0.00    -0.225 N 
ATOM     15  H4  UNL     1     -14.521  57.960  49.814  1.00  0.00     0.182 HD
ATOM     16  H8  UNL     1     -17.421  58.494  48.179  1.00  0.00     0.177 HD
ATOM     17  H3  UNL     1     -16.440  54.988  48.743  1.00  0.00     0.179 HD
BRANCH  13  18
HETATM   18  C8  UNL     1     -14.653  55.967  50.518  1.00  0.00     0.363 C 
HETATM   19  N5  UNL     1     -14.467  54.876  49.574  1.00  0.00    -0.290 N 
HETATM   20  N6  UNL     1     -14.910  53.812  50.083  1.00  0.00    -0.285 N 
ATOM     21  H5  UNL     1     -14.046  54.959  48.649  1.00  0.00     0.184 HD
HETATM   22  C9  UNL     1     -15.427  54.096  51.401  1.00  0.00     0.443 C 
ATOM     23  H6  UNL     1     -14.905  52.895  49.634  1.00  0.00     0.184 HD
HETATM   24  O1  UNL     1     -15.635  55.481  51.385  1.00  0.00    -0.298 OA
BRANCH  22  25
HETATM   25  N7  UNL     1     -16.657  53.399  51.674  1.00  0.00    -0.033 N 
ATOM     26  H73 UNL     1     -17.153  53.179  50.810  1.00  0.00     0.279 HD
ATOM     27  H72 UNL     1     -16.476  52.452  52.006  1.00  0.00     0.279 HD
ATOM     28  H71 UNL     1     -17.258  53.907  52.323  1.00  0.00     0.279 HD
ENDBRANCH  22  25
ENDBRANCH  13  18
BRANCH  14  29
HETATM   29  C10 UNL     1     -15.474  59.151  47.689  1.00  0.00     0.165 C 
BRANCH  29  30
HETATM   30  C11 UNL     1     -16.133  60.292  46.922  1.00  0.00     0.249 C 
BRANCH  30  31
HETATM   31  N9  UNL     1     -17.569  60.260  47.225  1.00  0.00    -0.078 N 
ATOM     32  H93 UNL     1     -17.986  59.340  47.078  1.00  0.00     0.274 HD
ATOM     33  H92 UNL     1     -17.767  60.339  48.223  1.00  0.00     0.274 HD
ATOM     34  H91 UNL     1     -18.017  60.992  46.673  1.00  0.00     0.274 HD
ENDBRANCH  30  31
ENDBRANCH  29  30
ENDBRANCH  14  29
ENDBRANCH  10  11
ENDBRANCH   7  10
ENDBRANCH   3   4
TORSDOF 8
ENDMDL
