MODEL 1
REMARK VINA RESULT: -6.798605726      0.000      0.000
REMARK  7 active torsions:
REMARK  status: ('A' for Active; 'I' for Inactive)
REMARK    1  A    between atoms: C3_5  and  C4_6 
REMARK    2  A    between atoms: C4_6  and  C5_7 
REMARK    3  A    between atoms: C7_9  and  O1_10 
REMARK    4  A    between atoms: N3_14  and  C9_15 
REMARK    5  A    between atoms: C9_15  and  C10_16 
REMARK    6  A    between atoms: C10_16  and  C11_17 
REMARK    7  A    between atoms: C11_17  and  N4_18 
ROOT
HETATM    1  C5  UNL     1     -18.202  55.723  49.167  1.00  0.00     0.057 A 
HETATM    2  C6  UNL     1     -19.474  55.557  48.680  1.00  0.00     0.088 A 
HETATM    3  C7  UNL     1     -20.116  56.756  48.880  1.00  0.00     0.159 A 
HETATM    4  N2  UNL     1     -19.240  57.594  49.466  1.00  0.00    -0.273 N 
HETATM    5  C8  UNL     1     -19.610  58.974  49.802  1.00  0.00     0.180 C 
HETATM    6  N3  UNL     1     -18.103  56.974  49.635  1.00  0.00    -0.288 N 
ENDROOT
BRANCH   1   7
HETATM    7  C4  UNL     1     -17.153  54.714  49.175  1.00  0.00     0.066 C 
BRANCH   7   8
HETATM    8  C3  UNL     1     -16.608  54.191  50.237  1.00  0.00     0.103 A 
HETATM    9  N1  UNL     1     -17.378  53.483  51.093  1.00  0.00    -0.348 N 
HETATM   10  C2  UNL     1     -16.927  52.906  52.208  1.00  0.00     0.092 A 
ATOM     11  H1  UNL     1     -18.369  53.385  50.872  1.00  0.00     0.166 HD
HETATM   12  C1  UNL     1     -17.694  52.218  53.034  1.00  0.00     0.049 C 
HETATM   13  C14 UNL     1     -15.569  53.044  52.502  1.00  0.00     0.274 A 
HETATM   14  N6  UNL     1     -14.779  53.741  51.669  1.00  0.00    -0.287 N 
HETATM   15  O3  UNL     1     -15.087  52.523  53.539  1.00  0.00    -0.266 OA
HETATM   16  C13 UNL     1     -15.289  54.315  50.540  1.00  0.00     0.275 A 
ATOM     17  H6  UNL     1     -13.787  53.844  51.883  1.00  0.00     0.172 HD
HETATM   18  O2  UNL     1     -14.498  54.957  49.796  1.00  0.00    -0.266 OA
ENDBRANCH   7   8
ENDBRANCH   1   7
BRANCH   6  19
HETATM   19  C9  UNL     1     -16.906  57.566  50.224  1.00  0.00     0.151 C 
BRANCH  19  20
HETATM   20  C10 UNL     1     -15.897  58.030  49.234  1.00  0.00     0.041 C 
BRANCH  20  21
HETATM   21  C11 UNL     1     -16.448  58.457  47.898  1.00  0.00     0.121 C 
BRANCH  21  22
HETATM   22  N4  UNL     1     -15.588  59.511  47.341  1.00  0.00    -0.388 N 
HETATM   23  C12 UNL     1     -16.100  60.588  46.855  1.00  0.00     0.185 C 
HETATM   24  N5  UNL     1     -17.513  60.726  46.874  1.00  0.00    -0.097 NA
ATOM     25  H4  UNL     1     -14.575  59.387  47.339  1.00  0.00     0.159 HD
ENDBRANCH  21  22
ENDBRANCH  20  21
ENDBRANCH  19  20
ENDBRANCH   6  19
BRANCH   3  26
HETATM   26  O1  UNL     1     -21.436  56.980  48.511  1.00  0.00    -0.345 OA
ATOM     27  H1  UNL     1     -21.823  57.847  48.470  1.00  0.00     0.219 HD
ENDBRANCH   3  26
TORSDOF 7
ENDMDL
MODEL 2
REMARK VINA RESULT: -6.141864665      2.055      3.266
REMARK  7 active torsions:
REMARK  status: ('A' for Active; 'I' for Inactive)
REMARK    1  A    between atoms: C3_5  and  C4_6 
REMARK    2  A    between atoms: C4_6  and  C5_7 
REMARK    3  A    between atoms: C7_9  and  O1_10 
REMARK    4  A    between atoms: N3_14  and  C9_15 
REMARK    5  A    between atoms: C9_15  and  C10_16 
REMARK    6  A    between atoms: C10_16  and  C11_17 
REMARK    7  A    between atoms: C11_17  and  N4_18 
ROOT
HETATM    1  C5  UNL     1     -18.210  55.910  50.488  1.00  0.00     0.057 A 
HETATM    2  C6  UNL     1     -18.637  54.636  50.206  1.00  0.00     0.088 A 
HETATM    3  C7  UNL     1     -19.755  54.778  49.418  1.00  0.00     0.159 A 
HETATM    4  N2  UNL     1     -19.968  56.096  49.248  1.00  0.00    -0.273 N 
HETATM    5  C8  UNL     1     -21.087  56.590  48.435  1.00  0.00     0.180 C 
HETATM    6  N3  UNL     1     -19.047  56.765  49.887  1.00  0.00    -0.288 N 
ENDROOT
BRANCH   1   7
HETATM    7  C4  UNL     1     -17.054  56.262  51.299  1.00  0.00     0.066 C 
BRANCH   7   8
HETATM    8  C3  UNL     1     -15.806  56.152  50.936  1.00  0.00     0.103 A 
HETATM    9  N1  UNL     1     -15.229  57.161  50.247  1.00  0.00    -0.348 N 
HETATM   10  C2  UNL     1     -13.963  57.155  49.825  1.00  0.00     0.092 A 
ATOM     11  H1  UNL     1     -15.798  57.980  50.035  1.00  0.00     0.166 HD
HETATM   12  C1  UNL     1     -13.414  58.150  49.152  1.00  0.00     0.049 C 
HETATM   13  C14 UNL     1     -13.190  56.030  50.121  1.00  0.00     0.274 A 
HETATM   14  N6  UNL     1     -13.738  55.012  50.805  1.00  0.00    -0.287 N 
HETATM   15  O3  UNL     1     -11.992  55.966  49.750  1.00  0.00    -0.266 OA
HETATM   16  C13 UNL     1     -15.040  55.066  51.214  1.00  0.00     0.275 A 
ATOM     17  H6  UNL     1     -13.174  54.190  51.022  1.00  0.00     0.172 HD
HETATM   18  O2  UNL     1     -15.498  54.079  51.853  1.00  0.00    -0.266 OA
ENDBRANCH   7   8
ENDBRANCH   1   7
BRANCH   6  19
HETATM   19  C9  UNL     1     -18.939  58.220  49.920  1.00  0.00     0.151 C 
BRANCH  19  20
HETATM   20  C10 UNL     1     -17.765  58.767  49.188  1.00  0.00     0.041 C 
BRANCH  20  21
HETATM   21  C11 UNL     1     -17.578  58.251  47.785  1.00  0.00     0.121 C 
BRANCH  21  22
HETATM   22  N4  UNL     1     -16.303  58.756  47.256  1.00  0.00    -0.388 N 
HETATM   23  C12 UNL     1     -16.211  59.956  46.797  1.00  0.00     0.185 C 
HETATM   24  N5  UNL     1     -17.373  60.772  46.816  1.00  0.00    -0.097 NA
ATOM     25  H4  UNL     1     -15.482  58.150  47.253  1.00  0.00     0.159 HD
ENDBRANCH  21  22
ENDBRANCH  20  21
ENDBRANCH  19  20
ENDBRANCH   6  19
BRANCH   3  26
HETATM   26  O1  UNL     1     -20.476  53.698  48.925  1.00  0.00    -0.345 OA
ATOM     27  H1  UNL     1     -20.707  53.604  48.008  1.00  0.00     0.219 HD
ENDBRANCH   3  26
TORSDOF 7
ENDMDL
MODEL 3
REMARK VINA RESULT: -5.058980760      1.550      2.328
REMARK  7 active torsions:
REMARK  status: ('A' for Active; 'I' for Inactive)
REMARK    1  A    between atoms: C3_5  and  C4_6 
REMARK    2  A    between atoms: C4_6  and  C5_7 
REMARK    3  A    between atoms: C7_9  and  O1_10 
REMARK    4  A    between atoms: N3_14  and  C9_15 
REMARK    5  A    between atoms: C9_15  and  C10_16 
REMARK    6  A    between atoms: C10_16  and  C11_17 
REMARK    7  A    between atoms: C11_17  and  N4_18 
ROOT
HETATM    1  C5  UNL     1     -18.451  55.611  49.155  1.00  0.00     0.057 A 
HETATM    2  C6  UNL     1     -19.749  55.630  48.709  1.00  0.00     0.088 A 
HETATM    3  C7  UNL     1     -20.204  56.910  48.925  1.00  0.00     0.159 A 
HETATM    4  N2  UNL     1     -19.198  57.611  49.480  1.00  0.00    -0.273 N 
HETATM    5  C8  UNL     1     -19.355  59.030  49.824  1.00  0.00     0.180 C 
HETATM    6  N3  UNL     1     -18.159  56.834  49.616  1.00  0.00    -0.288 N 
ENDROOT
BRANCH   1   7
HETATM    7  C4  UNL     1     -17.559  54.461  49.133  1.00  0.00     0.066 C 
BRANCH   7   8
HETATM    8  C3  UNL     1     -16.976  53.930  50.171  1.00  0.00     0.103 A 
HETATM    9  N1  UNL     1     -17.736  53.449  51.180  1.00  0.00    -0.348 N 
HETATM   10  C2  UNL     1     -17.246  52.886  52.287  1.00  0.00     0.092 A 
ATOM     11  H1  UNL     1     -18.749  53.521  51.090  1.00  0.00     0.166 HD
HETATM   12  C1  UNL     1     -18.003  52.422  53.264  1.00  0.00     0.049 C 
HETATM   13  C14 UNL     1     -15.858  52.791  52.402  1.00  0.00     0.274 A 
HETATM   14  N6  UNL     1     -15.078  53.260  51.414  1.00  0.00    -0.287 N 
HETATM   15  O3  UNL     1     -15.339  52.272  53.421  1.00  0.00    -0.266 OA
HETATM   16  C13 UNL     1     -15.627  53.828  50.300  1.00  0.00     0.275 A 
ATOM     17  H6  UNL     1     -14.063  53.191  51.497  1.00  0.00     0.172 HD
HETATM   18  O2  UNL     1     -14.844  54.250  49.406  1.00  0.00    -0.266 OA
ENDBRANCH   7   8
ENDBRANCH   1   7
BRANCH   6  19
HETATM   19  C9  UNL     1     -16.870  57.246  50.165  1.00  0.00     0.151 C 
BRANCH  19  20
HETATM   20  C10 UNL     1     -16.003  57.987  49.211  1.00  0.00     0.041 C 
BRANCH  20  21
HETATM   21  C11 UNL     1     -14.539  57.637  49.258  1.00  0.00     0.121 C 
BRANCH  21  22
HETATM   22  N4  UNL     1     -14.214  57.118  50.595  1.00  0.00    -0.388 N 
HETATM   23  C12 UNL     1     -13.116  56.477  50.801  1.00  0.00     0.185 C 
HETATM   24  N5  UNL     1     -12.234  56.287  49.705  1.00  0.00    -0.097 NA
ATOM     25  H4  UNL     1     -14.865  57.267  51.366  1.00  0.00     0.159 HD
ENDBRANCH  21  22
ENDBRANCH  20  21
ENDBRANCH  19  20
ENDBRANCH   6  19
BRANCH   3  26
HETATM   26  O1  UNL     1     -21.489  57.323  48.597  1.00  0.00    -0.345 OA
ATOM     27  H1  UNL     1     -21.670  57.970  47.926  1.00  0.00     0.219 HD
ENDBRANCH   3  26
TORSDOF 7
ENDMDL
MODEL 4
REMARK VINA RESULT: -5.033607545      2.152      3.241
REMARK  7 active torsions:
REMARK  status: ('A' for Active; 'I' for Inactive)
REMARK    1  A    between atoms: C3_5  and  C4_6 
REMARK    2  A    between atoms: C4_6  and  C5_7 
REMARK    3  A    between atoms: C7_9  and  O1_10 
REMARK    4  A    between atoms: N3_14  and  C9_15 
REMARK    5  A    between atoms: C9_15  and  C10_16 
REMARK    6  A    between atoms: C10_16  and  C11_17 
REMARK    7  A    between atoms: C11_17  and  N4_18 
ROOT
HETATM    1  C5  UNL     1     -18.141  55.917  49.273  1.00  0.00     0.057 A 
HETATM    2  C6  UNL     1     -19.298  55.791  48.545  1.00  0.00     0.088 A 
HETATM    3  C7  UNL     1     -20.073  56.878  48.875  1.00  0.00     0.159 A 
HETATM    4  N2  UNL     1     -19.384  57.612  49.768  1.00  0.00    -0.273 N 
HETATM    5  C8  UNL     1     -19.932  58.860  50.315  1.00  0.00     0.180 C 
HETATM    6  N3  UNL     1     -18.237  57.036  50.002  1.00  0.00    -0.288 N 
ENDROOT
BRANCH   1   7
HETATM    7  C4  UNL     1     -17.016  54.993  49.255  1.00  0.00     0.066 C 
BRANCH   7   8
HETATM    8  C3  UNL     1     -16.510  54.390  50.294  1.00  0.00     0.103 A 
HETATM    9  N1  UNL     1     -17.312  53.629  51.071  1.00  0.00    -0.348 N 
HETATM   10  C2  UNL     1     -16.901  52.969  52.155  1.00  0.00     0.092 A 
ATOM     11  H1  UNL     1     -18.295  53.555  50.812  1.00  0.00     0.166 HD
HETATM   12  C1  UNL     1     -17.698  52.230  52.905  1.00  0.00     0.049 C 
HETATM   13  C14 UNL     1     -15.552  53.075  52.502  1.00  0.00     0.274 A 
HETATM   14  N6  UNL     1     -14.732  53.824  51.748  1.00  0.00    -0.287 N 
HETATM   15  O3  UNL     1     -15.107  52.477  53.513  1.00  0.00    -0.266 OA
HETATM   16  C13 UNL     1     -15.201  54.481  50.647  1.00  0.00     0.275 A 
ATOM     17  H6  UNL     1     -13.746  53.902  52.000  1.00  0.00     0.172 HD
HETATM   18  O2  UNL     1     -14.382  55.169  49.977  1.00  0.00    -0.266 OA
ENDBRANCH   7   8
ENDBRANCH   1   7
BRANCH   6  19
HETATM   19  C9  UNL     1     -17.210  57.549  50.904  1.00  0.00     0.151 C 
BRANCH  19  20
HETATM   20  C10 UNL     1     -17.292  57.026  52.294  1.00  0.00     0.041 C 
BRANCH  20  21
HETATM   21  C11 UNL     1     -18.034  57.898  53.272  1.00  0.00     0.121 C 
BRANCH  21  22
HETATM   22  N4  UNL     1     -17.161  58.179  54.421  1.00  0.00    -0.388 N 
HETATM   23  C12 UNL     1     -17.431  59.145  55.229  1.00  0.00     0.185 C 
HETATM   24  N5  UNL     1     -18.590  59.926  54.979  1.00  0.00    -0.097 NA
ATOM     25  H4  UNL     1     -16.334  57.604  54.578  1.00  0.00     0.159 HD
ENDBRANCH  21  22
ENDBRANCH  20  21
ENDBRANCH  19  20
ENDBRANCH   6  19
BRANCH   3  26
HETATM   26  O1  UNL     1     -21.332  57.103  48.333  1.00  0.00    -0.345 OA
ATOM     27  H1  UNL     1     -21.519  57.023  47.405  1.00  0.00     0.219 HD
ENDBRANCH   3  26
TORSDOF 7
ENDMDL
MODEL 5
REMARK VINA RESULT: -4.881737313      2.056      3.824
REMARK  7 active torsions:
REMARK  status: ('A' for Active; 'I' for Inactive)
REMARK    1  A    between atoms: C3_5  and  C4_6 
REMARK    2  A    between atoms: C4_6  and  C5_7 
REMARK    3  A    between atoms: C7_9  and  O1_10 
REMARK    4  A    between atoms: N3_14  and  C9_15 
REMARK    5  A    between atoms: C9_15  and  C10_16 
REMARK    6  A    between atoms: C10_16  and  C11_17 
REMARK    7  A    between atoms: C11_17  and  N4_18 
ROOT
HETATM    1  C5  UNL     1     -16.793  57.992  49.598  1.00  0.00     0.057 A 
HETATM    2  C6  UNL     1     -15.623  57.998  48.879  1.00  0.00     0.088 A 
HETATM    3  C7  UNL     1     -15.824  58.875  47.839  1.00  0.00     0.159 A 
HETATM    4  N2  UNL     1     -17.073  59.362  47.952  1.00  0.00    -0.273 N 
HETATM    5  C8  UNL     1     -17.600  60.346  46.997  1.00  0.00     0.180 C 
HETATM    6  N3  UNL     1     -17.645  58.834  49.000  1.00  0.00    -0.288 N 
ENDROOT
BRANCH   1   7
HETATM    7  C4  UNL     1     -17.055  57.205  50.794  1.00  0.00     0.066 C 
BRANCH   7   8
HETATM    8  C3  UNL     1     -16.515  56.054  51.081  1.00  0.00     0.103 A 
HETATM    9  N1  UNL     1     -17.313  55.016  51.417  1.00  0.00    -0.348 N 
HETATM   10  C2  UNL     1     -16.868  53.797  51.728  1.00  0.00     0.092 A 
ATOM     11  H1  UNL     1     -18.320  55.175  51.433  1.00  0.00     0.166 HD
HETATM   12  C1  UNL     1     -17.662  52.793  52.055  1.00  0.00     0.049 C 
HETATM   13  C14 UNL     1     -15.488  53.587  51.702  1.00  0.00     0.274 A 
HETATM   14  N6  UNL     1     -14.671  54.600  51.371  1.00  0.00    -0.287 N 
HETATM   15  O3  UNL     1     -15.011  52.461  51.987  1.00  0.00    -0.266 OA
HETATM   16  C13 UNL     1     -15.174  55.831  51.061  1.00  0.00     0.275 A 
ATOM     17  H6  UNL     1     -13.662  54.448  51.352  1.00  0.00     0.172 HD
HETATM   18  O2  UNL     1     -14.357  56.743  50.758  1.00  0.00    -0.266 OA
ENDBRANCH   7   8
ENDBRANCH   1   7
BRANCH   6  19
HETATM   19  C9  UNL     1     -18.999  59.135  49.457  1.00  0.00     0.151 C 
BRANCH  19  20
HETATM   20  C10 UNL     1     -19.839  57.937  49.728  1.00  0.00     0.041 C 
BRANCH  20  21
HETATM   21  C11 UNL     1     -19.905  56.926  48.613  1.00  0.00     0.121 C 
BRANCH  21  22
HETATM   22  N4  UNL     1     -20.508  55.688  49.127  1.00  0.00    -0.388 N 
HETATM   23  C12 UNL     1     -19.832  54.592  49.157  1.00  0.00     0.185 C 
HETATM   24  N5  UNL     1     -18.494  54.616  48.683  1.00  0.00    -0.097 NA
ATOM     25  H4  UNL     1     -21.471  55.697  49.461  1.00  0.00     0.159 HD
ENDBRANCH  21  22
ENDBRANCH  20  21
ENDBRANCH  19  20
ENDBRANCH   6  19
BRANCH   3  26
HETATM   26  O1  UNL     1     -14.854  59.152  46.884  1.00  0.00    -0.345 OA
ATOM     27  H1  UNL     1     -14.965  58.957  45.961  1.00  0.00     0.219 HD
ENDBRANCH   3  26
TORSDOF 7
ENDMDL
