MODEL 1
REMARK VINA RESULT: -5.490162679      0.000      0.000
REMARK  4 active torsions:
REMARK  status: ('A' for Active; 'I' for Inactive)
REMARK    1  A    between atoms: C3_6  and  C4_7 
REMARK    2  A    between atoms: N5_19  and  C11_21 
REMARK    3  A    between atoms: C11_21  and  C12_22 
REMARK    4  A    between atoms: C12_22  and  N6_23 
ROOT
HETATM    1  C1  UNL     1       4.386  44.373   7.006  1.00  0.00     0.197 C 
HETATM    2  N1  UNL     1       3.770  43.722   5.845  1.00  0.00    -0.128 N 
HETATM    3  N2  UNL     1       2.921  44.448   5.020  1.00  0.00    -0.279 N 
ATOM      4  H2  UNL     1       2.746  45.427   5.244  1.00  0.00     0.188 HD
HETATM    5  C2  UNL     1       2.272  43.878   3.854  1.00  0.00     0.119 A 
HETATM    6  C3  UNL     1       1.518  44.630   3.108  1.00  0.00     0.066 C 
HETATM    7  C9  UNL     1       2.591  42.481   3.628  1.00  0.00     0.287 A 
HETATM    8  O1  UNL     1       2.092  41.884   2.644  1.00  0.00    -0.265 OA
HETATM    9  N4  UNL     1       3.468  41.707   4.468  1.00  0.00    -0.153 N 
ATOM     10  H4  UNL     1       3.660  40.726   4.265  1.00  0.00     0.187 HD
HETATM   11  C10 UNL     1       4.052  42.345   5.580  1.00  0.00     0.697 A 
HETATM   12  N5  UNL     1       4.834  41.739   6.371  1.00  0.00    -0.223 N 
ATOM     13  H5  UNL     1       5.232  42.246   7.161  1.00  0.00     0.177 HD
ENDROOT
BRANCH   6  14
HETATM   14  C4  UNL     1       0.760  44.357   1.927  1.00  0.00     0.034 A 
HETATM   15  C5  UNL     1       0.560  45.165   0.843  1.00  0.00     0.029 A 
HETATM   16  C6  UNL     1      -0.224  44.745  -0.204  1.00  0.00     0.004 A 
HETATM   17  C7  UNL     1      -0.823  43.498  -0.176  1.00  0.00     0.017 A 
HETATM   18  C8  UNL     1      -0.614  42.686   0.928  1.00  0.00     0.088 A 
HETATM   19  N3  UNL     1       0.146  43.125   1.914  1.00  0.00    -0.366 N 
ATOM     20  H3  UNL     1       0.287  42.512   2.717  1.00  0.00     0.165 HD
ENDBRANCH   6  14
BRANCH  12  21
HETATM   21  C11 UNL     1       5.175  40.359   6.185  1.00  0.00     0.165 C 
BRANCH  21  22
HETATM   22  C12 UNL     1       6.168  39.947   7.262  1.00  0.00     0.249 C 
BRANCH  22  23
HETATM   23  N6  UNL     1       7.303  39.294   6.681  1.00  0.00    -0.078 N 
ATOM     24  H63 UNL     1       7.050  38.403   6.255  1.00  0.00     0.274 HD
ATOM     25  H62 UNL     1       7.630  39.777   5.844  1.00  0.00     0.274 HD
ATOM     26  H61 UNL     1       8.048  39.186   7.369  1.00  0.00     0.274 HD
ENDBRANCH  22  23
ENDBRANCH  21  22
ENDBRANCH  12  21
TORSDOF 4
ENDMDL
MODEL 2
REMARK VINA RESULT: -5.258218278      0.617      1.096
REMARK  4 active torsions:
REMARK  status: ('A' for Active; 'I' for Inactive)
REMARK    1  A    between atoms: C3_6  and  C4_7 
REMARK    2  A    between atoms: N5_19  and  C11_21 
REMARK    3  A    between atoms: C11_21  and  C12_22 
REMARK    4  A    between atoms: C12_22  and  N6_23 
ROOT
HETATM    1  C1  UNL     1       4.448  44.351   6.853  1.00  0.00     0.197 C 
HETATM    2  N1  UNL     1       3.785  43.621   5.765  1.00  0.00    -0.128 N 
HETATM    3  N2  UNL     1       2.920  44.294   4.913  1.00  0.00    -0.279 N 
ATOM      4  H2  UNL     1       2.766  45.291   5.065  1.00  0.00     0.188 HD
HETATM    5  C2  UNL     1       2.226  43.646   3.817  1.00  0.00     0.119 A 
HETATM    6  C3  UNL     1       1.458  44.349   3.037  1.00  0.00     0.066 C 
HETATM    7  C9  UNL     1       2.518  42.231   3.691  1.00  0.00     0.287 A 
HETATM    8  O1  UNL     1       1.979  41.567   2.773  1.00  0.00    -0.265 OA
HETATM    9  N4  UNL     1       3.411  41.510   4.562  1.00  0.00    -0.153 N 
ATOM     10  H4  UNL     1       3.583  40.514   4.430  1.00  0.00     0.187 HD
HETATM   11  C10 UNL     1       4.039  42.223   5.601  1.00  0.00     0.697 A 
HETATM   12  N5  UNL     1       4.838  41.669   6.412  1.00  0.00    -0.223 N 
ATOM     13  H5  UNL     1       5.269  42.230   7.147  1.00  0.00     0.177 HD
ENDROOT
BRANCH   6  14
HETATM   14  C4  UNL     1       0.659  43.998   1.906  1.00  0.00     0.034 A 
HETATM   15  C5  UNL     1       0.164  42.769   1.567  1.00  0.00     0.029 A 
HETATM   16  C6  UNL     1      -0.574  42.607   0.420  1.00  0.00     0.004 A 
HETATM   17  C7  UNL     1      -0.828  43.686  -0.408  1.00  0.00     0.017 A 
HETATM   18  C8  UNL     1      -0.323  44.928  -0.056  1.00  0.00     0.088 A 
HETATM   19  N3  UNL     1       0.382  45.043   1.054  1.00  0.00    -0.366 N 
ATOM     20  H3  UNL     1       0.745  45.965   1.296  1.00  0.00     0.165 HD
ENDBRANCH   6  14
BRANCH  12  21
HETATM   21  C11 UNL     1       5.154  40.273   6.325  1.00  0.00     0.165 C 
BRANCH  21  22
HETATM   22  C12 UNL     1       6.271  39.957   7.308  1.00  0.00     0.249 C 
BRANCH  22  23
HETATM   23  N6  UNL     1       7.362  39.307   6.645  1.00  0.00    -0.078 N 
ATOM     24  H63 UNL     1       7.996  39.980   6.213  1.00  0.00     0.274 HD
ATOM     25  H62 UNL     1       8.012  38.887   7.309  1.00  0.00     0.274 HD
ATOM     26  H61 UNL     1       7.019  38.624   5.969  1.00  0.00     0.274 HD
ENDBRANCH  22  23
ENDBRANCH  21  22
ENDBRANCH  12  21
TORSDOF 4
ENDMDL
MODEL 3
REMARK VINA RESULT: -4.935331247      1.537      1.974
REMARK  4 active torsions:
REMARK  status: ('A' for Active; 'I' for Inactive)
REMARK    1  A    between atoms: C3_6  and  C4_7 
REMARK    2  A    between atoms: N5_19  and  C11_21 
REMARK    3  A    between atoms: C11_21  and  C12_22 
REMARK    4  A    between atoms: C12_22  and  N6_23 
ROOT
HETATM    1  C1  UNL     1       5.991  43.248   8.000  1.00  0.00     0.197 C 
HETATM    2  N1  UNL     1       5.110  42.813   6.909  1.00  0.00    -0.128 N 
HETATM    3  N2  UNL     1       4.300  43.741   6.268  1.00  0.00    -0.279 N 
ATOM      4  H2  UNL     1       4.338  44.713   6.575  1.00  0.00     0.188 HD
HETATM    5  C2  UNL     1       3.403  43.392   5.183  1.00  0.00     0.119 A 
HETATM    6  C3  UNL     1       2.700  44.322   4.607  1.00  0.00     0.066 C 
HETATM    7  C9  UNL     1       3.430  41.986   4.827  1.00  0.00     0.287 A 
HETATM    8  O1  UNL     1       2.698  41.569   3.897  1.00  0.00    -0.265 OA
HETATM    9  N4  UNL     1       4.260  41.004   5.476  1.00  0.00    -0.153 N 
ATOM     10  H4  UNL     1       4.242  40.027   5.187  1.00  0.00     0.187 HD
HETATM   11  C10 UNL     1       5.099  41.436   6.522  1.00  0.00     0.697 A 
HETATM   12  N5  UNL     1       5.862  40.641   7.147  1.00  0.00    -0.223 N 
ATOM     13  H5  UNL     1       6.451  41.003   7.896  1.00  0.00     0.177 HD
ENDROOT
BRANCH   6  14
HETATM   14  C4  UNL     1       1.748  44.285   3.542  1.00  0.00     0.034 A 
HETATM   15  C5  UNL     1       1.890  43.734   2.298  1.00  0.00     0.029 A 
HETATM   16  C6  UNL     1       0.868  43.811   1.382  1.00  0.00     0.004 A 
HETATM   17  C7  UNL     1      -0.318  44.445   1.706  1.00  0.00     0.017 A 
HETATM   18  C8  UNL     1      -0.452  45.000   2.969  1.00  0.00     0.088 A 
HETATM   19  N3  UNL     1       0.552  44.906   3.822  1.00  0.00    -0.366 N 
ATOM     20  H3  UNL     1       0.434  45.320   4.747  1.00  0.00     0.165 HD
ENDBRANCH   6  14
BRANCH  12  21
HETATM   21  C11 UNL     1       5.919  39.243   6.829  1.00  0.00     0.165 C 
BRANCH  21  22
HETATM   22  C12 UNL     1       7.347  38.754   7.011  1.00  0.00     0.249 C 
BRANCH  22  23
HETATM   23  N6  UNL     1       8.006  38.630   5.745  1.00  0.00    -0.078 N 
ATOM     24  H63 UNL     1       7.371  38.296   5.020  1.00  0.00     0.274 HD
ATOM     25  H62 UNL     1       8.230  39.541   5.345  1.00  0.00     0.274 HD
ATOM     26  H61 UNL     1       8.833  38.039   5.824  1.00  0.00     0.274 HD
ENDBRANCH  22  23
ENDBRANCH  21  22
ENDBRANCH  12  21
TORSDOF 4
ENDMDL
MODEL 4
REMARK VINA RESULT: -4.881349941      1.665      2.309
REMARK  4 active torsions:
REMARK  status: ('A' for Active; 'I' for Inactive)
REMARK    1  A    between atoms: C3_6  and  C4_7 
REMARK    2  A    between atoms: N5_19  and  C11_21 
REMARK    3  A    between atoms: C11_21  and  C12_22 
REMARK    4  A    between atoms: C12_22  and  N6_23 
ROOT
HETATM    1  C1  UNL     1       6.199  43.041   8.248  1.00  0.00     0.197 C 
HETATM    2  N1  UNL     1       5.279  42.753   7.142  1.00  0.00    -0.128 N 
HETATM    3  N2  UNL     1       4.500  43.773   6.613  1.00  0.00    -0.279 N 
ATOM      4  H2  UNL     1       4.587  44.708   7.012  1.00  0.00     0.188 HD
HETATM    5  C2  UNL     1       3.567  43.572   5.521  1.00  0.00     0.119 A 
HETATM    6  C3  UNL     1       2.896  44.584   5.055  1.00  0.00     0.066 C 
HETATM    7  C9  UNL     1       3.522  42.208   5.030  1.00  0.00     0.287 A 
HETATM    8  O1  UNL     1       2.754  41.916   4.082  1.00  0.00    -0.265 OA
HETATM    9  N4  UNL     1       4.320  41.132   5.561  1.00  0.00    -0.153 N 
ATOM     10  H4  UNL     1       4.251  40.189   5.179  1.00  0.00     0.187 HD
HETATM   11  C10 UNL     1       5.198  41.422   6.623  1.00  0.00     0.697 A 
HETATM   12  N5  UNL     1       5.936  40.537   7.150  1.00  0.00    -0.223 N 
ATOM     13  H5  UNL     1       6.555  40.799   7.916  1.00  0.00     0.177 HD
ENDROOT
BRANCH   6  14
HETATM   14  C4  UNL     1       1.922  44.692   4.014  1.00  0.00     0.034 A 
HETATM   15  C5  UNL     1       0.564  44.800   4.132  1.00  0.00     0.029 A 
HETATM   16  C6  UNL     1      -0.228  44.872   3.012  1.00  0.00     0.004 A 
HETATM   17  C7  UNL     1       0.337  44.837   1.749  1.00  0.00     0.017 A 
HETATM   18  C8  UNL     1       1.714  44.729   1.640  1.00  0.00     0.088 A 
HETATM   19  N3  UNL     1       2.442  44.661   2.740  1.00  0.00    -0.366 N 
ATOM     20  H3  UNL     1       3.454  44.582   2.638  1.00  0.00     0.165 HD
ENDBRANCH   6  14
BRANCH  12  21
HETATM   21  C11 UNL     1       5.923  39.177   6.697  1.00  0.00     0.165 C 
BRANCH  21  22
HETATM   22  C12 UNL     1       7.306  38.577   6.896  1.00  0.00     0.249 C 
BRANCH  22  23
HETATM   23  N6  UNL     1       8.071  38.655   5.688  1.00  0.00    -0.078 N 
ATOM     24  H63 UNL     1       7.606  39.225   4.981  1.00  0.00     0.274 HD
ATOM     25  H62 UNL     1       8.913  39.218   5.809  1.00  0.00     0.274 HD
ATOM     26  H61 UNL     1       8.289  37.722   5.337  1.00  0.00     0.274 HD
ENDBRANCH  22  23
ENDBRANCH  21  22
ENDBRANCH  12  21
TORSDOF 4
ENDMDL
MODEL 5
REMARK VINA RESULT: -4.627302021      2.351      3.458
REMARK  4 active torsions:
REMARK  status: ('A' for Active; 'I' for Inactive)
REMARK    1  A    between atoms: C3_6  and  C4_7 
REMARK    2  A    between atoms: N5_19  and  C11_21 
REMARK    3  A    between atoms: C11_21  and  C12_22 
REMARK    4  A    between atoms: C12_22  and  N6_23 
ROOT
HETATM    1  C1  UNL     1       2.864  39.343   4.230  1.00  0.00     0.197 C 
HETATM    2  N1  UNL     1       3.039  40.758   4.575  1.00  0.00    -0.128 N 
HETATM    3  N2  UNL     1       2.236  41.717   3.972  1.00  0.00    -0.279 N 
ATOM      4  H2  UNL     1       1.536  41.410   3.297  1.00  0.00     0.188 HD
HETATM    5  C2  UNL     1       2.345  43.134   4.259  1.00  0.00     0.119 A 
HETATM    6  C3  UNL     1       1.534  43.971   3.681  1.00  0.00     0.066 C 
HETATM    7  C9  UNL     1       3.369  43.460   5.233  1.00  0.00     0.287 A 
HETATM    8  O1  UNL     1       3.551  44.657   5.563  1.00  0.00    -0.265 OA
HETATM    9  N4  UNL     1       4.215  42.485   5.872  1.00  0.00    -0.153 N 
ATOM     10  H4  UNL     1       4.921  42.767   6.551  1.00  0.00     0.187 HD
HETATM   11  C10 UNL     1       4.037  41.130   5.530  1.00  0.00     0.697 A 
HETATM   12  N5  UNL     1       4.737  40.208   6.043  1.00  0.00    -0.223 N 
ATOM     13  H5  UNL     1       4.568  39.242   5.763  1.00  0.00     0.177 HD
ENDROOT
BRANCH   6  14
HETATM   14  C4  UNL     1       1.407  45.392   3.757  1.00  0.00     0.034 A 
HETATM   15  C5  UNL     1       1.289  46.288   2.731  1.00  0.00     0.029 A 
HETATM   16  C6  UNL     1       1.199  47.635   2.989  1.00  0.00     0.004 A 
HETATM   17  C7  UNL     1       1.224  48.103   4.291  1.00  0.00     0.017 A 
HETATM   18  C8  UNL     1       1.343  47.187   5.324  1.00  0.00     0.088 A 
HETATM   19  N3  UNL     1       1.428  45.901   5.036  1.00  0.00    -0.366 N 
ATOM     20  H3  UNL     1       1.514  45.242   5.810  1.00  0.00     0.165 HD
ENDBRANCH   6  14
BRANCH  12  21
HETATM   21  C11 UNL     1       5.761  40.485   7.008  1.00  0.00     0.165 C 
BRANCH  21  22
HETATM   22  C12 UNL     1       6.520  39.201   7.304  1.00  0.00     0.249 C 
BRANCH  22  23
HETATM   23  N6  UNL     1       7.320  38.815   6.180  1.00  0.00    -0.078 N 
ATOM     24  H63 UNL     1       7.663  39.625   5.664  1.00  0.00     0.274 HD
ATOM     25  H62 UNL     1       8.217  38.426   6.471  1.00  0.00     0.274 HD
ATOM     26  H61 UNL     1       6.808  38.171   5.577  1.00  0.00     0.274 HD
ENDBRANCH  22  23
ENDBRANCH  21  22
ENDBRANCH  12  21
TORSDOF 4
ENDMDL
