MODEL 1
REMARK VINA RESULT: -4.714968906      0.000      0.000
REMARK  7 active torsions:
REMARK  status: ('A' for Active; 'I' for Inactive)
REMARK    1  A    between atoms: C3_5  and  C4_6 
REMARK    2  A    between atoms: C4_6  and  C5_7 
REMARK    3  A    between atoms: C8_10  and  O1_11 
REMARK    4  A    between atoms: O1_11  and  C9_12 
REMARK    5  A    between atoms: C9_12  and  C10_13 
REMARK    6  A    between atoms: C10_13  and  O2_14 
REMARK    7  A    between atoms: C13_18  and  N2_19 
ROOT
HETATM    1  C4  UNL     1       1.571  45.298   5.227  1.00  0.00     0.044 C 
ENDROOT
BRANCH   1   2
HETATM    2  C3  UNL     1       2.575  44.598   5.726  1.00  0.00     0.078 A 
HETATM    3  N1  UNL     1       2.822  43.296   5.465  1.00  0.00    -0.340 N 
HETATM    4  C2  UNL     1       3.925  42.895   6.140  1.00  0.00     0.099 A 
ATOM      5  H1  UNL     1       2.262  42.704   4.852  1.00  0.00     0.167 HD
HETATM    6  C1  UNL     1       4.479  41.689   6.137  1.00  0.00     0.064 C 
HETATM    7  N3  UNL     1       4.341  43.982   6.816  1.00  0.00    -0.323 N 
HETATM    8  C13 UNL     1       3.548  45.045   6.595  1.00  0.00     0.129 A 
HETATM    9  C14 UNL     1       5.499  44.021   7.683  1.00  0.00     0.159 C 
BRANCH   8  10
HETATM   10  N2  UNL     1       3.639  46.239   7.069  1.00  0.00    -0.383 N 
ATOM     11  H22 UNL     1       2.895  46.890   7.321  1.00  0.00     0.157 HD
ATOM     12  H21 UNL     1       4.508  46.733   7.271  1.00  0.00     0.157 HD
ENDBRANCH   8  10
ENDBRANCH   1   2
BRANCH   1  13
HETATM   13  C5  UNL     1       1.201  45.278   3.829  1.00  0.00    -0.034 A 
HETATM   14  C6  UNL     1       2.077  45.527   2.802  1.00  0.00     0.014 A 
HETATM   15  C7  UNL     1       1.668  45.494   1.466  1.00  0.00     0.037 A 
HETATM   16  C8  UNL     1       0.362  45.209   1.134  1.00  0.00     0.068 A 
HETATM   17  C11 UNL     1      -0.539  44.955   2.184  1.00  0.00     0.037 A 
HETATM   18  C12 UNL     1      -0.089  44.998   3.478  1.00  0.00     0.014 A 
BRANCH  16  19
HETATM   19  O1  UNL     1      -0.113  45.156  -0.131  1.00  0.00    -0.349 OA
BRANCH  19  20
HETATM   20  C9  UNL     1      -1.154  44.513  -0.735  1.00  0.00     0.201 C 
BRANCH  20  21
HETATM   21  C10 UNL     1      -0.977  43.045  -1.024  1.00  0.00     0.190 C 
BRANCH  21  22
HETATM   22  O2  UNL     1      -1.134  42.282   0.148  1.00  0.00    -0.399 OA
ATOM     23  H2  UNL     1      -0.850  41.387   0.008  1.00  0.00     0.209 HD
ENDBRANCH  21  22
ENDBRANCH  20  21
ENDBRANCH  19  20
ENDBRANCH  16  19
ENDBRANCH   1  13
TORSDOF 7
ENDMDL
MODEL 2
REMARK VINA RESULT: -4.654832764      0.672      1.672
REMARK  7 active torsions:
REMARK  status: ('A' for Active; 'I' for Inactive)
REMARK    1  A    between atoms: C3_5  and  C4_6 
REMARK    2  A    between atoms: C4_6  and  C5_7 
REMARK    3  A    between atoms: C8_10  and  O1_11 
REMARK    4  A    between atoms: O1_11  and  C9_12 
REMARK    5  A    between atoms: C9_12  and  C10_13 
REMARK    6  A    between atoms: C10_13  and  O2_14 
REMARK    7  A    between atoms: C13_18  and  N2_19 
ROOT
HETATM    1  C4  UNL     1       1.709  45.290   5.236  1.00  0.00     0.044 C 
ENDROOT
BRANCH   1   2
HETATM    2  C3  UNL     1       2.681  44.542   5.728  1.00  0.00     0.078 A 
HETATM    3  N1  UNL     1       3.685  44.988   6.515  1.00  0.00    -0.340 N 
HETATM    4  C2  UNL     1       4.504  43.959   6.838  1.00  0.00     0.099 A 
ATOM      5  H1  UNL     1       3.808  45.953   6.819  1.00  0.00     0.167 HD
HETATM    6  C1  UNL     1       5.595  44.002   7.593  1.00  0.00     0.064 C 
HETATM    7  N3  UNL     1       3.975  42.881   6.231  1.00  0.00    -0.323 N 
HETATM    8  C13 UNL     1       2.862  43.188   5.542  1.00  0.00     0.129 A 
HETATM    9  C14 UNL     1       4.524  41.544   6.299  1.00  0.00     0.159 C 
BRANCH   8  10
HETATM   10  N2  UNL     1       2.100  42.418   4.846  1.00  0.00    -0.383 N 
ATOM     11  H22 UNL     1       1.092  42.475   4.696  1.00  0.00     0.157 HD
ATOM     12  H21 UNL     1       2.404  41.601   4.317  1.00  0.00     0.157 HD
ENDBRANCH   8  10
ENDBRANCH   1   2
BRANCH   1  13
HETATM   13  C5  UNL     1       1.311  45.269   3.846  1.00  0.00    -0.034 A 
HETATM   14  C6  UNL     1       2.174  45.476   2.800  1.00  0.00     0.014 A 
HETATM   15  C7  UNL     1       1.737  45.442   1.472  1.00  0.00     0.037 A 
HETATM   16  C8  UNL     1       0.416  45.200   1.170  1.00  0.00     0.068 A 
HETATM   17  C11 UNL     1      -0.473  44.989   2.239  1.00  0.00     0.037 A 
HETATM   18  C12 UNL     1       0.004  45.030   3.524  1.00  0.00     0.014 A 
BRANCH  16  19
HETATM   19  O1  UNL     1      -0.086  45.151  -0.085  1.00  0.00    -0.349 OA
BRANCH  19  20
HETATM   20  C9  UNL     1      -1.141  44.510  -0.668  1.00  0.00     0.201 C 
BRANCH  20  21
HETATM   21  C10 UNL     1      -0.973  43.043  -0.965  1.00  0.00     0.190 C 
BRANCH  21  22
HETATM   22  O2  UNL     1      -1.122  42.275   0.206  1.00  0.00    -0.399 OA
ATOM     23  H2  UNL     1      -2.037  42.208   0.450  1.00  0.00     0.209 HD
ENDBRANCH  21  22
ENDBRANCH  20  21
ENDBRANCH  19  20
ENDBRANCH  16  19
ENDBRANCH   1  13
TORSDOF 7
ENDMDL
MODEL 3
REMARK VINA RESULT: -4.639112408      3.902      7.120
REMARK  7 active torsions:
REMARK  status: ('A' for Active; 'I' for Inactive)
REMARK    1  A    between atoms: C3_5  and  C4_6 
REMARK    2  A    between atoms: C4_6  and  C5_7 
REMARK    3  A    between atoms: C8_10  and  O1_11 
REMARK    4  A    between atoms: O1_11  and  C9_12 
REMARK    5  A    between atoms: C9_12  and  C10_13 
REMARK    6  A    between atoms: C10_13  and  O2_14 
REMARK    7  A    between atoms: C13_18  and  N2_19 
ROOT
HETATM    1  C4  UNL     1       1.028  44.262   4.331  1.00  0.00     0.044 C 
ENDROOT
BRANCH   1   2
HETATM    2  C3  UNL     1       1.057  44.733   3.096  1.00  0.00     0.078 A 
HETATM    3  N1  UNL     1       1.997  45.567   2.603  1.00  0.00    -0.340 N 
HETATM    4  C2  UNL     1       1.724  45.850   1.307  1.00  0.00     0.099 A 
ATOM      5  H1  UNL     1       2.793  45.930   3.126  1.00  0.00     0.167 HD
HETATM    6  C1  UNL     1       2.416  46.631   0.487  1.00  0.00     0.064 C 
HETATM    7  N3  UNL     1       0.598  45.169   1.026  1.00  0.00    -0.323 N 
HETATM    8  C13 UNL     1       0.153  44.473   2.087  1.00  0.00     0.129 A 
HETATM    9  C14 UNL     1      -0.071  45.173  -0.258  1.00  0.00     0.159 C 
BRANCH   8  10
HETATM   10  N2  UNL     1      -0.883  43.715   2.186  1.00  0.00    -0.383 N 
ATOM     11  H22 UNL     1      -1.229  43.200   2.996  1.00  0.00     0.157 HD
ATOM     12  H21 UNL     1      -1.542  43.509   1.435  1.00  0.00     0.157 HD
ENDBRANCH   8  10
ENDBRANCH   1   2
BRANCH   1  13
HETATM   13  C5  UNL     1       2.035  43.377   4.872  1.00  0.00    -0.034 A 
HETATM   14  C6  UNL     1       3.090  43.798   5.642  1.00  0.00     0.014 A 
HETATM   15  C7  UNL     1       4.037  42.899   6.142  1.00  0.00     0.037 A 
HETATM   16  C8  UNL     1       3.941  41.551   5.875  1.00  0.00     0.068 A 
HETATM   17  C11 UNL     1       2.862  41.116   5.085  1.00  0.00     0.037 A 
HETATM   18  C12 UNL     1       1.959  42.036   4.618  1.00  0.00     0.014 A 
BRANCH  16  19
HETATM   19  O1  UNL     1       4.813  40.618   6.321  1.00  0.00    -0.349 OA
BRANCH  19  20
HETATM   20  C9  UNL     1       5.798  40.605   7.265  1.00  0.00     0.201 C 
BRANCH  20  21
HETATM   21  C10 UNL     1       6.685  39.388   7.313  1.00  0.00     0.190 C 
BRANCH  21  22
HETATM   22  O2  UNL     1       6.414  38.530   6.230  1.00  0.00    -0.399 OA
ATOM     23  H2  UNL     1       7.032  38.674   5.524  1.00  0.00     0.209 HD
ENDBRANCH  21  22
ENDBRANCH  20  21
ENDBRANCH  19  20
ENDBRANCH  16  19
ENDBRANCH   1  13
TORSDOF 7
ENDMDL
MODEL 4
REMARK VINA RESULT: -4.596686955      3.950      7.173
REMARK  7 active torsions:
REMARK  status: ('A' for Active; 'I' for Inactive)
REMARK    1  A    between atoms: C3_5  and  C4_6 
REMARK    2  A    between atoms: C4_6  and  C5_7 
REMARK    3  A    between atoms: C8_10  and  O1_11 
REMARK    4  A    between atoms: O1_11  and  C9_12 
REMARK    5  A    between atoms: C9_12  and  C10_13 
REMARK    6  A    between atoms: C10_13  and  O2_14 
REMARK    7  A    between atoms: C13_18  and  N2_19 
ROOT
HETATM    1  C4  UNL     1       2.532  44.508   3.551  1.00  0.00     0.044 C 
ENDROOT
BRANCH   1   2
HETATM    2  C3  UNL     1       1.666  44.273   2.581  1.00  0.00     0.078 A 
HETATM    3  N1  UNL     1       1.049  43.092   2.357  1.00  0.00    -0.340 N 
HETATM    4  C2  UNL     1       0.228  43.201   1.285  1.00  0.00     0.099 A 
ATOM      5  H1  UNL     1       1.181  42.247   2.911  1.00  0.00     0.167 HD
HETATM    6  C1  UNL     1      -0.543  42.257   0.760  1.00  0.00     0.064 C 
HETATM    7  N3  UNL     1       0.362  44.472   0.865  1.00  0.00    -0.323 N 
HETATM    8  C13 UNL     1       1.228  45.165   1.624  1.00  0.00     0.129 A 
HETATM    9  C14 UNL     1      -0.335  45.044  -0.268  1.00  0.00     0.159 C 
BRANCH   8  10
HETATM   10  N2  UNL     1       1.599  46.393   1.519  1.00  0.00    -0.383 N 
ATOM     11  H22 UNL     1       1.810  47.068   2.255  1.00  0.00     0.157 HD
ATOM     12  H21 UNL     1       1.744  46.897   0.644  1.00  0.00     0.157 HD
ENDBRANCH   8  10
ENDBRANCH   1   2
BRANCH   1  13
HETATM   13  C5  UNL     1       3.102  43.470   4.381  1.00  0.00    -0.034 A 
HETATM   14  C6  UNL     1       3.013  42.130   4.099  1.00  0.00     0.014 A 
HETATM   15  C7  UNL     1       3.584  41.166   4.936  1.00  0.00     0.037 A 
HETATM   16  C8  UNL     1       4.259  41.533   6.079  1.00  0.00     0.068 A 
HETATM   17  C11 UNL     1       4.351  42.906   6.372  1.00  0.00     0.037 A 
HETATM   18  C12 UNL     1       3.776  43.813   5.520  1.00  0.00     0.014 A 
BRANCH  16  19
HETATM   19  O1  UNL     1       4.839  40.665   6.938  1.00  0.00    -0.349 OA
BRANCH  19  20
HETATM   20  C9  UNL     1       6.129  40.381   7.284  1.00  0.00     0.201 C 
BRANCH  20  21
HETATM   21  C10 UNL     1       6.600  38.966   7.068  1.00  0.00     0.190 C 
BRANCH  21  22
HETATM   22  O2  UNL     1       5.904  38.365   6.002  1.00  0.00    -0.399 OA
ATOM     23  H2  UNL     1       5.009  38.171   6.251  1.00  0.00     0.209 HD
ENDBRANCH  21  22
ENDBRANCH  20  21
ENDBRANCH  19  20
ENDBRANCH  16  19
ENDBRANCH   1  13
TORSDOF 7
ENDMDL
MODEL 5
REMARK VINA RESULT: -4.523695999      3.893      7.023
REMARK  7 active torsions:
REMARK  status: ('A' for Active; 'I' for Inactive)
REMARK    1  A    between atoms: C3_5  and  C4_6 
REMARK    2  A    between atoms: C4_6  and  C5_7 
REMARK    3  A    between atoms: C8_10  and  O1_11 
REMARK    4  A    between atoms: O1_11  and  C9_12 
REMARK    5  A    between atoms: C9_12  and  C10_13 
REMARK    6  A    between atoms: C10_13  and  O2_14 
REMARK    7  A    between atoms: C13_18  and  N2_19 
ROOT
HETATM    1  C4  UNL     1       0.971  44.346   4.309  1.00  0.00     0.044 C 
ENDROOT
BRANCH   1   2
HETATM    2  C3  UNL     1       0.637  44.391   3.032  1.00  0.00     0.078 A 
HETATM    3  N1  UNL     1      -0.095  43.459   2.384  1.00  0.00    -0.340 N 
HETATM    4  C2  UNL     1      -0.250  43.818   1.088  1.00  0.00     0.099 A 
ATOM      5  H1  UNL     1      -0.473  42.612   2.808  1.00  0.00     0.167 HD
HETATM    6  C1  UNL     1      -0.905  43.159   0.141  1.00  0.00     0.064 C 
HETATM    7  N3  UNL     1       0.404  44.988   0.964  1.00  0.00    -0.323 N 
HETATM    8  C13 UNL     1       0.961  45.378   2.124  1.00  0.00     0.129 A 
HETATM    9  C14 UNL     1       0.507  45.750  -0.263  1.00  0.00     0.159 C 
BRANCH   8  10
HETATM   10  N2  UNL     1       1.654  46.433   2.378  1.00  0.00    -0.383 N 
ATOM     11  H22 UNL     1       2.612  46.655   2.106  1.00  0.00     0.157 HD
ATOM     12  H21 UNL     1       1.334  47.239   2.913  1.00  0.00     0.157 HD
ENDBRANCH   8  10
ENDBRANCH   1   2
BRANCH   1  13
HETATM   13  C5  UNL     1       1.989  43.464   4.837  1.00  0.00    -0.034 A 
HETATM   14  C6  UNL     1       3.075  43.895   5.557  1.00  0.00     0.014 A 
HETATM   15  C7  UNL     1       4.031  43.000   6.047  1.00  0.00     0.037 A 
HETATM   16  C8  UNL     1       3.913  41.646   5.820  1.00  0.00     0.068 A 
HETATM   17  C11 UNL     1       2.802  41.201   5.082  1.00  0.00     0.037 A 
HETATM   18  C12 UNL     1       1.891  42.118   4.624  1.00  0.00     0.014 A 
BRANCH  16  19
HETATM   19  O1  UNL     1       4.791  40.716   6.260  1.00  0.00    -0.349 OA
BRANCH  19  20
HETATM   20  C9  UNL     1       5.722  40.677   7.257  1.00  0.00     0.201 C 
BRANCH  20  21
HETATM   21  C10 UNL     1       6.619  39.468   7.309  1.00  0.00     0.190 C 
BRANCH  21  22
HETATM   22  O2  UNL     1       6.336  38.589   6.247  1.00  0.00    -0.399 OA
ATOM     23  H2  UNL     1       6.904  37.829   6.278  1.00  0.00     0.209 HD
ENDBRANCH  21  22
ENDBRANCH  20  21
ENDBRANCH  19  20
ENDBRANCH  16  19
ENDBRANCH   1  13
TORSDOF 7
ENDMDL
