MODEL 1
REMARK VINA RESULT: -6.931236208      0.000      0.000
REMARK  5 active torsions:
REMARK  status: ('A' for Active; 'I' for Inactive)
REMARK    1  A    between atoms: C2_2  and  N1_3 
REMARK    2  A    between atoms: C4_6  and  C5_7 
REMARK    3  A    between atoms: C5_7  and  C6_8 
REMARK    4  A    between atoms: C6_8  and  N3_9 
REMARK    5  A    between atoms: N5_16  and  N6_18 
ROOT
HETATM    1  N1  UNL     1       1.439  44.925   1.797  1.00  0.00    -0.298 N 
HETATM    2  C3  UNL     1       2.140  44.000   2.513  1.00  0.00     0.144 A 
HETATM    3  N2  UNL     1       3.217  44.523   3.301  1.00  0.00    -0.080 NA
HETATM    4  C4  UNL     1       1.833  42.650   2.493  1.00  0.00     0.054 A 
HETATM    5  N4  UNL     1       0.792  42.264   1.724  1.00  0.00    -0.337 N 
ATOM      6  H4  UNL     1       0.547  41.274   1.692  1.00  0.00     0.167 HD
HETATM    7  C10 UNL     1       0.066  43.132   0.996  1.00  0.00     0.189 A 
HETATM    8  N5  UNL     1      -0.909  42.672   0.292  1.00  0.00    -0.287 N 
ATOM      9  H5  UNL     1      -1.108  41.672   0.301  1.00  0.00     0.188 HD
HETATM   10  C11 UNL     1       0.410  44.465   1.050  1.00  0.00     0.294 A 
HETATM   11  O1  UNL     1      -0.243  45.311   0.386  1.00  0.00    -0.264 OA
ENDROOT
BRANCH   4  12
HETATM   12  C5  UNL     1       2.620  41.680   3.288  1.00  0.00     0.088 C 
BRANCH  12  13
HETATM   13  C6  UNL     1       3.688  42.271   4.135  1.00  0.00     0.242 C 
BRANCH  13  14
HETATM   14  N3  UNL     1       3.453  42.138   5.544  1.00  0.00    -0.078 N 
HETATM   15  C7  UNL     1       2.119  41.669   5.847  1.00  0.00     0.271 C 
HETATM   16  C8  UNL     1       3.625  43.437   6.168  1.00  0.00     0.271 C 
HETATM   17  C9  UNL     1       4.384  41.237   6.191  1.00  0.00     0.271 C 
ENDBRANCH  13  14
ENDBRANCH  12  13
ENDBRANCH   4  12
BRANCH   1  18
HETATM   18  C2  UNL     1       1.797  46.318   1.852  1.00  0.00     0.129 C 
HETATM   19  C1  UNL     1       1.167  47.080   2.972  1.00  0.00     0.027 C 
ENDBRANCH   1  18
BRANCH   8  20
HETATM   20  N6  UNL     1      -1.696  43.521  -0.479  1.00  0.00    -0.343 N 
ATOM     21  H62 UNL     1      -1.816  44.486  -0.174  1.00  0.00     0.176 HD
ATOM     22  H61 UNL     1      -2.145  43.188  -1.332  1.00  0.00     0.176 HD
ENDBRANCH   8  20
TORSDOF 5
ENDMDL
MODEL 2
REMARK VINA RESULT: -6.798287478      1.525      3.180
REMARK  5 active torsions:
REMARK  status: ('A' for Active; 'I' for Inactive)
REMARK    1  A    between atoms: C2_2  and  N1_3 
REMARK    2  A    between atoms: C4_6  and  C5_7 
REMARK    3  A    between atoms: C5_7  and  C6_8 
REMARK    4  A    between atoms: C6_8  and  N3_9 
REMARK    5  A    between atoms: N5_16  and  N6_18 
ROOT
HETATM    1  N1  UNL     1       0.405  44.233   1.943  1.00  0.00    -0.298 N 
HETATM    2  C3  UNL     1       1.437  43.381   2.204  1.00  0.00     0.144 A 
HETATM    3  N2  UNL     1       1.265  42.042   1.721  1.00  0.00    -0.080 NA
HETATM    4  C4  UNL     1       2.578  43.775   2.882  1.00  0.00     0.054 A 
HETATM    5  N4  UNL     1       2.643  45.062   3.287  1.00  0.00    -0.337 N 
ATOM      6  H4  UNL     1       3.474  45.377   3.788  1.00  0.00     0.167 HD
HETATM    7  C10 UNL     1       1.656  45.946   3.056  1.00  0.00     0.189 A 
HETATM    8  N5  UNL     1       1.806  47.153   3.480  1.00  0.00    -0.287 N 
ATOM      9  H5  UNL     1       2.660  47.410   3.975  1.00  0.00     0.188 HD
HETATM   10  C11 UNL     1       0.540  45.505   2.378  1.00  0.00     0.294 A 
HETATM   11  O1  UNL     1      -0.407  46.299   2.140  1.00  0.00    -0.264 OA
ENDROOT
BRANCH   4  12
HETATM   12  C5  UNL     1       3.676  42.817   3.144  1.00  0.00     0.088 C 
BRANCH  12  13
HETATM   13  C6  UNL     1       4.091  42.701   4.566  1.00  0.00     0.242 C 
BRANCH  13  14
HETATM   14  N3  UNL     1       3.443  41.636   5.276  1.00  0.00    -0.078 N 
HETATM   15  C7  UNL     1       2.240  42.067   5.953  1.00  0.00     0.271 C 
HETATM   16  C8  UNL     1       4.359  41.119   6.274  1.00  0.00     0.271 C 
HETATM   17  C9  UNL     1       3.082  40.524   4.423  1.00  0.00     0.271 C 
ENDBRANCH  13  14
ENDBRANCH  12  13
ENDBRANCH   4  12
BRANCH   1  18
HETATM   18  C2  UNL     1      -0.761  43.773   1.234  1.00  0.00     0.129 C 
HETATM   19  C1  UNL     1      -0.807  44.160  -0.208  1.00  0.00     0.027 C 
ENDBRANCH   1  18
BRANCH   8  20
HETATM   20  N6  UNL     1       0.820  48.111   3.271  1.00  0.00    -0.343 N 
ATOM     21  H62 UNL     1      -0.029  48.069   3.835  1.00  0.00     0.176 HD
ATOM     22  H61 UNL     1       0.939  48.842   2.570  1.00  0.00     0.176 HD
ENDBRANCH   8  20
TORSDOF 5
ENDMDL
MODEL 3
REMARK VINA RESULT: -6.229505012      2.721      4.167
REMARK  5 active torsions:
REMARK  status: ('A' for Active; 'I' for Inactive)
REMARK    1  A    between atoms: C2_2  and  N1_3 
REMARK    2  A    between atoms: C4_6  and  C5_7 
REMARK    3  A    between atoms: C5_7  and  C6_8 
REMARK    4  A    between atoms: C6_8  and  N3_9 
REMARK    5  A    between atoms: N5_16  and  N6_18 
ROOT
HETATM    1  N1  UNL     1       2.734  43.341   4.710  1.00  0.00    -0.298 N 
HETATM    2  C3  UNL     1       3.668  42.835   5.565  1.00  0.00     0.144 A 
HETATM    3  N2  UNL     1       4.291  43.793   6.431  1.00  0.00    -0.080 NA
HETATM    4  C4  UNL     1       3.992  41.489   5.607  1.00  0.00     0.054 A 
HETATM    5  N4  UNL     1       3.339  40.670   4.755  1.00  0.00    -0.337 N 
ATOM      6  H4  UNL     1       3.560  39.674   4.767  1.00  0.00     0.167 HD
HETATM    7  C10 UNL     1       2.409  41.114   3.890  1.00  0.00     0.189 A 
HETATM    8  N5  UNL     1       1.838  40.258   3.115  1.00  0.00    -0.287 N 
ATOM      9  H5  UNL     1       2.100  39.274   3.172  1.00  0.00     0.188 HD
HETATM   10  C11 UNL     1       2.122  42.462   3.887  1.00  0.00     0.294 A 
HETATM   11  O1  UNL     1       1.258  42.919   3.095  1.00  0.00    -0.264 OA
ENDROOT
BRANCH   4  12
HETATM   12  C5  UNL     1       5.012  40.982   6.553  1.00  0.00     0.088 C 
BRANCH  12  13
HETATM   13  C6  UNL     1       5.586  39.654   6.213  1.00  0.00     0.242 C 
BRANCH  13  14
HETATM   14  N3  UNL     1       6.543  39.173   7.168  1.00  0.00    -0.078 N 
HETATM   15  C7  UNL     1       6.148  37.921   7.774  1.00  0.00     0.271 C 
HETATM   16  C8  UNL     1       6.683  40.159   8.223  1.00  0.00     0.271 C 
HETATM   17  C9  UNL     1       7.861  38.979   6.600  1.00  0.00     0.271 C 
ENDBRANCH  13  14
ENDBRANCH  12  13
ENDBRANCH   4  12
BRANCH   1  18
HETATM   18  C2  UNL     1       2.434  44.749   4.706  1.00  0.00     0.129 C 
HETATM   19  C1  UNL     1       1.312  45.150   5.607  1.00  0.00     0.027 C 
ENDBRANCH   1  18
BRANCH   8  20
HETATM   20  N6  UNL     1       0.869  40.658   2.201  1.00  0.00    -0.343 N 
ATOM     21  H62 UNL     1       0.520  39.973   1.530  1.00  0.00     0.176 HD
ATOM     22  H61 UNL     1       0.513  41.613   2.198  1.00  0.00     0.176 HD
ENDBRANCH   8  20
TORSDOF 5
ENDMDL
MODEL 4
REMARK VINA RESULT: -6.191689327      2.998      5.469
REMARK  5 active torsions:
REMARK  status: ('A' for Active; 'I' for Inactive)
REMARK    1  A    between atoms: C2_2  and  N1_3 
REMARK    2  A    between atoms: C4_6  and  C5_7 
REMARK    3  A    between atoms: C5_7  and  C6_8 
REMARK    4  A    between atoms: C6_8  and  N3_9 
REMARK    5  A    between atoms: N5_16  and  N6_18 
ROOT
HETATM    1  N1  UNL     1       3.746  42.185   5.643  1.00  0.00    -0.298 N 
HETATM    2  C3  UNL     1       3.061  43.359   5.756  1.00  0.00     0.144 A 
HETATM    3  N2  UNL     1       3.732  44.393   6.488  1.00  0.00    -0.080 NA
HETATM    4  C4  UNL     1       1.808  43.550   5.198  1.00  0.00     0.054 A 
HETATM    5  N4  UNL     1       1.269  42.513   4.520  1.00  0.00    -0.337 N 
ATOM      6  H4  UNL     1       0.347  42.630   4.100  1.00  0.00     0.167 HD
HETATM    7  C10 UNL     1       1.899  41.334   4.377  1.00  0.00     0.189 A 
HETATM    8  N5  UNL     1       1.307  40.402   3.713  1.00  0.00    -0.287 N 
ATOM      9  H5  UNL     1       0.385  40.577   3.315  1.00  0.00     0.188 HD
HETATM   10  C11 UNL     1       3.144  41.193   4.950  1.00  0.00     0.294 A 
HETATM   11  O1  UNL     1       3.769  40.107   4.840  1.00  0.00    -0.264 OA
ENDROOT
BRANCH   4  12
HETATM   12  C5  UNL     1       1.100  44.842   5.344  1.00  0.00     0.088 C 
BRANCH  12  13
HETATM   13  C6  UNL     1       1.694  45.979   4.595  1.00  0.00     0.242 C 
BRANCH  13  14
HETATM   14  N3  UNL     1       1.264  46.064   3.228  1.00  0.00    -0.078 N 
HETATM   15  C7  UNL     1       2.201  45.457   2.309  1.00  0.00     0.271 C 
HETATM   16  C8  UNL     1       1.126  47.463   2.871  1.00  0.00     0.271 C 
HETATM   17  C9  UNL     1      -0.025  45.445   3.001  1.00  0.00     0.271 C 
ENDBRANCH  13  14
ENDBRANCH  12  13
ENDBRANCH   4  12
BRANCH   1  18
HETATM   18  C2  UNL     1       5.047  42.037   6.242  1.00  0.00     0.129 C 
HETATM   19  C1  UNL     1       5.189  40.853   7.141  1.00  0.00     0.027 C 
ENDBRANCH   1  18
BRANCH   8  20
HETATM   20  N6  UNL     1       1.909  39.161   3.531  1.00  0.00    -0.343 N 
ATOM     21  H62 UNL     1       2.339  38.705   4.336  1.00  0.00     0.176 HD
ATOM     22  H61 UNL     1       1.922  38.714   2.615  1.00  0.00     0.176 HD
ENDBRANCH   8  20
TORSDOF 5
ENDMDL
MODEL 5
REMARK VINA RESULT: -5.955182897      1.226      1.729
REMARK  5 active torsions:
REMARK  status: ('A' for Active; 'I' for Inactive)
REMARK    1  A    between atoms: C2_2  and  N1_3 
REMARK    2  A    between atoms: C4_6  and  C5_7 
REMARK    3  A    between atoms: C5_7  and  C6_8 
REMARK    4  A    between atoms: C6_8  and  N3_9 
REMARK    5  A    between atoms: N5_16  and  N6_18 
ROOT
HETATM    1  N1  UNL     1       1.173  45.658   2.498  1.00  0.00    -0.298 N 
HETATM    2  C3  UNL     1       1.461  45.117   3.717  1.00  0.00     0.144 A 
HETATM    3  N2  UNL     1       2.108  45.999   4.643  1.00  0.00    -0.080 NA
HETATM    4  C4  UNL     1       1.146  43.810   4.047  1.00  0.00     0.054 A 
HETATM    5  N4  UNL     1       0.529  43.065   3.104  1.00  0.00    -0.337 N 
ATOM      6  H4  UNL     1       0.286  42.099   3.324  1.00  0.00     0.167 HD
HETATM    7  C10 UNL     1       0.221  43.547   1.886  1.00  0.00     0.189 A 
HETATM    8  N5  UNL     1      -0.369  42.763   1.051  1.00  0.00    -0.287 N 
ATOM      9  H5  UNL     1      -0.586  41.806   1.328  1.00  0.00     0.188 HD
HETATM   10  C11 UNL     1       0.554  44.854   1.606  1.00  0.00     0.294 A 
HETATM   11  O1  UNL     1       0.284  45.345   0.479  1.00  0.00    -0.264 OA
ENDROOT
BRANCH   4  12
HETATM   12  C5  UNL     1       1.476  43.262   5.382  1.00  0.00     0.088 C 
BRANCH  12  13
HETATM   13  C6  UNL     1       2.456  42.146   5.386  1.00  0.00     0.242 C 
BRANCH  13  14
HETATM   14  N3  UNL     1       3.820  42.569   5.527  1.00  0.00    -0.078 N 
HETATM   15  C7  UNL     1       4.430  42.921   4.263  1.00  0.00     0.271 C 
HETATM   16  C8  UNL     1       4.586  41.483   6.108  1.00  0.00     0.271 C 
HETATM   17  C9  UNL     1       3.972  43.707   6.409  1.00  0.00     0.271 C 
ENDBRANCH  13  14
ENDBRANCH  12  13
ENDBRANCH   4  12
BRANCH   1  18
HETATM   18  C2  UNL     1       1.521  47.024   2.204  1.00  0.00     0.129 C 
HETATM   19  C1  UNL     1       1.030  48.021   3.201  1.00  0.00     0.027 C 
ENDBRANCH   1  18
BRANCH   8  20
HETATM   20  N6  UNL     1      -0.713  43.204  -0.222  1.00  0.00    -0.343 N 
ATOM     21  H62 UNL     1      -0.302  44.073  -0.564  1.00  0.00     0.176 HD
ATOM     22  H61 UNL     1      -1.361  42.674  -0.803  1.00  0.00     0.176 HD
ENDBRANCH   8  20
TORSDOF 5
ENDMDL
