MODEL 1
REMARK VINA RESULT: -5.624122570      0.000      0.000
REMARK  6 active torsions:
REMARK  status: ('A' for Active; 'I' for Inactive)
REMARK    1  A    between atoms: O1_2  and  N1_3 
REMARK       I    between atoms: C2_5  and  N3_7 
REMARK    2  A    between atoms: N3_7  and  C3_9 
REMARK    3  A    between atoms: C6_12  and  N4_13 
REMARK    4  A    between atoms: N4_13  and  C7_15 
REMARK    5  A    between atoms: C7_15  and  C8_16 
REMARK    6  A    between atoms: C8_16  and  N5_17 
ROOT
HETATM    1  C3  UNL     1       1.953  43.770   5.393  1.00  0.00     0.122 A 
HETATM    2  C4  UNL     1       1.671  42.478   5.035  1.00  0.00     0.053 A 
HETATM    3  C5  UNL     1       2.676  41.541   5.254  1.00  0.00     0.053 A 
HETATM    4  C6  UNL     1       3.885  41.870   5.797  1.00  0.00     0.115 A 
HETATM    5  N6  UNL     1       4.086  43.168   6.124  1.00  0.00    -0.284 N 
ATOM      6  H6  UNL     1       4.976  43.455   6.532  1.00  0.00     0.188 HD
HETATM    7  N7  UNL     1       3.139  44.066   5.920  1.00  0.00    -0.284 N 
ATOM      8  H7  UNL     1       3.326  45.034   6.180  1.00  0.00     0.188 HD
ENDROOT
BRANCH   1   9
HETATM    9  N3  UNL     1       1.084  44.701   5.220  1.00  0.00    -0.314 N 
HETATM   10  C2  UNL     1       1.479  45.989   4.796  1.00  0.00     0.213 C 
HETATM   11  N1  UNL     1       1.271  46.422   3.584  1.00  0.00    -0.239 N 
HETATM   12  N2  UNL     1       2.125  46.833   5.736  1.00  0.00    -0.061 NA
ATOM     13  H1  UNL     1       1.564  47.357   3.299  1.00  0.00     0.197 HD
ATOM     14  H3  UNL     1       0.097  44.508   5.392  1.00  0.00     0.170 HD
BRANCH  11  15
HETATM   15  O1  UNL     1       0.638  45.568   2.702  1.00  0.00    -0.283 OA
HETATM   16  C1  UNL     1       1.353  44.998   1.627  1.00  0.00     0.237 C 
ENDBRANCH  11  15
ENDBRANCH   1   9
BRANCH   4  17
HETATM   17  N4  UNL     1       4.760  40.969   5.968  1.00  0.00    -0.374 N 
ATOM     18  H4  UNL     1       5.199  40.543   5.153  1.00  0.00     0.161 HD
BRANCH  17  19
HETATM   19  C7  UNL     1       5.148  40.536   7.270  1.00  0.00     0.151 C 
BRANCH  19  20
HETATM   20  C8  UNL     1       6.592  40.100   7.345  1.00  0.00     0.290 C 
BRANCH  20  21
HETATM   21  N5  UNL     1       6.838  38.795   6.826  1.00  0.00     0.081 N 
HETATM   22  C9  UNL     1       8.186  38.489   6.484  1.00  0.00     0.309 C 
HETATM   23  C10 UNL     1       6.385  37.821   7.799  1.00  0.00     0.309 C 
ENDBRANCH  20  21
ENDBRANCH  19  20
ENDBRANCH  17  19
ENDBRANCH   4  17
TORSDOF 6
ENDMDL
MODEL 2
REMARK VINA RESULT: -5.575086859      1.032      1.062
REMARK  6 active torsions:
REMARK  status: ('A' for Active; 'I' for Inactive)
REMARK    1  A    between atoms: O1_2  and  N1_3 
REMARK       I    between atoms: C2_5  and  N3_7 
REMARK    2  A    between atoms: N3_7  and  C3_9 
REMARK    3  A    between atoms: C6_12  and  N4_13 
REMARK    4  A    between atoms: N4_13  and  C7_15 
REMARK    5  A    between atoms: C7_15  and  C8_16 
REMARK    6  A    between atoms: C8_16  and  N5_17 
ROOT
HETATM    1  C3  UNL     1       1.914  43.114   4.471  1.00  0.00     0.122 A 
HETATM    2  C4  UNL     1       1.942  41.808   4.059  1.00  0.00     0.053 A 
HETATM    3  C5  UNL     1       2.929  41.003   4.618  1.00  0.00     0.053 A 
HETATM    4  C6  UNL     1       3.831  41.469   5.531  1.00  0.00     0.115 A 
HETATM    5  N6  UNL     1       3.737  42.772   5.887  1.00  0.00    -0.284 N 
ATOM      6  H6  UNL     1       4.392  43.159   6.567  1.00  0.00     0.188 HD
HETATM    7  N7  UNL     1       2.804  43.545   5.362  1.00  0.00    -0.284 N 
ATOM      8  H7  UNL     1       2.763  44.521   5.654  1.00  0.00     0.188 HD
ENDROOT
BRANCH   1   9
HETATM    9  N3  UNL     1       1.039  43.930   4.000  1.00  0.00    -0.314 N 
HETATM   10  C2  UNL     1       1.409  45.231   3.594  1.00  0.00     0.213 C 
HETATM   11  N1  UNL     1       1.496  45.575   2.340  1.00  0.00    -0.239 N 
HETATM   12  N2  UNL     1       1.691  46.190   4.601  1.00  0.00    -0.061 NA
ATOM     13  H1  UNL     1       1.764  46.521   2.068  1.00  0.00     0.197 HD
ATOM     14  H3  UNL     1       0.066  43.635   3.920  1.00  0.00     0.170 HD
BRANCH  11  15
HETATM   15  O1  UNL     1       1.211  44.610   1.393  1.00  0.00    -0.283 OA
HETATM   16  C1  UNL     1       0.037  44.702   0.615  1.00  0.00     0.237 C 
ENDBRANCH  11  15
ENDBRANCH   1   9
BRANCH   4  17
HETATM   17  N4  UNL     1       4.708  40.684   6.002  1.00  0.00    -0.374 N 
ATOM     18  H4  UNL     1       4.752  39.726   5.656  1.00  0.00     0.161 HD
BRANCH  17  19
HETATM   19  C7  UNL     1       5.635  41.105   7.000  1.00  0.00     0.151 C 
BRANCH  19  20
HETATM   20  C8  UNL     1       6.214  39.957   7.794  1.00  0.00     0.290 C 
BRANCH  20  21
HETATM   21  N5  UNL     1       6.587  38.828   7.007  1.00  0.00     0.081 N 
HETATM   22  C9  UNL     1       7.964  38.721   6.661  1.00  0.00     0.309 C 
HETATM   23  C10 UNL     1       6.202  37.626   7.719  1.00  0.00     0.309 C 
ENDBRANCH  20  21
ENDBRANCH  19  20
ENDBRANCH  17  19
ENDBRANCH   4  17
TORSDOF 6
ENDMDL
MODEL 3
REMARK VINA RESULT: -5.529016413      1.822      2.303
REMARK  6 active torsions:
REMARK  status: ('A' for Active; 'I' for Inactive)
REMARK    1  A    between atoms: O1_2  and  N1_3 
REMARK       I    between atoms: C2_5  and  N3_7 
REMARK    2  A    between atoms: N3_7  and  C3_9 
REMARK    3  A    between atoms: C6_12  and  N4_13 
REMARK    4  A    between atoms: N4_13  and  C7_15 
REMARK    5  A    between atoms: C7_15  and  C8_16 
REMARK    6  A    between atoms: C8_16  and  N5_17 
ROOT
HETATM    1  C3  UNL     1       2.956  43.390   3.651  1.00  0.00     0.122 A 
HETATM    2  C4  UNL     1       3.271  43.829   4.909  1.00  0.00     0.053 A 
HETATM    3  C5  UNL     1       3.797  42.881   5.782  1.00  0.00     0.053 A 
HETATM    4  C6  UNL     1       3.995  41.578   5.422  1.00  0.00     0.115 A 
HETATM    5  N6  UNL     1       3.658  41.225   4.160  1.00  0.00    -0.284 N 
ATOM      6  H6  UNL     1       3.791  40.261   3.852  1.00  0.00     0.188 HD
HETATM    7  N7  UNL     1       3.159  42.117   3.324  1.00  0.00    -0.284 N 
ATOM      8  H7  UNL     1       2.917  41.814   2.381  1.00  0.00     0.188 HD
ENDROOT
BRANCH   1   9
HETATM    9  N3  UNL     1       2.460  44.199   2.782  1.00  0.00    -0.314 N 
HETATM   10  C2  UNL     1       1.104  44.104   2.400  1.00  0.00     0.213 C 
HETATM   11  N1  UNL     1       0.203  44.960   2.795  1.00  0.00    -0.239 N 
HETATM   12  N2  UNL     1       0.722  43.034   1.550  1.00  0.00    -0.061 NA
ATOM     13  H1  UNL     1      -0.772  44.874   2.505  1.00  0.00     0.197 HD
ATOM     14  H3  UNL     1       3.053  44.916   2.364  1.00  0.00     0.170 HD
BRANCH  11  15
HETATM   15  O1  UNL     1       0.618  45.987   3.620  1.00  0.00    -0.283 OA
HETATM   16  C1  UNL     1       1.091  47.196   3.067  1.00  0.00     0.237 C 
ENDBRANCH  11  15
ENDBRANCH   1   9
BRANCH   4  17
HETATM   17  N4  UNL     1       4.475  40.762   6.266  1.00  0.00    -0.374 N 
ATOM     18  H4  UNL     1       3.994  39.879   6.430  1.00  0.00     0.161 HD
BRANCH  17  19
HETATM   19  C7  UNL     1       5.670  41.046   6.990  1.00  0.00     0.151 C 
BRANCH  19  20
HETATM   20  C8  UNL     1       6.166  39.871   7.801  1.00  0.00     0.290 C 
BRANCH  20  21
HETATM   21  N5  UNL     1       6.579  38.753   7.019  1.00  0.00     0.081 N 
HETATM   22  C9  UNL     1       7.955  38.702   6.658  1.00  0.00     0.309 C 
HETATM   23  C10 UNL     1       6.256  37.541   7.746  1.00  0.00     0.309 C 
ENDBRANCH  20  21
ENDBRANCH  19  20
ENDBRANCH  17  19
ENDBRANCH   4  17
TORSDOF 6
ENDMDL
MODEL 4
REMARK VINA RESULT: -5.365109774      1.367      1.499
REMARK  6 active torsions:
REMARK  status: ('A' for Active; 'I' for Inactive)
REMARK    1  A    between atoms: O1_2  and  N1_3 
REMARK       I    between atoms: C2_5  and  N3_7 
REMARK    2  A    between atoms: N3_7  and  C3_9 
REMARK    3  A    between atoms: C6_12  and  N4_13 
REMARK    4  A    between atoms: N4_13  and  C7_15 
REMARK    5  A    between atoms: C7_15  and  C8_16 
REMARK    6  A    between atoms: C8_16  and  N5_17 
ROOT
HETATM    1  C3  UNL     1       1.856  43.135   4.387  1.00  0.00     0.122 A 
HETATM    2  C4  UNL     1       3.156  43.559   4.455  1.00  0.00     0.053 A 
HETATM    3  C5  UNL     1       4.070  42.667   5.005  1.00  0.00     0.053 A 
HETATM    4  C6  UNL     1       3.711  41.430   5.460  1.00  0.00     0.115 A 
HETATM    5  N6  UNL     1       2.406  41.086   5.357  1.00  0.00    -0.284 N 
ATOM      6  H6  UNL     1       2.097  40.171   5.685  1.00  0.00     0.188 HD
HETATM    7  N7  UNL     1       1.530  41.926   4.836  1.00  0.00    -0.284 N 
ATOM      8  H7  UNL     1       0.555  41.632   4.774  1.00  0.00     0.188 HD
ENDROOT
BRANCH   1   9
HETATM    9  N3  UNL     1       0.943  43.899   3.897  1.00  0.00    -0.314 N 
HETATM   10  C2  UNL     1       1.214  45.254   3.610  1.00  0.00     0.213 C 
HETATM   11  N1  UNL     1       1.365  45.696   2.393  1.00  0.00    -0.239 N 
HETATM   12  N2  UNL     1       1.320  46.160   4.697  1.00  0.00    -0.061 NA
ATOM     13  H1  UNL     1       1.559  46.681   2.207  1.00  0.00     0.197 HD
ATOM     14  H3  UNL     1       0.014  43.521   3.715  1.00  0.00     0.170 HD
BRANCH  11  15
HETATM   15  O1  UNL     1       1.252  44.781   1.364  1.00  0.00    -0.283 OA
HETATM   16  C1  UNL     1       0.085  44.741   0.573  1.00  0.00     0.237 C 
ENDBRANCH  11  15
ENDBRANCH   1   9
BRANCH   4  17
HETATM   17  N4  UNL     1       4.592  40.665   5.954  1.00  0.00    -0.374 N 
ATOM     18  H4  UNL     1       4.640  39.696   5.640  1.00  0.00     0.161 HD
BRANCH  17  19
HETATM   19  C7  UNL     1       5.518  41.122   6.937  1.00  0.00     0.151 C 
BRANCH  19  20
HETATM   20  C8  UNL     1       6.123  40.001   7.751  1.00  0.00     0.290 C 
BRANCH  20  21
HETATM   21  N5  UNL     1       6.564  38.887   6.977  1.00  0.00     0.081 N 
HETATM   22  C9  UNL     1       7.950  38.846   6.655  1.00  0.00     0.309 C 
HETATM   23  C10 UNL     1       6.228  37.671   7.691  1.00  0.00     0.309 C 
ENDBRANCH  20  21
ENDBRANCH  19  20
ENDBRANCH  17  19
ENDBRANCH   4  17
TORSDOF 6
ENDMDL
MODEL 5
REMARK VINA RESULT: -5.327328355      4.302      5.517
REMARK  6 active torsions:
REMARK  status: ('A' for Active; 'I' for Inactive)
REMARK    1  A    between atoms: O1_2  and  N1_3 
REMARK       I    between atoms: C2_5  and  N3_7 
REMARK    2  A    between atoms: N3_7  and  C3_9 
REMARK    3  A    between atoms: C6_12  and  N4_13 
REMARK    4  A    between atoms: N4_13  and  C7_15 
REMARK    5  A    between atoms: C7_15  and  C8_16 
REMARK    6  A    between atoms: C8_16  and  N5_17 
ROOT
HETATM    1  C3  UNL     1       1.531  43.572   2.766  1.00  0.00     0.122 A 
HETATM    2  C4  UNL     1       2.233  42.502   3.251  1.00  0.00     0.053 A 
HETATM    3  C5  UNL     1       3.619  42.624   3.262  1.00  0.00     0.053 A 
HETATM    4  C6  UNL     1       4.264  43.742   2.816  1.00  0.00     0.115 A 
HETATM    5  N6  UNL     1       3.497  44.757   2.352  1.00  0.00    -0.284 N 
ATOM      6  H6  UNL     1       3.941  45.610   2.010  1.00  0.00     0.188 HD
HETATM    7  N7  UNL     1       2.181  44.651   2.338  1.00  0.00    -0.284 N 
ATOM      8  H7  UNL     1       1.636  45.436   1.981  1.00  0.00     0.188 HD
ENDROOT
BRANCH   1   9
HETATM    9  N3  UNL     1       0.246  43.542   2.715  1.00  0.00    -0.314 N 
HETATM   10  C2  UNL     1      -0.477  44.583   2.090  1.00  0.00     0.213 C 
HETATM   11  N1  UNL     1      -1.046  44.441   0.927  1.00  0.00    -0.239 N 
HETATM   12  N2  UNL     1      -0.581  45.824   2.770  1.00  0.00    -0.061 NA
ATOM     13  H1  UNL     1      -1.565  45.205   0.494  1.00  0.00     0.197 HD
ATOM     14  H3  UNL     1      -0.257  42.759   3.130  1.00  0.00     0.170 HD
BRANCH  11  15
HETATM   15  O1  UNL     1      -0.921  43.215   0.302  1.00  0.00    -0.283 OA
HETATM   16  C1  UNL     1      -1.005  43.121  -1.104  1.00  0.00     0.237 C 
ENDBRANCH  11  15
ENDBRANCH   1   9
BRANCH   4  17
HETATM   17  N4  UNL     1       5.530  43.790   2.849  1.00  0.00    -0.374 N 
ATOM     18  H4  UNL     1       6.025  43.300   3.593  1.00  0.00     0.161 HD
BRANCH  17  19
HETATM   19  C7  UNL     1       6.281  44.509   1.874  1.00  0.00     0.151 C 
BRANCH  19  20
HETATM   20  C8  UNL     1       7.245  43.637   1.104  1.00  0.00     0.290 C 
BRANCH  20  21
HETATM   21  N5  UNL     1       7.472  44.057  -0.239  1.00  0.00     0.081 N 
HETATM   22  C9  UNL     1       7.435  45.459  -0.482  1.00  0.00     0.309 C 
HETATM   23  C10 UNL     1       8.765  43.558  -0.663  1.00  0.00     0.309 C 
ENDBRANCH  20  21
ENDBRANCH  19  20
ENDBRANCH  17  19
ENDBRANCH   4  17
TORSDOF 6
ENDMDL
