MODEL 1
REMARK VINA RESULT: -6.040162027      0.000      0.000
REMARK  2 active torsions:
REMARK  status: ('A' for Active; 'I' for Inactive)
REMARK       I    between atoms: N1_2  and  C2_4 
REMARK       I    between atoms: C2_4  and  N2_6 
REMARK    1  A    between atoms: N2_6  and  N3_8 
REMARK       I    between atoms: N3_8  and  C3_10 
REMARK    2  A    between atoms: C3_10  and  C4_12 
ROOT
HETATM    1  C1  UNL     1      15.585  40.762  42.162  1.00  0.00     0.151 C 
HETATM    2  N1  UNL     1      15.831  39.424  42.640  1.00  0.00    -0.346 N 
ATOM      3  H1  UNL     1      16.763  39.172  42.970  1.00  0.00     0.163 HD
HETATM    4  C2  UNL     1      14.795  38.455  42.659  1.00  0.00     0.334 C 
HETATM    5  O1  UNL     1      13.639  38.789  42.242  1.00  0.00    -0.246 OA
HETATM    6  N2  UNL     1      15.035  37.136  43.131  1.00  0.00    -0.249 N 
ATOM      7  H2  UNL     1      15.969  36.892  43.459  1.00  0.00     0.192 HD
ENDROOT
BRANCH   6   8
HETATM    8  N3  UNL     1      14.035  36.162  43.161  1.00  0.00    -0.258 N 
HETATM    9  C3  UNL     1      13.896  35.161  42.169  1.00  0.00     0.325 C 
HETATM   10  O2  UNL     1      14.700  35.124  41.202  1.00  0.00    -0.261 OA
ATOM     11  H3  UNL     1      13.371  36.172  43.936  1.00  0.00     0.190 HD
BRANCH   9  12
HETATM   12  C4  UNL     1      12.846  34.160  42.226  1.00  0.00     0.324 C 
HETATM   13  N4  UNL     1      11.708  34.171  41.382  1.00  0.00    -0.053 NA
HETATM   14  O3  UNL     1      12.951  33.237  43.066  1.00  0.00    -0.266 OA
ENDBRANCH   9  12
ENDBRANCH   6   8
TORSDOF 2
ENDMDL
MODEL 2
REMARK VINA RESULT: -6.018901590      2.832      3.112
REMARK  2 active torsions:
REMARK  status: ('A' for Active; 'I' for Inactive)
REMARK       I    between atoms: N1_2  and  C2_4 
REMARK       I    between atoms: C2_4  and  N2_6 
REMARK    1  A    between atoms: N2_6  and  N3_8 
REMARK       I    between atoms: N3_8  and  C3_10 
REMARK    2  A    between atoms: C3_10  and  C4_12 
ROOT
HETATM    1  C1  UNL     1      12.817  39.790  44.030  1.00  0.00     0.151 C 
HETATM    2  N1  UNL     1      12.897  38.364  43.831  1.00  0.00    -0.346 N 
ATOM      3  H1  UNL     1      12.897  37.742  44.639  1.00  0.00     0.163 HD
HETATM    4  C2  UNL     1      12.975  37.814  42.525  1.00  0.00     0.334 C 
HETATM    5  O1  UNL     1      12.975  38.607  41.528  1.00  0.00    -0.246 OA
HETATM    6  N2  UNL     1      13.052  36.409  42.326  1.00  0.00    -0.249 N 
ATOM      7  H2  UNL     1      13.051  35.795  43.140  1.00  0.00     0.192 HD
ENDROOT
BRANCH   6   8
HETATM    8  N3  UNL     1      13.130  35.841  41.052  1.00  0.00    -0.258 N 
HETATM    9  C3  UNL     1      12.008  35.308  40.371  1.00  0.00     0.325 C 
HETATM   10  O2  UNL     1      10.874  35.335  40.917  1.00  0.00    -0.261 OA
ATOM     11  H3  UNL     1      14.038  35.808  40.590  1.00  0.00     0.190 HD
BRANCH   9  12
HETATM   12  C4  UNL     1      12.117  34.723  39.047  1.00  0.00     0.324 C 
HETATM   13  N4  UNL     1      13.100  35.105  38.102  1.00  0.00    -0.053 NA
HETATM   14  O3  UNL     1      11.298  33.832  38.722  1.00  0.00    -0.266 OA
ENDBRANCH   9  12
ENDBRANCH   6   8
TORSDOF 2
ENDMDL
MODEL 3
REMARK VINA RESULT: -5.977964926      2.161      2.191
REMARK  2 active torsions:
REMARK  status: ('A' for Active; 'I' for Inactive)
REMARK       I    between atoms: N1_2  and  C2_4 
REMARK       I    between atoms: C2_4  and  N2_6 
REMARK    1  A    between atoms: N2_6  and  N3_8 
REMARK       I    between atoms: N3_8  and  C3_10 
REMARK    2  A    between atoms: C3_10  and  C4_12 
ROOT
HETATM    1  C1  UNL     1      15.148  40.504  42.949  1.00  0.00     0.151 C 
HETATM    2  N1  UNL     1      14.677  39.160  43.171  1.00  0.00    -0.346 N 
ATOM      3  H1  UNL     1      15.091  38.599  43.916  1.00  0.00     0.163 HD
HETATM    4  C2  UNL     1      13.646  38.607  42.368  1.00  0.00     0.334 C 
HETATM    5  O1  UNL     1      13.143  39.323  41.442  1.00  0.00    -0.246 OA
HETATM    6  N2  UNL     1      13.179  37.282  42.586  1.00  0.00    -0.249 N 
ATOM      7  H2  UNL     1      13.598  36.729  43.333  1.00  0.00     0.192 HD
ENDROOT
BRANCH   6   8
HETATM    8  N3  UNL     1      12.166  36.713  41.811  1.00  0.00    -0.258 N 
HETATM    9  C3  UNL     1      12.383  35.633  40.922  1.00  0.00     0.325 C 
HETATM   10  O2  UNL     1      13.536  35.142  40.804  1.00  0.00    -0.261 OA
ATOM     11  H3  UNL     1      11.223  37.094  41.891  1.00  0.00     0.190 HD
BRANCH   9  12
HETATM   12  C4  UNL     1      11.310  35.060  40.129  1.00  0.00     0.324 C 
HETATM   13  N4  UNL     1      11.522  34.140  39.074  1.00  0.00    -0.053 NA
HETATM   14  O3  UNL     1      10.133  35.398  40.392  1.00  0.00    -0.266 OA
ENDBRANCH   9  12
ENDBRANCH   6   8
TORSDOF 2
ENDMDL
MODEL 4
REMARK VINA RESULT: -5.916793205      1.458      1.492
REMARK  2 active torsions:
REMARK  status: ('A' for Active; 'I' for Inactive)
REMARK       I    between atoms: N1_2  and  C2_4 
REMARK       I    between atoms: C2_4  and  N2_6 
REMARK    1  A    between atoms: N2_6  and  N3_8 
REMARK       I    between atoms: N3_8  and  C3_10 
REMARK    2  A    between atoms: C3_10  and  C4_12 
ROOT
HETATM    1  C1  UNL     1      14.960  40.236  42.692  1.00  0.00     0.151 C 
HETATM    2  N1  UNL     1      15.025  38.811  42.901  1.00  0.00    -0.346 N 
ATOM      3  H1  UNL     1      15.820  38.411  43.399  1.00  0.00     0.163 HD
HETATM    4  C2  UNL     1      13.997  37.957  42.422  1.00  0.00     0.334 C 
HETATM    5  O1  UNL     1      13.013  38.475  41.801  1.00  0.00    -0.246 OA
HETATM    6  N2  UNL     1      14.058  36.552  42.628  1.00  0.00    -0.249 N 
ATOM      7  H2  UNL     1      14.856  36.161  43.128  1.00  0.00     0.192 HD
ENDROOT
BRANCH   6   8
HETATM    8  N3  UNL     1      13.061  35.688  42.169  1.00  0.00    -0.258 N 
HETATM    9  C3  UNL     1      13.134  35.009  40.928  1.00  0.00     0.325 C 
HETATM   10  O2  UNL     1      14.135  35.174  40.183  1.00  0.00    -0.261 OA
ATOM     11  H3  UNL     1      12.240  35.539  42.756  1.00  0.00     0.190 HD
BRANCH   9  12
HETATM   12  C4  UNL     1      12.082  34.116  40.476  1.00  0.00     0.324 C 
HETATM   13  N4  UNL     1      11.579  34.107  39.152  1.00  0.00    -0.053 NA
HETATM   14  O3  UNL     1      11.592  33.310  41.300  1.00  0.00    -0.266 OA
ENDBRANCH   9  12
ENDBRANCH   6   8
TORSDOF 2
ENDMDL
MODEL 5
REMARK VINA RESULT: -5.848218354      1.412      1.433
REMARK  2 active torsions:
REMARK  status: ('A' for Active; 'I' for Inactive)
REMARK       I    between atoms: N1_2  and  C2_4 
REMARK       I    between atoms: C2_4  and  N2_6 
REMARK    1  A    between atoms: N2_6  and  N3_8 
REMARK       I    between atoms: N3_8  and  C3_10 
REMARK    2  A    between atoms: C3_10  and  C4_12 
ROOT
HETATM    1  C1  UNL     1      15.229  40.153  42.543  1.00  0.00     0.151 C 
HETATM    2  N1  UNL     1      15.349  38.735  42.778  1.00  0.00    -0.346 N 
ATOM      3  H1  UNL     1      16.229  38.356  43.128  1.00  0.00     0.163 HD
HETATM    4  C2  UNL     1      14.260  37.861  42.528  1.00  0.00     0.334 C 
HETATM    5  O1  UNL     1      13.171  38.352  42.089  1.00  0.00    -0.246 OA
HETATM    6  N2  UNL     1      14.376  36.463  42.760  1.00  0.00    -0.249 N 
ATOM      7  H2  UNL     1      15.259  36.093  43.111  1.00  0.00     0.192 HD
ENDROOT
BRANCH   6   8
HETATM    8  N3  UNL     1      13.321  35.579  42.523  1.00  0.00    -0.258 N 
HETATM    9  C3  UNL     1      13.173  34.852  41.316  1.00  0.00     0.325 C 
HETATM   10  O2  UNL     1      14.020  34.991  40.395  1.00  0.00    -0.261 OA
ATOM     11  H3  UNL     1      12.622  35.450  43.255  1.00  0.00     0.190 HD
BRANCH   9  12
HETATM   12  C4  UNL     1      12.066  33.940  41.097  1.00  0.00     0.324 C 
HETATM   13  N4  UNL     1      11.437  33.209  42.135  1.00  0.00    -0.053 NA
HETATM   14  O3  UNL     1      11.643  33.789  39.928  1.00  0.00    -0.266 OA
ENDBRANCH   9  12
ENDBRANCH   6   8
TORSDOF 2
ENDMDL
