MODEL 1
REMARK VINA RESULT: -6.928717108      0.000      0.000
REMARK  1 active torsions:
REMARK  status: ('A' for Active; 'I' for Inactive)
REMARK       I    between atoms: C1_2  and  N2_4 
REMARK    1  A    between atoms: N2_4  and  C2_6 
ROOT
HETATM    1  C2  UNL     1      14.173  37.199  43.197  1.00  0.00     0.703 A 
HETATM    2  N3  UNL     1      15.418  37.578  42.847  1.00  0.00    -0.129 N 
ATOM      3  H3  UNL     1      16.115  36.853  42.681  1.00  0.00     0.205 HD
HETATM    4  N4  UNL     1      15.782  38.842  42.709  1.00  0.00    -0.247 N 
ATOM      5  H4  UNL     1      16.736  39.086  42.443  1.00  0.00     0.191 HD
HETATM    6  C3  UNL     1      14.857  39.800  42.930  1.00  0.00     0.329 A 
HETATM    7  O2  UNL     1      15.170  41.015  42.808  1.00  0.00    -0.261 OA
HETATM    8  C4  UNL     1      13.571  39.449  43.289  1.00  0.00     0.329 A 
HETATM    9  O3  UNL     1      12.670  40.281  43.507  1.00  0.00    -0.261 OA
HETATM   10  N5  UNL     1      13.271  38.142  43.410  1.00  0.00    -0.150 N 
ATOM     11  H5  UNL     1      12.323  37.872  43.674  1.00  0.00     0.188 HD
ENDROOT
BRANCH   1  12
HETATM   12  N2  UNL     1      13.941  35.927  43.298  1.00  0.00    -0.142 N 
HETATM   13  C1  UNL     1      13.677  35.128  42.154  1.00  0.00     0.347 C 
HETATM   14  N1  UNL     1      12.397  34.546  41.965  1.00  0.00    -0.039 NA
HETATM   15  O1  UNL     1      14.610  34.962  41.330  1.00  0.00    -0.250 OA
ATOM     16  H2  UNL     1      13.949  35.491  44.220  1.00  0.00     0.189 HD
ENDBRANCH   1  12
TORSDOF 1
ENDMDL
MODEL 2
REMARK VINA RESULT: -6.896240993      1.927      2.563
REMARK  1 active torsions:
REMARK  status: ('A' for Active; 'I' for Inactive)
REMARK       I    between atoms: C1_2  and  N2_4 
REMARK    1  A    between atoms: N2_4  and  C2_6 
ROOT
HETATM    1  C2  UNL     1      13.309  35.222  42.769  1.00  0.00     0.703 A 
HETATM    2  N3  UNL     1      13.967  35.622  43.873  1.00  0.00    -0.129 N 
ATOM      3  H3  UNL     1      14.281  34.911  44.534  1.00  0.00     0.205 HD
HETATM    4  N4  UNL     1      14.229  36.890  44.146  1.00  0.00    -0.247 N 
ATOM      5  H4  UNL     1      14.731  37.151  44.994  1.00  0.00     0.191 HD
HETATM    6  C3  UNL     1      13.813  37.829  43.270  1.00  0.00     0.329 A 
HETATM    7  O2  UNL     1      14.044  39.047  43.497  1.00  0.00    -0.261 OA
HETATM    8  C4  UNL     1      13.135  37.455  42.126  1.00  0.00     0.329 A 
HETATM    9  O3  UNL     1      12.724  38.269  41.277  1.00  0.00    -0.261 OA
HETATM   10  N5  UNL     1      12.905  36.146  41.913  1.00  0.00    -0.150 N 
ATOM     11  H5  UNL     1      12.407  35.859  41.070  1.00  0.00     0.188 HD
ENDROOT
BRANCH   1  12
HETATM   12  N2  UNL     1      13.116  33.948  42.616  1.00  0.00    -0.142 N 
HETATM   13  C1  UNL     1      11.931  33.445  42.015  1.00  0.00     0.347 C 
HETATM   14  N1  UNL     1      11.000  32.694  42.781  1.00  0.00    -0.039 NA
HETATM   15  O1  UNL     1      11.744  33.689  40.797  1.00  0.00    -0.250 OA
ATOM     16  H2  UNL     1      13.830  33.293  42.934  1.00  0.00     0.189 HD
ENDBRANCH   1  12
TORSDOF 1
ENDMDL
MODEL 3
REMARK VINA RESULT: -6.822549662      1.894      2.271
REMARK  1 active torsions:
REMARK  status: ('A' for Active; 'I' for Inactive)
REMARK       I    between atoms: C1_2  and  N2_4 
REMARK    1  A    between atoms: N2_4  and  C2_6 
ROOT
HETATM    1  C2  UNL     1      13.804  35.310  41.991  1.00  0.00     0.703 A 
HETATM    2  N3  UNL     1      15.116  35.561  41.818  1.00  0.00    -0.129 N 
ATOM      3  H3  UNL     1      15.729  34.784  41.569  1.00  0.00     0.205 HD
HETATM    4  N4  UNL     1      15.652  36.763  41.955  1.00  0.00    -0.247 N 
ATOM      5  H4  UNL     1      16.652  36.910  41.815  1.00  0.00     0.191 HD
HETATM    6  C3  UNL     1      14.839  37.789  42.285  1.00  0.00     0.329 A 
HETATM    7  O2  UNL     1      15.316  38.948  42.424  1.00  0.00    -0.261 OA
HETATM    8  C4  UNL     1      13.489  37.569  42.470  1.00  0.00     0.329 A 
HETATM    9  O3  UNL     1      12.684  38.470  42.774  1.00  0.00    -0.261 OA
HETATM   10  N5  UNL     1      13.013  36.320  42.313  1.00  0.00    -0.150 N 
ATOM     11  H5  UNL     1      12.016  36.147  42.445  1.00  0.00     0.188 HD
ENDROOT
BRANCH   1  12
HETATM   12  N2  UNL     1      13.402  34.088  41.827  1.00  0.00    -0.142 N 
HETATM   13  C1  UNL     1      12.041  33.785  41.558  1.00  0.00     0.347 C 
HETATM   14  N1  UNL     1      11.260  33.081  42.511  1.00  0.00    -0.039 NA
HETATM   15  O1  UNL     1      11.565  34.162  40.458  1.00  0.00    -0.250 OA
ATOM     16  H2  UNL     1      14.078  33.327  41.893  1.00  0.00     0.189 HD
ENDBRANCH   1  12
TORSDOF 1
ENDMDL
MODEL 4
REMARK VINA RESULT: -6.724466802      1.747      1.992
REMARK  1 active torsions:
REMARK  status: ('A' for Active; 'I' for Inactive)
REMARK       I    between atoms: C1_2  and  N2_4 
REMARK    1  A    between atoms: N2_4  and  C2_6 
ROOT
HETATM    1  C2  UNL     1      13.687  35.905  42.737  1.00  0.00     0.703 A 
HETATM    2  N3  UNL     1      14.013  36.203  44.009  1.00  0.00    -0.129 N 
ATOM      3  H3  UNL     1      14.253  35.438  44.639  1.00  0.00     0.205 HD
HETATM    4  N4  UNL     1      14.040  37.438  44.483  1.00  0.00    -0.247 N 
ATOM      5  H4  UNL     1      14.293  37.621  45.454  1.00  0.00     0.191 HD
HETATM    6  C3  UNL     1      13.723  38.449  43.647  1.00  0.00     0.329 A 
HETATM    7  O2  UNL     1      13.737  39.638  44.065  1.00  0.00    -0.261 OA
HETATM    8  C4  UNL     1      13.383  38.180  42.335  1.00  0.00     0.329 A 
HETATM    9  O3  UNL     1      13.081  39.064  41.512  1.00  0.00    -0.261 OA
HETATM   10  N5  UNL     1      13.378  36.899  41.921  1.00  0.00    -0.150 N 
ATOM     11  H5  UNL     1      13.131  36.691  40.954  1.00  0.00     0.188 HD
ENDROOT
BRANCH   1  12
HETATM   12  N2  UNL     1      13.699  34.653  42.394  1.00  0.00    -0.142 N 
HETATM   13  C1  UNL     1      12.814  34.148  41.404  1.00  0.00     0.347 C 
HETATM   14  N1  UNL     1      11.793  33.227  41.756  1.00  0.00    -0.039 NA
HETATM   15  O1  UNL     1      12.972  34.544  40.222  1.00  0.00    -0.250 OA
ATOM     16  H2  UNL     1      14.358  34.019  42.844  1.00  0.00     0.189 HD
ENDBRANCH   1  12
TORSDOF 1
ENDMDL
MODEL 5
REMARK VINA RESULT: -6.701287994      1.738      4.522
REMARK  1 active torsions:
REMARK  status: ('A' for Active; 'I' for Inactive)
REMARK       I    between atoms: C1_2  and  N2_4 
REMARK    1  A    between atoms: N2_4  and  C2_6 
ROOT
HETATM    1  C2  UNL     1      15.165  37.933  42.261  1.00  0.00     0.703 A 
HETATM    2  N3  UNL     1      15.851  36.796  42.036  1.00  0.00    -0.129 N 
ATOM      3  H3  UNL     1      16.856  36.795  42.209  1.00  0.00     0.205 HD
HETATM    4  N4  UNL     1      15.288  35.680  41.603  1.00  0.00    -0.247 N 
ATOM      5  H4  UNL     1      15.844  34.839  41.446  1.00  0.00     0.191 HD
HETATM    6  C3  UNL     1      13.957  35.683  41.375  1.00  0.00     0.329 A 
HETATM    7  O2  UNL     1      13.388  34.638  40.962  1.00  0.00    -0.261 OA
HETATM    8  C4  UNL     1      13.222  36.832  41.595  1.00  0.00     0.329 A 
HETATM    9  O3  UNL     1      11.993  36.904  41.407  1.00  0.00    -0.261 OA
HETATM   10  N5  UNL     1      13.862  37.931  42.037  1.00  0.00    -0.150 N 
ATOM     11  H5  UNL     1      13.327  38.783  42.205  1.00  0.00     0.188 HD
ENDROOT
BRANCH   1  12
HETATM   12  N2  UNL     1      15.833  38.961  42.686  1.00  0.00    -0.142 N 
HETATM   13  C1  UNL     1      15.268  40.264  42.685  1.00  0.00     0.347 C 
HETATM   14  N1  UNL     1      15.787  41.271  41.831  1.00  0.00    -0.039 NA
HETATM   15  O1  UNL     1      14.305  40.483  43.461  1.00  0.00    -0.250 OA
ATOM     16  H2  UNL     1      16.785  38.830  43.028  1.00  0.00     0.189 HD
ENDBRANCH   1  12
TORSDOF 1
ENDMDL
