MODEL 1
REMARK VINA RESULT: -6.823581498      0.000      0.000
REMARK  6 active torsions:
REMARK  status: ('A' for Active; 'I' for Inactive)
REMARK    1  A    between atoms: C1_4  and  N2_5 
REMARK    2  A    between atoms: C1_4  and  C2_14 
REMARK    3  A    between atoms: N2_5  and  N3_7 
REMARK    4  A    between atoms: N3_7  and  N4_9 
REMARK    5  A    between atoms: N4_9  and  N5_11 
REMARK       I    between atoms: C2_14  and  N6_16 
REMARK    6  A    between atoms: N6_16  and  N7_18 
REMARK       I    between atoms: N7_18  and  C3_20 
ROOT
HETATM    1  N1  UNL     1      14.210  36.879  44.443  1.00  0.00    -0.380 N 
ATOM      2  H11 UNL     1      13.311  36.500  44.737  1.00  0.00     0.158 HD
ATOM      3  H12 UNL     1      14.931  36.978  45.158  1.00  0.00     0.158 HD
HETATM    4  C1  UNL     1      14.490  37.253  43.262  1.00  0.00     0.185 C 
ENDROOT
BRANCH   4   5
HETATM    5  N2  UNL     1      15.746  37.783  42.851  1.00  0.00    -0.266 N 
ATOM      6  H2  UNL     1      16.582  37.197  42.844  1.00  0.00     0.190 HD
BRANCH   5   7
HETATM    7  N3  UNL     1      15.806  39.019  42.486  1.00  0.00    -0.227 N 
ATOM      8  H3  UNL     1      16.304  39.271  41.632  1.00  0.00     0.210 HD
BRANCH   7   9
HETATM    9  N4  UNL     1      15.191  40.017  43.254  1.00  0.00    -0.235 N 
ATOM     10  H4  UNL     1      15.582  40.210  44.175  1.00  0.00     0.209 HD
BRANCH   9  11
HETATM   11  N5  UNL     1      14.104  40.752  42.859  1.00  0.00    -0.330 N 
ATOM     12  H52 UNL     1      13.197  40.449  43.214  1.00  0.00     0.178 HD
ATOM     13  H51 UNL     1      14.143  41.566  42.245  1.00  0.00     0.178 HD
ENDBRANCH   9  11
ENDBRANCH   7   9
ENDBRANCH   5   7
ENDBRANCH   4   5
BRANCH   4  14
HETATM   14  C2  UNL     1      13.432  37.109  42.213  1.00  0.00     0.304 C 
HETATM   15  O1  UNL     1      13.055  38.149  41.633  1.00  0.00    -0.263 OA
HETATM   16  N6  UNL     1      12.935  35.827  41.948  1.00  0.00    -0.260 N 
ATOM     17  H6  UNL     1      13.362  35.100  42.521  1.00  0.00     0.190 HD
BRANCH  16  18
HETATM   18  N7  UNL     1      11.998  35.355  41.084  1.00  0.00    -0.251 N 
HETATM   19  C3  UNL     1      12.156  34.929  39.770  1.00  0.00     0.347 C 
HETATM   20  N8  UNL     1      10.990  34.470  39.060  1.00  0.00    -0.038 NA
HETATM   21  O2  UNL     1      13.277  34.913  39.145  1.00  0.00    -0.249 OA
ATOM     22  H7  UNL     1      11.047  35.306  41.450  1.00  0.00     0.191 HD
ENDBRANCH  16  18
ENDBRANCH   4  14
TORSDOF 6
ENDMDL
MODEL 2
REMARK VINA RESULT: -6.822037115      1.417      1.959
REMARK  6 active torsions:
REMARK  status: ('A' for Active; 'I' for Inactive)
REMARK    1  A    between atoms: C1_4  and  N2_5 
REMARK    2  A    between atoms: C1_4  and  C2_14 
REMARK    3  A    between atoms: N2_5  and  N3_7 
REMARK    4  A    between atoms: N3_7  and  N4_9 
REMARK    5  A    between atoms: N4_9  and  N5_11 
REMARK       I    between atoms: C2_14  and  N6_16 
REMARK    6  A    between atoms: N6_16  and  N7_18 
REMARK       I    between atoms: N7_18  and  C3_20 
ROOT
HETATM    1  N1  UNL     1      15.731  37.507  42.722  1.00  0.00    -0.380 N 
ATOM      2  H11 UNL     1      16.041  37.588  41.754  1.00  0.00     0.158 HD
ATOM      3  H12 UNL     1      16.412  37.724  43.450  1.00  0.00     0.158 HD
HETATM    4  C1  UNL     1      14.572  37.138  43.085  1.00  0.00     0.185 C 
ENDROOT
BRANCH   4   5
HETATM    5  N2  UNL     1      14.138  37.024  44.437  1.00  0.00    -0.266 N 
ATOM      6  H2  UNL     1      14.128  36.118  44.906  1.00  0.00     0.190 HD
BRANCH   5   7
HETATM    7  N3  UNL     1      13.760  38.091  45.056  1.00  0.00    -0.227 N 
ATOM      8  H3  UNL     1      14.257  38.393  45.894  1.00  0.00     0.210 HD
BRANCH   7   9
HETATM    9  N4  UNL     1      12.671  38.837  44.585  1.00  0.00    -0.235 N 
ATOM     10  H4  UNL     1      11.736  38.484  44.784  1.00  0.00     0.209 HD
BRANCH   9  11
HETATM   11  N5  UNL     1      12.770  40.006  43.877  1.00  0.00    -0.330 N 
ATOM     12  H52 UNL     1      13.086  39.927  42.910  1.00  0.00     0.178 HD
ATOM     13  H51 UNL     1      12.551  40.932  44.246  1.00  0.00     0.178 HD
ENDBRANCH   9  11
ENDBRANCH   7   9
ENDBRANCH   5   7
ENDBRANCH   4   5
BRANCH   4  14
HETATM   14  C2  UNL     1      13.573  36.819  42.018  1.00  0.00     0.304 C 
HETATM   15  O1  UNL     1      12.549  37.533  41.958  1.00  0.00    -0.263 OA
HETATM   16  N6  UNL     1      13.844  35.749  41.157  1.00  0.00    -0.260 N 
ATOM     17  H6  UNL     1      14.728  35.281  41.357  1.00  0.00     0.190 HD
BRANCH  16  18
HETATM   18  N7  UNL     1      13.170  35.205  40.109  1.00  0.00    -0.251 N 
HETATM   19  C3  UNL     1      11.952  34.535  40.105  1.00  0.00     0.347 C 
HETATM   20  N8  UNL     1      11.448  34.049  38.847  1.00  0.00    -0.038 NA
HETATM   21  O2  UNL     1      11.240  34.323  41.153  1.00  0.00    -0.249 OA
ATOM     22  H7  UNL     1      13.620  35.303  39.199  1.00  0.00     0.191 HD
ENDBRANCH  16  18
ENDBRANCH   4  14
TORSDOF 6
ENDMDL
MODEL 3
REMARK VINA RESULT: -6.633275652      1.257      1.558
REMARK  6 active torsions:
REMARK  status: ('A' for Active; 'I' for Inactive)
REMARK    1  A    between atoms: C1_4  and  N2_5 
REMARK    2  A    between atoms: C1_4  and  C2_14 
REMARK    3  A    between atoms: N2_5  and  N3_7 
REMARK    4  A    between atoms: N3_7  and  N4_9 
REMARK    5  A    between atoms: N4_9  and  N5_11 
REMARK       I    between atoms: C2_14  and  N6_16 
REMARK    6  A    between atoms: N6_16  and  N7_18 
REMARK       I    between atoms: N7_18  and  C3_20 
ROOT
HETATM    1  N1  UNL     1      12.690  38.629  44.208  1.00  0.00    -0.380 N 
ATOM      2  H11 UNL     1      11.762  38.971  43.954  1.00  0.00     0.158 HD
ATOM      3  H12 UNL     1      12.999  38.789  45.167  1.00  0.00     0.158 HD
HETATM    4  C1  UNL     1      13.489  38.041  43.416  1.00  0.00     0.185 C 
ENDROOT
BRANCH   4   5
HETATM    5  N2  UNL     1      14.783  37.564  43.770  1.00  0.00    -0.266 N 
ATOM      6  H2  UNL     1      15.011  37.348  44.741  1.00  0.00     0.190 HD
BRANCH   5   7
HETATM    7  N3  UNL     1      15.661  37.409  42.837  1.00  0.00    -0.227 N 
ATOM      8  H3  UNL     1      15.767  36.500  42.388  1.00  0.00     0.210 HD
BRANCH   7   9
HETATM    9  N4  UNL     1      16.469  38.482  42.437  1.00  0.00    -0.235 N 
ATOM     10  H4  UNL     1      17.418  38.270  42.133  1.00  0.00     0.209 HD
BRANCH   9  11
HETATM   11  N5  UNL     1      16.078  39.796  42.425  1.00  0.00    -0.330 N 
ATOM     12  H52 UNL     1      15.191  40.002  41.964  1.00  0.00     0.178 HD
ATOM     13  H51 UNL     1      16.605  40.565  42.838  1.00  0.00     0.178 HD
ENDBRANCH   9  11
ENDBRANCH   7   9
ENDBRANCH   5   7
ENDBRANCH   4   5
BRANCH   4  14
HETATM   14  C2  UNL     1      13.035  37.808  42.009  1.00  0.00     0.304 C 
HETATM   15  O1  UNL     1      13.293  38.696  41.169  1.00  0.00    -0.263 OA
HETATM   16  N6  UNL     1      12.356  36.618  41.722  1.00  0.00    -0.260 N 
ATOM     17  H6  UNL     1      12.236  36.013  42.535  1.00  0.00     0.190 HD
BRANCH  16  18
HETATM   18  N7  UNL     1      11.822  36.105  40.583  1.00  0.00    -0.251 N 
HETATM   19  C3  UNL     1      11.608  34.775  40.237  1.00  0.00     0.347 C 
HETATM   20  N8  UNL     1      11.022  34.492  38.954  1.00  0.00    -0.038 NA
HETATM   21  O2  UNL     1      11.896  33.777  40.993  1.00  0.00    -0.249 OA
ATOM     22  H7  UNL     1      11.539  36.791  39.883  1.00  0.00     0.191 HD
ENDBRANCH  16  18
ENDBRANCH   4  14
TORSDOF 6
ENDMDL
MODEL 4
REMARK VINA RESULT: -6.595818961      2.202      2.436
REMARK  6 active torsions:
REMARK  status: ('A' for Active; 'I' for Inactive)
REMARK    1  A    between atoms: C1_4  and  N2_5 
REMARK    2  A    between atoms: C1_4  and  C2_14 
REMARK    3  A    between atoms: N2_5  and  N3_7 
REMARK    4  A    between atoms: N3_7  and  N4_9 
REMARK    5  A    between atoms: N4_9  and  N5_11 
REMARK       I    between atoms: C2_14  and  N6_16 
REMARK    6  A    between atoms: N6_16  and  N7_18 
REMARK       I    between atoms: N7_18  and  C3_20 
ROOT
HETATM    1  N1  UNL     1      15.985  36.007  41.414  1.00  0.00    -0.380 N 
ATOM      2  H11 UNL     1      15.747  35.173  40.878  1.00  0.00     0.158 HD
ATOM      3  H12 UNL     1      16.923  36.389  41.291  1.00  0.00     0.158 HD
HETATM    4  C1  UNL     1      15.209  36.590  42.233  1.00  0.00     0.185 C 
ENDROOT
BRANCH   4   5
HETATM    5  N2  UNL     1      15.540  37.755  42.982  1.00  0.00    -0.266 N 
ATOM      6  H2  UNL     1      16.447  37.839  43.441  1.00  0.00     0.190 HD
BRANCH   5   7
HETATM    7  N3  UNL     1      14.669  38.703  43.067  1.00  0.00    -0.227 N 
ATOM      8  H3  UNL     1      14.479  39.289  42.254  1.00  0.00     0.210 HD
BRANCH   7   9
HETATM    9  N4  UNL     1      13.984  38.932  44.267  1.00  0.00    -0.235 N 
ATOM     10  H4  UNL     1      14.540  39.139  45.096  1.00  0.00     0.209 HD
BRANCH   9  11
HETATM   11  N5  UNL     1      12.621  38.898  44.411  1.00  0.00    -0.330 N 
ATOM     12  H52 UNL     1      12.099  38.414  43.679  1.00  0.00     0.178 HD
ATOM     13  H51 UNL     1      12.105  39.315  45.185  1.00  0.00     0.178 HD
ENDBRANCH   9  11
ENDBRANCH   7   9
ENDBRANCH   5   7
ENDBRANCH   4   5
BRANCH   4  14
HETATM   14  C2  UNL     1      13.834  36.029  42.414  1.00  0.00     0.304 C 
HETATM   15  O1  UNL     1      12.870  36.761  42.101  1.00  0.00    -0.263 OA
HETATM   16  N6  UNL     1      13.711  34.728  42.917  1.00  0.00    -0.260 N 
ATOM     17  H6  UNL     1      14.607  34.284  43.116  1.00  0.00     0.190 HD
BRANCH  16  18
HETATM   18  N7  UNL     1      12.641  33.937  43.196  1.00  0.00    -0.251 N 
HETATM   19  C3  UNL     1      11.728  33.360  42.320  1.00  0.00     0.347 C 
HETATM   20  N8  UNL     1      10.671  32.556  42.875  1.00  0.00    -0.038 NA
HETATM   21  O2  UNL     1      11.767  33.493  41.044  1.00  0.00    -0.249 OA
ATOM     22  H7  UNL     1      12.486  33.739  44.184  1.00  0.00     0.191 HD
ENDBRANCH  16  18
ENDBRANCH   4  14
TORSDOF 6
ENDMDL
MODEL 5
REMARK VINA RESULT: -6.593444889      1.048      1.583
REMARK  6 active torsions:
REMARK  status: ('A' for Active; 'I' for Inactive)
REMARK    1  A    between atoms: C1_4  and  N2_5 
REMARK    2  A    between atoms: C1_4  and  C2_14 
REMARK    3  A    between atoms: N2_5  and  N3_7 
REMARK    4  A    between atoms: N3_7  and  N4_9 
REMARK    5  A    between atoms: N4_9  and  N5_11 
REMARK       I    between atoms: C2_14  and  N6_16 
REMARK    6  A    between atoms: N6_16  and  N7_18 
REMARK       I    between atoms: N7_18  and  C3_20 
ROOT
HETATM    1  N1  UNL     1      15.646  37.113  42.275  1.00  0.00    -0.380 N 
ATOM      2  H11 UNL     1      15.762  37.086  41.262  1.00  0.00     0.158 HD
ATOM      3  H12 UNL     1      16.484  37.269  42.836  1.00  0.00     0.158 HD
HETATM    4  C1  UNL     1      14.545  36.948  42.885  1.00  0.00     0.185 C 
ENDROOT
BRANCH   4   5
HETATM    5  N2  UNL     1      14.383  36.987  44.300  1.00  0.00    -0.266 N 
ATOM      6  H2  UNL     1      14.860  36.312  44.897  1.00  0.00     0.190 HD
BRANCH   5   7
HETATM    7  N3  UNL     1      13.619  37.894  44.809  1.00  0.00    -0.227 N 
ATOM      8  H3  UNL     1      12.885  37.627  45.465  1.00  0.00     0.210 HD
BRANCH   7   9
HETATM    9  N4  UNL     1      13.792  39.242  44.468  1.00  0.00    -0.235 N 
ATOM     10  H4  UNL     1      14.667  39.689  44.738  1.00  0.00     0.209 HD
BRANCH   9  11
HETATM   11  N5  UNL     1      12.871  40.005  43.798  1.00  0.00    -0.330 N 
ATOM     12  H52 UNL     1      12.105  40.385  44.354  1.00  0.00     0.178 HD
ATOM     13  H51 UNL     1      12.902  40.213  42.800  1.00  0.00     0.178 HD
ENDBRANCH   9  11
ENDBRANCH   7   9
ENDBRANCH   5   7
ENDBRANCH   4   5
BRANCH   4  14
HETATM   14  C2  UNL     1      13.316  36.719  42.062  1.00  0.00     0.304 C 
HETATM   15  O1  UNL     1      12.518  37.673  41.945  1.00  0.00    -0.263 OA
HETATM   16  N6  UNL     1      13.138  35.459  41.477  1.00  0.00    -0.260 N 
ATOM     17  H6  UNL     1      13.894  34.806  41.683  1.00  0.00     0.190 HD
BRANCH  16  18
HETATM   18  N7  UNL     1      12.164  34.929  40.692  1.00  0.00    -0.251 N 
HETATM   19  C3  UNL     1      12.126  34.807  39.307  1.00  0.00     0.347 C 
HETATM   20  N8  UNL     1      10.964  34.202  38.711  1.00  0.00    -0.038 NA
HETATM   21  O2  UNL     1      13.065  35.194  38.521  1.00  0.00    -0.249 OA
ATOM     22  H7  UNL     1      11.347  34.572  41.186  1.00  0.00     0.191 HD
ENDBRANCH  16  18
ENDBRANCH   4  14
TORSDOF 6
ENDMDL
