MODEL 1
REMARK VINA RESULT: -7.561470792      0.000      0.000
REMARK  7 active torsions:
REMARK  status: ('A' for Active; 'I' for Inactive)
REMARK    1  A    between atoms: C2_2  and  N1_3 
REMARK    2  A    between atoms: C2_2  and  C16_22 
REMARK       I    between atoms: N1_3  and  C3_5 
REMARK    3  A    between atoms: C3_5  and  C4_7 
REMARK    4  A    between atoms: C4_7  and  N2_8 
REMARK       I    between atoms: N2_8  and  C5_10 
REMARK    5  A    between atoms: C5_10  and  C6_12 
REMARK    6  A    between atoms: C16_22  and  N3_24 
REMARK       I    between atoms: N3_24  and  C18_26 
REMARK    7  A    between atoms: N5_28  and  O3_30 
ROOT
HETATM    1  N1  UNL     1      18.841  17.810  13.199  1.00  0.00    -0.353 N 
ATOM      2  H1  UNL     1      19.143  16.861  13.418  1.00  0.00     0.163 HD
HETATM    3  C3  UNL     1      17.946  18.483  14.063  1.00  0.00     0.235 C 
HETATM    4  O1  UNL     1      17.558  19.659  13.811  1.00  0.00    -0.272 OA
ENDROOT
BRANCH   3   5
HETATM    5  C4  UNL     1      17.470  17.783  15.276  1.00  0.00     0.225 C 
BRANCH   5   6
HETATM    6  N2  UNL     1      16.256  17.053  15.121  1.00  0.00    -0.352 N 
HETATM    7  C5  UNL     1      15.517  16.604  16.217  1.00  0.00     0.223 C 
HETATM    8  O2  UNL     1      16.006  16.911  17.372  1.00  0.00    -0.273 OA
ATOM      9  H2  UNL     1      15.917  16.851  14.180  1.00  0.00     0.162 HD
BRANCH   7  10
HETATM   10  C6  UNL     1      14.278  15.839  16.245  1.00  0.00     0.086 C 
HETATM   11  C7  UNL     1      13.415  16.050  15.053  1.00  0.00    -0.001 C 
HETATM   12  C8  UNL     1      12.576  17.268  15.181  1.00  0.00     0.010 C 
HETATM   13  C12 UNL     1      12.502  14.816  14.973  1.00  0.00     0.010 C 
HETATM   14  C9  UNL     1      11.703  17.206  16.398  1.00  0.00    -0.013 C 
HETATM   15  C10 UNL     1      10.814  15.981  16.293  1.00  0.00     0.009 C 
HETATM   16  C15 UNL     1      12.555  17.088  17.619  1.00  0.00     0.010 C 
HETATM   17  C11 UNL     1      11.716  14.778  16.257  1.00  0.00    -0.013 C 
HETATM   18  C13 UNL     1      12.568  14.680  17.494  1.00  0.00     0.010 C 
HETATM   19  C14 UNL     1      13.482  15.926  17.524  1.00  0.00    -0.001 C 
ENDBRANCH   7  10
ENDBRANCH   5   6
ENDBRANCH   3   5
BRANCH   1  20
HETATM   20  C2  UNL     1      19.323  18.457  12.017  1.00  0.00     0.102 C 
HETATM   21  C1  UNL     1      20.628  19.180  12.336  1.00  0.00     0.034 C 
BRANCH  20  22
HETATM   22  C16 UNL     1      19.574  17.577  10.842  1.00  0.00     0.102 C 
HETATM   23  C17 UNL     1      18.199  17.325  10.195  1.00  0.00     0.034 C 
BRANCH  22  24
HETATM   24  N3  UNL     1      20.231  16.344  11.084  1.00  0.00    -0.357 N 
HETATM   25  C18 UNL     1      21.628  16.149  11.100  1.00  0.00     0.208 C 
HETATM   26  N4  UNL     1      22.513  16.591  10.080  1.00  0.00    -0.062 NA
HETATM   27  N5  UNL     1      22.097  15.503  12.143  1.00  0.00    -0.241 N 
ATOM     28  H5  UNL     1      21.442  15.190  12.859  1.00  0.00     0.197 HD
ATOM     29  H3  UNL     1      19.644  15.529  11.262  1.00  0.00     0.162 HD
BRANCH  27  30
HETATM   30  O3  UNL     1      23.416  15.235  12.307  1.00  0.00    -0.287 OA
ATOM     31  H3  UNL     1      23.881  14.594  11.783  1.00  0.00     0.244 HD
ENDBRANCH  27  30
ENDBRANCH  22  24
ENDBRANCH  20  22
ENDBRANCH   1  20
TORSDOF 7
ENDMDL
MODEL 2
REMARK VINA RESULT: -7.475025653      2.732      8.675
REMARK  7 active torsions:
REMARK  status: ('A' for Active; 'I' for Inactive)
REMARK    1  A    between atoms: C2_2  and  N1_3 
REMARK    2  A    between atoms: C2_2  and  C16_22 
REMARK       I    between atoms: N1_3  and  C3_5 
REMARK    3  A    between atoms: C3_5  and  C4_7 
REMARK    4  A    between atoms: C4_7  and  N2_8 
REMARK       I    between atoms: N2_8  and  C5_10 
REMARK    5  A    between atoms: C5_10  and  C6_12 
REMARK    6  A    between atoms: C16_22  and  N3_24 
REMARK       I    between atoms: N3_24  and  C18_26 
REMARK    7  A    between atoms: N5_28  and  O3_30 
ROOT
HETATM    1  N1  UNL     1      15.645  16.503  15.607  1.00  0.00    -0.353 N 
ATOM      2  H1  UNL     1      15.143  15.731  15.167  1.00  0.00     0.163 HD
HETATM    3  C3  UNL     1      16.560  17.272  14.851  1.00  0.00     0.235 C 
HETATM    4  O1  UNL     1      17.193  18.232  15.376  1.00  0.00    -0.272 OA
ENDROOT
BRANCH   3   5
HETATM    5  C4  UNL     1      16.764  16.932  13.426  1.00  0.00     0.225 C 
BRANCH   5   6
HETATM    6  N2  UNL     1      17.985  17.400  12.858  1.00  0.00    -0.352 N 
HETATM    7  C5  UNL     1      18.168  17.500  11.478  1.00  0.00     0.223 C 
HETATM    8  O2  UNL     1      17.151  17.152  10.762  1.00  0.00    -0.273 OA
ATOM      9  H2  UNL     1      18.748  17.670  13.479  1.00  0.00     0.162 HD
BRANCH   7  10
HETATM   10  C6  UNL     1      19.340  17.936  10.730  1.00  0.00     0.086 C 
HETATM   11  C7  UNL     1      19.487  17.277   9.405  1.00  0.00    -0.001 C 
HETATM   12  C8  UNL     1      20.144  15.951   9.513  1.00  0.00     0.010 C 
HETATM   13  C12 UNL     1      20.373  18.212   8.568  1.00  0.00     0.010 C 
HETATM   14  C9  UNL     1      21.499  16.061  10.145  1.00  0.00    -0.013 C 
HETATM   15  C10 UNL     1      22.352  16.988   9.299  1.00  0.00     0.009 C 
HETATM   16  C15 UNL     1      21.366  16.636  11.517  1.00  0.00     0.010 C 
HETATM   17  C11 UNL     1      21.683  18.335   9.302  1.00  0.00    -0.013 C 
HETATM   18  C13 UNL     1      21.555  18.894  10.693  1.00  0.00     0.010 C 
HETATM   19  C14 UNL     1      20.641  17.937  11.493  1.00  0.00    -0.001 C 
ENDBRANCH   7  10
ENDBRANCH   5   6
ENDBRANCH   3   5
BRANCH   1  20
HETATM   20  C2  UNL     1      15.421  16.804  16.988  1.00  0.00     0.102 C 
HETATM   21  C1  UNL     1      14.032  16.317  17.391  1.00  0.00     0.034 C 
BRANCH  20  22
HETATM   22  C16 UNL     1      16.396  16.224  17.953  1.00  0.00     0.102 C 
HETATM   23  C17 UNL     1      15.612  15.976  19.256  1.00  0.00     0.034 C 
BRANCH  22  24
HETATM   24  N3  UNL     1      17.566  16.978  18.225  1.00  0.00    -0.357 N 
HETATM   25  C18 UNL     1      18.367  16.860  19.380  1.00  0.00     0.208 C 
HETATM   26  N4  UNL     1      17.867  16.877  20.710  1.00  0.00    -0.062 NA
HETATM   27  N5  UNL     1      19.656  16.736  19.165  1.00  0.00    -0.241 N 
ATOM     28  H5  UNL     1      19.992  16.732  18.203  1.00  0.00     0.197 HD
ATOM     29  H3  UNL     1      17.853  17.663  17.527  1.00  0.00     0.162 HD
BRANCH  27  30
HETATM   30  O3  UNL     1      20.559  16.612  20.169  1.00  0.00    -0.287 OA
ATOM     31  H3  UNL     1      21.413  17.029  20.147  1.00  0.00     0.244 HD
ENDBRANCH  27  30
ENDBRANCH  22  24
ENDBRANCH  20  22
ENDBRANCH   1  20
TORSDOF 7
ENDMDL
MODEL 3
REMARK VINA RESULT: -7.404824526      5.175      7.551
REMARK  7 active torsions:
REMARK  status: ('A' for Active; 'I' for Inactive)
REMARK    1  A    between atoms: C2_2  and  N1_3 
REMARK    2  A    between atoms: C2_2  and  C16_22 
REMARK       I    between atoms: N1_3  and  C3_5 
REMARK    3  A    between atoms: C3_5  and  C4_7 
REMARK    4  A    between atoms: C4_7  and  N2_8 
REMARK       I    between atoms: N2_8  and  C5_10 
REMARK    5  A    between atoms: C5_10  and  C6_12 
REMARK    6  A    between atoms: C16_22  and  N3_24 
REMARK       I    between atoms: N3_24  and  C18_26 
REMARK    7  A    between atoms: N5_28  and  O3_30 
ROOT
HETATM    1  N1  UNL     1      16.113  16.645  17.834  1.00  0.00    -0.353 N 
ATOM      2  H1  UNL     1      15.785  17.522  17.430  1.00  0.00     0.163 HD
HETATM    3  C3  UNL     1      15.279  15.504  17.814  1.00  0.00     0.235 C 
HETATM    4  O1  UNL     1      15.665  14.406  18.309  1.00  0.00    -0.272 OA
ENDROOT
BRANCH   3   5
HETATM    5  C4  UNL     1      13.939  15.615  17.199  1.00  0.00     0.225 C 
BRANCH   5   6
HETATM    6  N2  UNL     1      13.675  16.846  16.531  1.00  0.00    -0.352 N 
HETATM    7  C5  UNL     1      12.384  17.363  16.416  1.00  0.00     0.223 C 
HETATM    8  O2  UNL     1      11.456  16.654  16.967  1.00  0.00    -0.273 OA
ATOM      9  H2  UNL     1      14.454  17.365  16.126  1.00  0.00     0.162 HD
BRANCH   7  10
HETATM   10  C6  UNL     1      11.932  18.585  15.762  1.00  0.00     0.086 C 
HETATM   11  C7  UNL     1      10.475  18.603  15.464  1.00  0.00    -0.001 C 
HETATM   12  C8  UNL     1      10.157  17.897  14.198  1.00  0.00     0.010 C 
HETATM   13  C12 UNL     1      10.095  20.085  15.325  1.00  0.00     0.010 C 
HETATM   14  C9  UNL     1      10.889  18.499  13.037  1.00  0.00    -0.013 C 
HETATM   15  C10 UNL     1      10.496  19.960  12.921  1.00  0.00     0.009 C 
HETATM   16  C15 UNL     1      12.361  18.407  13.271  1.00  0.00     0.010 C 
HETATM   17  C11 UNL     1      10.924  20.638  14.194  1.00  0.00    -0.013 C 
HETATM   18  C13 UNL     1      12.409  20.530  14.414  1.00  0.00     0.010 C 
HETATM   19  C14 UNL     1      12.744  19.028  14.570  1.00  0.00    -0.001 C 
ENDBRANCH   7  10
ENDBRANCH   5   6
ENDBRANCH   3   5
BRANCH   1  20
HETATM   20  C2  UNL     1      17.417  16.573  18.419  1.00  0.00     0.102 C 
HETATM   21  C1  UNL     1      18.388  17.410  17.591  1.00  0.00     0.034 C 
BRANCH  20  22
HETATM   22  C16 UNL     1      17.528  17.029  19.833  1.00  0.00     0.102 C 
HETATM   23  C17 UNL     1      19.035  17.127  20.133  1.00  0.00     0.034 C 
BRANCH  22  24
HETATM   24  N3  UNL     1      16.885  16.240  20.821  1.00  0.00    -0.357 N 
HETATM   25  C18 UNL     1      16.460  16.697  22.086  1.00  0.00     0.208 C 
HETATM   26  N4  UNL     1      17.273  17.433  22.989  1.00  0.00    -0.062 NA
HETATM   27  N5  UNL     1      15.226  16.392  22.412  1.00  0.00    -0.241 N 
ATOM     28  H5  UNL     1      14.663  15.858  21.751  1.00  0.00     0.197 HD
ATOM     29  H3  UNL     1      16.716  15.259  20.598  1.00  0.00     0.162 HD
BRANCH  27  30
HETATM   30  O3  UNL     1      14.667  16.757  23.593  1.00  0.00    -0.287 OA
ATOM     31  H3  UNL     1      13.809  17.162  23.653  1.00  0.00     0.244 HD
ENDBRANCH  27  30
ENDBRANCH  22  24
ENDBRANCH  20  22
ENDBRANCH   1  20
TORSDOF 7
ENDMDL
MODEL 4
REMARK VINA RESULT: -7.336112553      3.052      8.357
REMARK  7 active torsions:
REMARK  status: ('A' for Active; 'I' for Inactive)
REMARK    1  A    between atoms: C2_2  and  N1_3 
REMARK    2  A    between atoms: C2_2  and  C16_22 
REMARK       I    between atoms: N1_3  and  C3_5 
REMARK    3  A    between atoms: C3_5  and  C4_7 
REMARK    4  A    between atoms: C4_7  and  N2_8 
REMARK       I    between atoms: N2_8  and  C5_10 
REMARK    5  A    between atoms: C5_10  and  C6_12 
REMARK    6  A    between atoms: C16_22  and  N3_24 
REMARK       I    between atoms: N3_24  and  C18_26 
REMARK    7  A    between atoms: N5_28  and  O3_30 
ROOT
HETATM    1  N1  UNL     1      15.313  16.271  15.958  1.00  0.00    -0.353 N 
ATOM      2  H1  UNL     1      14.808  15.448  15.630  1.00  0.00     0.163 HD
HETATM    3  C3  UNL     1      16.072  17.043  15.049  1.00  0.00     0.235 C 
HETATM    4  O1  UNL     1      16.706  18.068  15.434  1.00  0.00    -0.272 OA
ENDROOT
BRANCH   3   5
HETATM    5  C4  UNL     1      16.111  16.631  13.629  1.00  0.00     0.225 C 
BRANCH   5   6
HETATM    6  N2  UNL     1      17.281  17.021  12.914  1.00  0.00    -0.352 N 
HETATM    7  C5  UNL     1      17.250  18.006  11.925  1.00  0.00     0.223 C 
HETATM    8  O2  UNL     1      16.094  18.543  11.720  1.00  0.00    -0.273 OA
ATOM      9  H2  UNL     1      18.168  16.565  13.131  1.00  0.00     0.162 HD
BRANCH   7  10
HETATM   10  C6  UNL     1      18.332  18.513  11.092  1.00  0.00     0.086 C 
HETATM   11  C7  UNL     1      18.061  18.421   9.633  1.00  0.00    -0.001 C 
HETATM   12  C8  UNL     1      18.377  17.075   9.092  1.00  0.00     0.010 C 
HETATM   13  C12 UNL     1      18.978  19.459   8.969  1.00  0.00     0.010 C 
HETATM   14  C9  UNL     1      19.811  16.711   9.336  1.00  0.00    -0.013 C 
HETATM   15  C10 UNL     1      20.693  17.750   8.670  1.00  0.00     0.009 C 
HETATM   16  C15 UNL     1      20.084  16.706  10.803  1.00  0.00     0.010 C 
HETATM   17  C11 UNL     1      20.391  19.073   9.321  1.00  0.00    -0.013 C 
HETATM   18  C13 UNL     1      20.668  19.046  10.800  1.00  0.00     0.010 C 
HETATM   19  C14 UNL     1      19.713  18.006  11.429  1.00  0.00    -0.001 C 
ENDBRANCH   7  10
ENDBRANCH   5   6
ENDBRANCH   3   5
BRANCH   1  20
HETATM   20  C2  UNL     1      15.251  16.642  17.339  1.00  0.00     0.102 C 
HETATM   21  C1  UNL     1      13.913  16.194  17.921  1.00  0.00     0.034 C 
BRANCH  20  22
HETATM   22  C16 UNL     1      16.325  16.096  18.215  1.00  0.00     0.102 C 
HETATM   23  C17 UNL     1      15.682  15.882  19.598  1.00  0.00     0.034 C 
BRANCH  22  24
HETATM   24  N3  UNL     1      17.511  16.863  18.342  1.00  0.00    -0.357 N 
HETATM   25  C18 UNL     1      18.365  16.872  19.464  1.00  0.00     0.208 C 
HETATM   26  N4  UNL     1      17.929  17.049  20.805  1.00  0.00    -0.062 NA
HETATM   27  N5  UNL     1      19.642  16.710  19.205  1.00  0.00    -0.241 N 
ATOM     28  H5  UNL     1      19.932  16.591  18.235  1.00  0.00     0.197 HD
ATOM     29  H3  UNL     1      17.768  17.460  17.556  1.00  0.00     0.162 HD
BRANCH  27  30
HETATM   30  O3  UNL     1      20.591  16.695  20.174  1.00  0.00    -0.287 OA
ATOM     31  H3  UNL     1      21.398  17.192  20.111  1.00  0.00     0.244 HD
ENDBRANCH  27  30
ENDBRANCH  22  24
ENDBRANCH  20  22
ENDBRANCH   1  20
TORSDOF 7
ENDMDL
MODEL 5
REMARK VINA RESULT: -7.312603429      6.460      8.933
REMARK  7 active torsions:
REMARK  status: ('A' for Active; 'I' for Inactive)
REMARK    1  A    between atoms: C2_2  and  N1_3 
REMARK    2  A    between atoms: C2_2  and  C16_22 
REMARK       I    between atoms: N1_3  and  C3_5 
REMARK    3  A    between atoms: C3_5  and  C4_7 
REMARK    4  A    between atoms: C4_7  and  N2_8 
REMARK       I    between atoms: N2_8  and  C5_10 
REMARK    5  A    between atoms: C5_10  and  C6_12 
REMARK    6  A    between atoms: C16_22  and  N3_24 
REMARK       I    between atoms: N3_24  and  C18_26 
REMARK    7  A    between atoms: N5_28  and  O3_30 
ROOT
HETATM    1  N1  UNL     1       9.570  18.149  11.463  1.00  0.00    -0.353 N 
ATOM      2  H1  UNL     1      10.466  18.455  11.084  1.00  0.00     0.163 HD
HETATM    3  C3  UNL     1       9.195  18.519  12.775  1.00  0.00     0.235 C 
HETATM    4  O1  UNL     1       8.089  18.150  13.265  1.00  0.00    -0.272 OA
ENDROOT
BRANCH   3   5
HETATM    5  C4  UNL     1      10.124  19.351  13.571  1.00  0.00     0.225 C 
BRANCH   5   6
HETATM    6  N2  UNL     1      10.578  18.763  14.787  1.00  0.00    -0.352 N 
HETATM    7  C5  UNL     1      11.831  18.156  14.893  1.00  0.00     0.223 C 
HETATM    8  O2  UNL     1      12.546  18.180  13.819  1.00  0.00    -0.273 OA
ATOM      9  H2  UNL     1       9.969  18.786  15.605  1.00  0.00     0.162 HD
BRANCH   7  10
HETATM   10  C6  UNL     1      12.445  17.498  16.039  1.00  0.00     0.086 C 
HETATM   11  C7  UNL     1      13.559  16.581  15.680  1.00  0.00    -0.001 C 
HETATM   12  C8  UNL     1      13.066  15.242  15.271  1.00  0.00     0.010 C 
HETATM   13  C12 UNL     1      14.411  16.439  16.950  1.00  0.00     0.010 C 
HETATM   14  C9  UNL     1      12.253  14.603  16.356  1.00  0.00    -0.013 C 
HETATM   15  C10 UNL     1      13.117  14.474  17.596  1.00  0.00     0.009 C 
HETATM   16  C15 UNL     1      11.074  15.463  16.670  1.00  0.00     0.010 C 
HETATM   17  C11 UNL     1      13.509  15.866  18.012  1.00  0.00    -0.013 C 
HETATM   18  C13 UNL     1      12.307  16.718  18.319  1.00  0.00     0.010 C 
HETATM   19  C14 UNL     1      11.491  16.852  17.013  1.00  0.00    -0.001 C 
ENDBRANCH   7  10
ENDBRANCH   5   6
ENDBRANCH   3   5
BRANCH   1  20
HETATM   20  C2  UNL     1       8.695  17.346  10.664  1.00  0.00     0.102 C 
HETATM   21  C1  UNL     1       8.154  18.186   9.510  1.00  0.00     0.034 C 
BRANCH  20  22
HETATM   22  C16 UNL     1       9.287  16.111  10.079  1.00  0.00     0.102 C 
HETATM   23  C17 UNL     1       8.995  16.171   8.568  1.00  0.00     0.034 C 
BRANCH  22  24
HETATM   24  N3  UNL     1       8.854  14.870  10.611  1.00  0.00    -0.357 N 
HETATM   25  C18 UNL     1       7.511  14.474  10.779  1.00  0.00     0.208 C 
HETATM   26  N4  UNL     1       6.514  15.263  11.414  1.00  0.00    -0.062 NA
HETATM   27  N5  UNL     1       7.207  13.286  10.310  1.00  0.00    -0.241 N 
ATOM     28  H5  UNL     1       7.940  12.735   9.864  1.00  0.00     0.197 HD
ATOM     29  H3  UNL     1       9.575  14.207  10.895  1.00  0.00     0.162 HD
BRANCH  27  30
HETATM   30  O3  UNL     1       5.960  12.761  10.393  1.00  0.00    -0.287 OA
ATOM     31  H3  UNL     1       5.799  11.851  10.614  1.00  0.00     0.244 HD
ENDBRANCH  27  30
ENDBRANCH  22  24
ENDBRANCH  20  22
ENDBRANCH   1  20
TORSDOF 7
ENDMDL
