MODEL 1
REMARK VINA RESULT: -7.374756884      0.000      0.000
REMARK  6 active torsions:
REMARK  status: ('A' for Active; 'I' for Inactive)
REMARK    1  A    between atoms: C2_2  and  C4_4 
REMARK    2  A    between atoms: C4_4  and  N1_5 
REMARK       I    between atoms: N1_5  and  C5_7 
REMARK    3  A    between atoms: C5_7  and  C6_9 
REMARK    4  A    between atoms: C6_9  and  N2_10 
REMARK       I    between atoms: N2_10  and  C7_12 
REMARK    5  A    between atoms: C7_12  and  C8_14 
REMARK    6  A    between atoms: C9_15  and  C10_16 
REMARK       I    between atoms: N3_21  and  C13_22 
ROOT
HETATM    1  N2  UNL     1      12.768  17.436  16.082  1.00  0.00    -0.341 N 
ATOM      2  H2  UNL     1      12.271  17.986  16.782  1.00  0.00     0.163 HD
HETATM    3  C7  UNL     1      12.577  17.817  14.741  1.00  0.00     0.242 C 
HETATM    4  O2  UNL     1      13.188  17.138  13.880  1.00  0.00    -0.271 OA
ENDROOT
BRANCH   1   5
HETATM    5  C6  UNL     1      13.568  16.379  16.570  1.00  0.00     0.114 C 
HETATM    6  C14 UNL     1      13.138  15.887  17.939  1.00  0.00     0.041 C 
HETATM    7  C15 UNL     1      12.433  14.577  17.758  1.00  0.00     0.003 C 
HETATM    8  C16 UNL     1      12.056  14.612  16.295  1.00  0.00     0.003 C 
HETATM    9  C17 UNL     1      13.366  15.156  15.707  1.00  0.00     0.041 C 
BRANCH   5  10
HETATM   10  C5  UNL     1      15.030  16.716  16.709  1.00  0.00     0.246 C 
HETATM   11  N1  UNL     1      15.725  16.443  17.902  1.00  0.00    -0.359 N 
ATOM     12  H1  UNL     1      15.187  15.995  18.644  1.00  0.00     0.162 HD
HETATM   13  O1  UNL     1      15.586  17.237  15.736  1.00  0.00    -0.271 OA
BRANCH  11  14
HETATM   14  C4  UNL     1      17.084  16.717  18.197  1.00  0.00     0.126 C 
BRANCH  14  15
HETATM   15  C2  UNL     1      17.648  16.441  19.522  1.00  0.00    -0.005 C 
HETATM   16  C1  UNL     1      18.837  17.435  19.711  1.00  0.00     0.011 C 
HETATM   17  C3  UNL     1      16.839  16.553  20.750  1.00  0.00     0.011 C 
ENDBRANCH  14  15
ENDBRANCH  11  14
ENDBRANCH   5  10
ENDBRANCH   1   5
BRANCH   3  18
HETATM   18  C8  UNL     1      11.748  18.912  14.266  1.00  0.00     0.193 C 
HETATM   19  C9  UNL     1      10.374  19.007  14.828  1.00  0.00     0.120 C 
HETATM   20  C11 UNL     1      10.282  20.438  15.375  1.00  0.00     0.038 C 
HETATM   21  C12 UNL     1      11.699  20.909  15.507  1.00  0.00     0.127 C 
HETATM   22  N3  UNL     1      12.356  20.219  14.423  1.00  0.00    -0.342 N 
HETATM   23  C13 UNL     1      13.427  20.787  13.666  1.00  0.00     0.184 C 
HETATM   24  N4  UNL     1      14.189  21.711  14.178  1.00  0.00    -0.374 N 
HETATM   25  N5  UNL     1      13.606  20.296  12.356  1.00  0.00    -0.064 NA
ATOM     26  H42 UNL     1      14.060  22.066  15.125  1.00  0.00     0.158 HD
ATOM     27  H41 UNL     1      14.954  22.117  13.638  1.00  0.00     0.158 HD
BRANCH  19  28
HETATM   28  C10 UNL     1      10.042  18.094  15.894  1.00  0.00     0.179 C 
HETATM   29  O3  UNL     1       9.517  16.983  15.670  1.00  0.00    -0.648 OA
HETATM   30  O4  UNL     1      10.298  18.435  17.208  1.00  0.00    -0.648 OA
ENDBRANCH  19  28
ENDBRANCH   3  18
TORSDOF 6
ENDMDL
MODEL 2
REMARK VINA RESULT: -7.290498835      4.387      6.496
REMARK  6 active torsions:
REMARK  status: ('A' for Active; 'I' for Inactive)
REMARK    1  A    between atoms: C2_2  and  C4_4 
REMARK    2  A    between atoms: C4_4  and  N1_5 
REMARK       I    between atoms: N1_5  and  C5_7 
REMARK    3  A    between atoms: C5_7  and  C6_9 
REMARK    4  A    between atoms: C6_9  and  N2_10 
REMARK       I    between atoms: N2_10  and  C7_12 
REMARK    5  A    between atoms: C7_12  and  C8_14 
REMARK    6  A    between atoms: C9_15  and  C10_16 
REMARK       I    between atoms: N3_21  and  C13_22 
ROOT
HETATM    1  N2  UNL     1       9.710  17.820  12.572  1.00  0.00    -0.341 N 
ATOM      2  H2  UNL     1      10.288  17.482  11.802  1.00  0.00     0.163 HD
HETATM    3  C7  UNL     1       8.331  17.918  12.318  1.00  0.00     0.242 C 
HETATM    4  O2  UNL     1       7.621  18.335  13.265  1.00  0.00    -0.271 OA
ENDROOT
BRANCH   1   5
HETATM    5  C6  UNL     1      10.389  18.135  13.771  1.00  0.00     0.114 C 
HETATM    6  C14 UNL     1      11.872  18.379  13.572  1.00  0.00     0.041 C 
HETATM    7  C15 UNL     1      12.113  19.856  13.658  1.00  0.00     0.003 C 
HETATM    8  C16 UNL     1      10.735  20.423  13.410  1.00  0.00     0.003 C 
HETATM    9  C17 UNL     1       9.906  19.471  14.285  1.00  0.00     0.041 C 
BRANCH   5  10
HETATM   10  C5  UNL     1      10.299  17.074  14.836  1.00  0.00     0.246 C 
HETATM   11  N1  UNL     1      11.346  16.153  15.031  1.00  0.00    -0.359 N 
ATOM     12  H1  UNL     1      12.160  16.263  14.425  1.00  0.00     0.162 HD
HETATM   13  O1  UNL     1       9.274  17.049  15.526  1.00  0.00    -0.271 OA
BRANCH  11  14
HETATM   14  C4  UNL     1      11.406  15.091  15.967  1.00  0.00     0.126 C 
BRANCH  14  15
HETATM   15  C2  UNL     1      11.678  15.340  17.386  1.00  0.00    -0.005 C 
HETATM   16  C1  UNL     1      12.660  14.218  17.851  1.00  0.00     0.011 C 
HETATM   17  C3  UNL     1      12.274  16.605  17.854  1.00  0.00     0.011 C 
ENDBRANCH  14  15
ENDBRANCH  11  14
ENDBRANCH   5  10
ENDBRANCH   1   5
BRANCH   3  18
HETATM   18  C8  UNL     1       7.658  17.585  11.073  1.00  0.00     0.193 C 
HETATM   19  C9  UNL     1       7.479  18.687  10.090  1.00  0.00     0.120 C 
HETATM   20  C11 UNL     1       8.093  18.145   8.792  1.00  0.00     0.038 C 
HETATM   21  C12 UNL     1       8.965  16.999   9.207  1.00  0.00     0.127 C 
HETATM   22  N3  UNL     1       8.264  16.479  10.357  1.00  0.00    -0.342 N 
HETATM   23  C13 UNL     1       8.213  15.088  10.682  1.00  0.00     0.184 C 
HETATM   24  N4  UNL     1       9.149  14.275  10.283  1.00  0.00    -0.374 N 
HETATM   25  N5  UNL     1       7.108  14.656  11.445  1.00  0.00    -0.064 NA
ATOM     26  H42 UNL     1       9.948  14.587   9.731  1.00  0.00     0.158 HD
ATOM     27  H41 UNL     1       9.113  13.282  10.515  1.00  0.00     0.158 HD
BRANCH  19  28
HETATM   28  C10 UNL     1       8.114  19.944  10.399  1.00  0.00     0.179 C 
HETATM   29  O3  UNL     1       9.330  20.136  10.190  1.00  0.00    -0.648 OA
HETATM   30  O4  UNL     1       7.381  20.981  10.944  1.00  0.00    -0.648 OA
ENDBRANCH  19  28
ENDBRANCH   3  18
TORSDOF 6
ENDMDL
MODEL 3
REMARK VINA RESULT: -7.116802343      2.378      3.423
REMARK  6 active torsions:
REMARK  status: ('A' for Active; 'I' for Inactive)
REMARK    1  A    between atoms: C2_2  and  C4_4 
REMARK    2  A    between atoms: C4_4  and  N1_5 
REMARK       I    between atoms: N1_5  and  C5_7 
REMARK    3  A    between atoms: C5_7  and  C6_9 
REMARK    4  A    between atoms: C6_9  and  N2_10 
REMARK       I    between atoms: N2_10  and  C7_12 
REMARK    5  A    between atoms: C7_12  and  C8_14 
REMARK    6  A    between atoms: C9_15  and  C10_16 
REMARK       I    between atoms: N3_21  and  C13_22 
ROOT
HETATM    1  N2  UNL     1      14.373  17.812  14.676  1.00  0.00    -0.341 N 
ATOM      2  H2  UNL     1      14.063  18.765  14.866  1.00  0.00     0.163 HD
HETATM    3  C7  UNL     1      13.368  16.829  14.638  1.00  0.00     0.242 C 
HETATM    4  O2  UNL     1      13.749  15.656  14.406  1.00  0.00    -0.271 OA
ENDROOT
BRANCH   1   5
HETATM    5  C6  UNL     1      15.761  17.632  14.482  1.00  0.00     0.114 C 
HETATM    6  C14 UNL     1      16.094  16.411  13.647  1.00  0.00     0.041 C 
HETATM    7  C15 UNL     1      16.491  16.882  12.281  1.00  0.00     0.003 C 
HETATM    8  C16 UNL     1      15.905  18.274  12.235  1.00  0.00     0.003 C 
HETATM    9  C17 UNL     1      16.299  18.762  13.637  1.00  0.00     0.041 C 
BRANCH   5  10
HETATM   10  C5  UNL     1      16.553  17.474  15.754  1.00  0.00     0.246 C 
HETATM   11  N1  UNL     1      15.997  16.836  16.878  1.00  0.00    -0.359 N 
ATOM     12  H1  UNL     1      15.047  16.480  16.769  1.00  0.00     0.162 HD
HETATM   13  O1  UNL     1      17.704  17.926  15.764  1.00  0.00    -0.271 OA
BRANCH  11  14
HETATM   14  C4  UNL     1      16.599  16.629  18.144  1.00  0.00     0.126 C 
BRANCH  14  15
HETATM   15  C2  UNL     1      15.823  16.135  19.286  1.00  0.00    -0.005 C 
HETATM   16  C1  UNL     1      15.514  14.632  18.993  1.00  0.00     0.011 C 
HETATM   17  C3  UNL     1      16.356  16.168  20.661  1.00  0.00     0.011 C 
ENDBRANCH  14  15
ENDBRANCH  11  14
ENDBRANCH   5  10
ENDBRANCH   1   5
BRANCH   3  18
HETATM   18  C8  UNL     1      11.944  17.042  14.840  1.00  0.00     0.193 C 
HETATM   19  C9  UNL     1      11.352  16.486  16.086  1.00  0.00     0.120 C 
HETATM   20  C11 UNL     1      10.653  17.683  16.745  1.00  0.00     0.038 C 
HETATM   21  C12 UNL     1      11.252  18.900  16.106  1.00  0.00     0.127 C 
HETATM   22  N3  UNL     1      11.545  18.434  14.772  1.00  0.00    -0.342 N 
HETATM   23  C13 UNL     1      11.439  19.262  13.611  1.00  0.00     0.184 C 
HETATM   24  N4  UNL     1      11.550  20.557  13.702  1.00  0.00    -0.374 N 
HETATM   25  N5  UNL     1      11.210  18.606  12.384  1.00  0.00    -0.064 NA
ATOM     26  H42 UNL     1      11.715  21.032  14.590  1.00  0.00     0.158 HD
ATOM     27  H41 UNL     1      11.474  21.148  12.875  1.00  0.00     0.158 HD
BRANCH  19  28
HETATM   28  C10 UNL     1      12.266  15.914  17.043  1.00  0.00     0.179 C 
HETATM   29  O3  UNL     1      12.937  16.627  17.819  1.00  0.00    -0.648 OA
HETATM   30  O4  UNL     1      12.425  14.544  17.124  1.00  0.00    -0.648 OA
ENDBRANCH  19  28
ENDBRANCH   3  18
TORSDOF 6
ENDMDL
MODEL 4
REMARK VINA RESULT: -7.062515293      1.944      2.306
REMARK  6 active torsions:
REMARK  status: ('A' for Active; 'I' for Inactive)
REMARK    1  A    between atoms: C2_2  and  C4_4 
REMARK    2  A    between atoms: C4_4  and  N1_5 
REMARK       I    between atoms: N1_5  and  C5_7 
REMARK    3  A    between atoms: C5_7  and  C6_9 
REMARK    4  A    between atoms: C6_9  and  N2_10 
REMARK       I    between atoms: N2_10  and  C7_12 
REMARK    5  A    between atoms: C7_12  and  C8_14 
REMARK    6  A    between atoms: C9_15  and  C10_16 
REMARK       I    between atoms: N3_21  and  C13_22 
ROOT
HETATM    1  N2  UNL     1      13.725  17.021  15.912  1.00  0.00    -0.341 N 
ATOM      2  H2  UNL     1      13.393  17.963  16.121  1.00  0.00     0.163 HD
HETATM    3  C7  UNL     1      14.069  16.766  14.573  1.00  0.00     0.242 C 
HETATM    4  O2  UNL     1      14.477  15.607  14.316  1.00  0.00    -0.271 OA
ENDROOT
BRANCH   1   5
HETATM    5  C6  UNL     1      13.787  16.124  17.003  1.00  0.00     0.114 C 
HETATM    6  C14 UNL     1      13.015  16.604  18.216  1.00  0.00     0.041 C 
HETATM    7  C15 UNL     1      11.749  15.806  18.303  1.00  0.00     0.003 C 
HETATM    8  C16 UNL     1      11.611  15.265  16.898  1.00  0.00     0.003 C 
HETATM    9  C17 UNL     1      13.067  14.846  16.643  1.00  0.00     0.041 C 
BRANCH   5  10
HETATM   10  C5  UNL     1      15.181  15.845  17.502  1.00  0.00     0.246 C 
HETATM   11  N1  UNL     1      16.097  16.892  17.714  1.00  0.00    -0.359 N 
ATOM     12  H1  UNL     1      15.754  17.835  17.527  1.00  0.00     0.162 HD
HETATM   13  O1  UNL     1      15.480  14.665  17.716  1.00  0.00    -0.271 OA
BRANCH  11  14
HETATM   14  C4  UNL     1      17.439  16.795  18.157  1.00  0.00     0.126 C 
BRANCH  14  15
HETATM   15  C2  UNL     1      17.762  16.479  19.552  1.00  0.00    -0.005 C 
HETATM   16  C1  UNL     1      18.891  17.469  19.979  1.00  0.00     0.011 C 
HETATM   17  C3  UNL     1      16.747  16.550  20.620  1.00  0.00     0.011 C 
ENDBRANCH  14  15
ENDBRANCH  11  14
ENDBRANCH   5  10
ENDBRANCH   1   5
BRANCH   3  18
HETATM   18  C8  UNL     1      13.997  17.710  13.469  1.00  0.00     0.193 C 
HETATM   19  C9  UNL     1      12.709  18.430  13.285  1.00  0.00     0.120 C 
HETATM   20  C11 UNL     1      13.098  19.915  13.275  1.00  0.00     0.038 C 
HETATM   21  C12 UNL     1      14.463  19.976  13.893  1.00  0.00     0.127 C 
HETATM   22  N3  UNL     1      15.040  18.716  13.490  1.00  0.00    -0.342 N 
HETATM   23  C13 UNL     1      16.425  18.553  13.176  1.00  0.00     0.184 C 
HETATM   24  N4  UNL     1      17.323  19.353  13.677  1.00  0.00    -0.374 N 
HETATM   25  N5  UNL     1      16.756  17.494  12.305  1.00  0.00    -0.064 NA
ATOM     26  H42 UNL     1      17.084  20.120  14.307  1.00  0.00     0.158 HD
ATOM     27  H41 UNL     1      18.311  19.238  13.453  1.00  0.00     0.158 HD
BRANCH  19  28
HETATM   28  C10 UNL     1      11.702  18.235  14.299  1.00  0.00     0.179 C 
HETATM   29  O3  UNL     1      10.859  17.316  14.221  1.00  0.00    -0.648 OA
HETATM   30  O4  UNL     1      11.645  19.073  15.395  1.00  0.00    -0.648 OA
ENDBRANCH  19  28
ENDBRANCH   3  18
TORSDOF 6
ENDMDL
MODEL 5
REMARK VINA RESULT: -7.027822291      4.237      6.318
REMARK  6 active torsions:
REMARK  status: ('A' for Active; 'I' for Inactive)
REMARK    1  A    between atoms: C2_2  and  C4_4 
REMARK    2  A    between atoms: C4_4  and  N1_5 
REMARK       I    between atoms: N1_5  and  C5_7 
REMARK    3  A    between atoms: C5_7  and  C6_9 
REMARK    4  A    between atoms: C6_9  and  N2_10 
REMARK       I    between atoms: N2_10  and  C7_12 
REMARK    5  A    between atoms: C7_12  and  C8_14 
REMARK    6  A    between atoms: C9_15  and  C10_16 
REMARK       I    between atoms: N3_21  and  C13_22 
ROOT
HETATM    1  N2  UNL     1       9.240  18.440  13.308  1.00  0.00    -0.341 N 
ATOM      2  H2  UNL     1       8.722  19.306  13.163  1.00  0.00     0.163 HD
HETATM    3  C7  UNL     1       8.862  17.349  12.505  1.00  0.00     0.242 C 
HETATM    4  O2  UNL     1       9.499  16.282  12.685  1.00  0.00    -0.271 OA
ENDROOT
BRANCH   1   5
HETATM    5  C6  UNL     1      10.254  18.474  14.291  1.00  0.00     0.114 C 
HETATM    6  C14 UNL     1      11.653  18.517  13.707  1.00  0.00     0.041 C 
HETATM    7  C15 UNL     1      12.175  19.913  13.862  1.00  0.00     0.003 C 
HETATM    8  C16 UNL     1      10.909  20.711  14.068  1.00  0.00     0.003 C 
HETATM    9  C17 UNL     1      10.177  19.781  15.046  1.00  0.00     0.041 C 
BRANCH   5  10
HETATM   10  C5  UNL     1      10.252  17.298  15.232  1.00  0.00     0.246 C 
HETATM   11  N1  UNL     1      11.342  16.410  15.284  1.00  0.00    -0.359 N 
ATOM     12  H1  UNL     1      12.126  16.624  14.666  1.00  0.00     0.162 HD
HETATM   13  O1  UNL     1       9.257  17.150  15.950  1.00  0.00    -0.271 OA
BRANCH  11  14
HETATM   14  C4  UNL     1      11.483  15.254  16.091  1.00  0.00     0.126 C 
BRANCH  14  15
HETATM   15  C2  UNL     1      11.722  15.356  17.535  1.00  0.00    -0.005 C 
HETATM   16  C1  UNL     1      12.684  14.184  17.907  1.00  0.00     0.011 C 
HETATM   17  C3  UNL     1      12.316  16.562  18.141  1.00  0.00     0.011 C 
ENDBRANCH  14  15
ENDBRANCH  11  14
ENDBRANCH   5  10
ENDBRANCH   1   5
BRANCH   3  18
HETATM   18  C8  UNL     1       7.815  17.341  11.498  1.00  0.00     0.193 C 
HETATM   19  C9  UNL     1       7.431  18.656  10.917  1.00  0.00     0.120 C 
HETATM   20  C11 UNL     1       7.570  18.460   9.401  1.00  0.00     0.038 C 
HETATM   21  C12 UNL     1       8.432  17.246   9.230  1.00  0.00     0.127 C 
HETATM   22  N3  UNL     1       8.080  16.452  10.383  1.00  0.00    -0.342 N 
HETATM   23  C13 UNL     1       8.020  15.024  10.363  1.00  0.00     0.184 C 
HETATM   24  N4  UNL     1       8.720  14.338   9.505  1.00  0.00    -0.374 N 
HETATM   25  N5  UNL     1       7.173  14.413  11.311  1.00  0.00    -0.064 NA
ATOM     26  H42 UNL     1       9.332  14.780   8.819  1.00  0.00     0.158 HD
ATOM     27  H41 UNL     1       8.677  13.319   9.490  1.00  0.00     0.158 HD
BRANCH  19  28
HETATM   28  C10 UNL     1       8.229  19.794  11.300  1.00  0.00     0.179 C 
HETATM   29  O3  UNL     1       7.842  20.610  12.163  1.00  0.00    -0.648 OA
HETATM   30  O4  UNL     1       9.459  20.013  10.710  1.00  0.00    -0.648 OA
ENDBRANCH  19  28
ENDBRANCH   3  18
TORSDOF 6
ENDMDL
