MODEL 1
REMARK VINA RESULT: -6.679398952      0.000      0.000
REMARK  7 active torsions:
REMARK  status: ('A' for Active; 'I' for Inactive)
REMARK    1  A    between atoms: O1_1  and  C1_3 
REMARK    2  A    between atoms: C1_3  and  C2_4 
REMARK    3  A    between atoms: C4_6  and  N1_7 
REMARK    4  A    between atoms: N1_7  and  C5_10 
REMARK    5  A    between atoms: C12_17  and  O2_18 
REMARK    6  A    between atoms: C13_20  and  O3_21 
REMARK    7  A    between atoms: C14_23  and  O4_24 
ROOT
HETATM    1  C2  UNL     1      16.883  16.882  21.502  1.00  0.00     0.043 C 
HETATM    2  C3  UNL     1      16.298  16.182  20.283  1.00  0.00     0.045 C 
HETATM    3  C4  UNL     1      16.952  16.811  19.085  1.00  0.00     0.218 C 
HETATM    4  C12 UNL     1      18.431  16.668  19.098  1.00  0.00     0.180 C 
HETATM    5  C13 UNL     1      19.129  16.683  20.398  1.00  0.00     0.178 C 
HETATM    6  C14 UNL     1      18.305  16.471  21.624  1.00  0.00     0.155 C 
ENDROOT
BRANCH   3   7
HETATM    7  N1  UNL     1      16.482  16.151  17.852  1.00  0.00    -0.064 N 
ATOM      8  H12 UNL     1      17.242  15.657  17.385  1.00  0.00     0.278 HD
ATOM      9  H11 UNL     1      15.880  15.356  18.066  1.00  0.00     0.278 HD
BRANCH   7  10
HETATM   10  C5  UNL     1      15.835  17.064  16.962  1.00  0.00     0.191 C 
HETATM   11  C6  UNL     1      16.454  17.174  15.598  1.00  0.00     0.038 C 
HETATM   12  C7  UNL     1      15.331  16.971  14.603  1.00  0.00    -0.012 C 
HETATM   13  C8  UNL     1      14.989  15.514  14.565  1.00  0.00     0.005 C 
HETATM   14  C11 UNL     1      14.143  17.489  15.433  1.00  0.00     0.011 C 
HETATM   15  C9  UNL     1      14.556  15.253  16.012  1.00  0.00     0.007 C 
HETATM   16  C10 UNL     1      14.427  16.614  16.647  1.00  0.00     0.017 C 
ENDBRANCH   7  10
ENDBRANCH   3   7
BRANCH   4  17
HETATM   17  O2  UNL     1      18.955  17.678  18.290  1.00  0.00    -0.391 OA
ATOM     18  H2  UNL     1      19.237  18.382  18.863  1.00  0.00     0.210 HD
ENDBRANCH   4  17
BRANCH   1  19
HETATM   19  C1  UNL     1      16.138  16.333  22.723  1.00  0.00     0.171 C 
BRANCH  19  20
HETATM   20  O1  UNL     1      16.278  17.216  23.784  1.00  0.00    -0.400 OA
ATOM     21  H1  UNL     1      16.905  16.865  24.406  1.00  0.00     0.209 HD
ENDBRANCH  19  20
ENDBRANCH   1  19
BRANCH   5  22
HETATM   22  O3  UNL     1      19.861  17.870  20.562  1.00  0.00    -0.390 OA
ATOM     23  H3  UNL     1      20.390  17.838  21.351  1.00  0.00     0.210 HD
ENDBRANCH   5  22
BRANCH   6  24
HETATM   24  O4  UNL     1      18.870  17.214  22.672  1.00  0.00    -0.392 OA
ATOM     25  H4  UNL     1      18.868  18.126  22.408  1.00  0.00     0.210 HD
ENDBRANCH   6  24
TORSDOF 7
ENDMDL
MODEL 2
REMARK VINA RESULT: -6.332893110      2.851      4.326
REMARK  7 active torsions:
REMARK  status: ('A' for Active; 'I' for Inactive)
REMARK    1  A    between atoms: O1_1  and  C1_3 
REMARK    2  A    between atoms: C1_3  and  C2_4 
REMARK    3  A    between atoms: C4_6  and  N1_7 
REMARK    4  A    between atoms: N1_7  and  C5_10 
REMARK    5  A    between atoms: C12_17  and  O2_18 
REMARK    6  A    between atoms: C13_20  and  O3_21 
REMARK    7  A    between atoms: C14_23  and  O4_24 
ROOT
HETATM    1  C2  UNL     1      16.722  16.133  18.666  1.00  0.00     0.043 C 
HETATM    2  C3  UNL     1      16.646  17.013  17.426  1.00  0.00     0.045 C 
HETATM    3  C4  UNL     1      15.682  16.337  16.492  1.00  0.00     0.218 C 
HETATM    4  C12 UNL     1      14.330  16.169  17.086  1.00  0.00     0.180 C 
HETATM    5  C13 UNL     1      14.223  15.929  18.538  1.00  0.00     0.178 C 
HETATM    6  C14 UNL     1      15.420  16.231  19.375  1.00  0.00     0.155 C 
ENDROOT
BRANCH   3   7
HETATM    7  N1  UNL     1      15.503  17.154  15.277  1.00  0.00    -0.064 N 
ATOM      8  H12 UNL     1      14.575  17.020  14.876  1.00  0.00     0.278 HD
ATOM      9  H11 UNL     1      15.439  18.145  15.507  1.00  0.00     0.278 HD
BRANCH   7  10
HETATM   10  C5  UNL     1      16.525  16.913  14.307  1.00  0.00     0.191 C 
HETATM   11  C6  UNL     1      16.040  16.402  12.980  1.00  0.00     0.038 C 
HETATM   12  C7  UNL     1      16.649  17.304  11.927  1.00  0.00    -0.012 C 
HETATM   13  C8  UNL     1      15.912  18.608  11.937  1.00  0.00     0.005 C 
HETATM   14  C11 UNL     1      17.935  17.734  12.657  1.00  0.00     0.011 C 
HETATM   15  C9  UNL     1      16.166  19.105  13.364  1.00  0.00     0.007 C 
HETATM   16  C10 UNL     1      17.229  18.195  13.926  1.00  0.00     0.017 C 
ENDBRANCH   7  10
ENDBRANCH   3   7
BRANCH   4  17
HETATM   17  O2  UNL     1      13.702  15.124  16.407  1.00  0.00    -0.391 OA
ATOM     18  H2  UNL     1      12.846  15.003  16.801  1.00  0.00     0.210 HD
ENDBRANCH   4  17
BRANCH   1  19
HETATM   19  C1  UNL     1      17.790  16.748  19.575  1.00  0.00     0.171 C 
BRANCH  19  20
HETATM   20  O1  UNL     1      19.006  16.774  18.906  1.00  0.00    -0.400 OA
ATOM     21  H1  UNL     1      19.279  17.676  18.783  1.00  0.00     0.209 HD
ENDBRANCH  19  20
ENDBRANCH   1  19
BRANCH   5  22
HETATM   22  O3  UNL     1      13.826  14.609  18.802  1.00  0.00    -0.390 OA
ATOM     23  H3  UNL     1      14.279  14.261  19.561  1.00  0.00     0.210 HD
ENDBRANCH   5  22
BRANCH   6  24
HETATM   24  O4  UNL     1      15.454  15.325  20.445  1.00  0.00    -0.392 OA
ATOM     25  H4  UNL     1      14.664  14.799  20.399  1.00  0.00     0.210 HD
ENDBRANCH   6  24
TORSDOF 7
ENDMDL
MODEL 3
REMARK VINA RESULT: -6.255812780      3.461      5.035
REMARK  7 active torsions:
REMARK  status: ('A' for Active; 'I' for Inactive)
REMARK    1  A    between atoms: O1_1  and  C1_3 
REMARK    2  A    between atoms: C1_3  and  C2_4 
REMARK    3  A    between atoms: C4_6  and  N1_7 
REMARK    4  A    between atoms: N1_7  and  C5_10 
REMARK    5  A    between atoms: C12_17  and  O2_18 
REMARK    6  A    between atoms: C13_20  and  O3_21 
REMARK    7  A    between atoms: C14_23  and  O4_24 
ROOT
HETATM    1  C2  UNL     1      15.627  15.926  17.618  1.00  0.00     0.043 C 
HETATM    2  C3  UNL     1      15.038  16.706  16.451  1.00  0.00     0.045 C 
HETATM    3  C4  UNL     1      14.054  15.784  15.787  1.00  0.00     0.218 C 
HETATM    4  C12 UNL     1      12.973  15.341  16.705  1.00  0.00     0.180 C 
HETATM    5  C13 UNL     1      13.295  15.152  18.133  1.00  0.00     0.178 C 
HETATM    6  C14 UNL     1      14.560  15.758  18.639  1.00  0.00     0.155 C 
ENDROOT
BRANCH   3   7
HETATM    7  N1  UNL     1      13.389  16.481  14.670  1.00  0.00    -0.064 N 
ATOM      8  H12 UNL     1      13.526  15.983  13.790  1.00  0.00     0.278 HD
ATOM      9  H11 UNL     1      12.375  16.408  14.741  1.00  0.00     0.278 HD
BRANCH   7  10
HETATM   10  C5  UNL     1      13.802  17.846  14.560  1.00  0.00     0.191 C 
HETATM   11  C6  UNL     1      14.314  18.253  13.207  1.00  0.00     0.038 C 
HETATM   12  C7  UNL     1      13.547  19.499  12.819  1.00  0.00    -0.012 C 
HETATM   13  C8  UNL     1      12.163  19.097  12.411  1.00  0.00     0.005 C 
HETATM   14  C11 UNL     1      13.243  20.071  14.215  1.00  0.00     0.011 C 
HETATM   15  C9  UNL     1      11.632  18.447  13.693  1.00  0.00     0.007 C 
HETATM   16  C10 UNL     1      12.637  18.787  14.766  1.00  0.00     0.017 C 
ENDBRANCH   7  10
ENDBRANCH   3   7
BRANCH   4  17
HETATM   17  O2  UNL     1      12.455  14.149  16.196  1.00  0.00    -0.391 OA
ATOM     18  H2  UNL     1      12.002  14.359  15.387  1.00  0.00     0.210 HD
ENDBRANCH   4  17
BRANCH   1  19
HETATM   19  C1  UNL     1      16.717  16.811  18.231  1.00  0.00     0.171 C 
BRANCH  19  20
HETATM   20  O1  UNL     1      17.665  16.011  18.854  1.00  0.00    -0.400 OA
ATOM     21  H1  UNL     1      17.456  15.096  18.701  1.00  0.00     0.209 HD
ENDBRANCH  19  20
ENDBRANCH   1  19
BRANCH   5  22
HETATM   22  O3  UNL     1      13.296  13.790  18.472  1.00  0.00    -0.390 OA
ATOM     23  H3  UNL     1      13.324  13.244  17.695  1.00  0.00     0.210 HD
ENDBRANCH   5  22
BRANCH   6  24
HETATM   24  O4  UNL     1      15.073  14.935  19.652  1.00  0.00    -0.392 OA
ATOM     25  H4  UNL     1      15.284  15.491  20.393  1.00  0.00     0.210 HD
ENDBRANCH   6  24
TORSDOF 7
ENDMDL
MODEL 4
REMARK VINA RESULT: -6.088982360      1.405      2.194
REMARK  7 active torsions:
REMARK  status: ('A' for Active; 'I' for Inactive)
REMARK    1  A    between atoms: O1_1  and  C1_3 
REMARK    2  A    between atoms: C1_3  and  C2_4 
REMARK    3  A    between atoms: C4_6  and  N1_7 
REMARK    4  A    between atoms: N1_7  and  C5_10 
REMARK    5  A    between atoms: C12_17  and  O2_18 
REMARK    6  A    between atoms: C13_20  and  O3_21 
REMARK    7  A    between atoms: C14_23  and  O4_24 
ROOT
HETATM    1  C2  UNL     1      17.047  16.975  19.816  1.00  0.00     0.043 C 
HETATM    2  C3  UNL     1      16.214  16.029  18.961  1.00  0.00     0.045 C 
HETATM    3  C4  UNL     1      16.153  16.647  17.593  1.00  0.00     0.218 C 
HETATM    4  C12 UNL     1      17.498  16.835  16.989  1.00  0.00     0.180 C 
HETATM    5  C13 UNL     1      18.632  17.151  17.878  1.00  0.00     0.178 C 
HETATM    6  C14 UNL     1      18.451  16.904  19.337  1.00  0.00     0.155 C 
ENDROOT
BRANCH   3   7
HETATM    7  N1  UNL     1      15.407  15.764  16.677  1.00  0.00    -0.064 N 
ATOM      8  H12 UNL     1      15.964  15.528  15.856  1.00  0.00     0.278 HD
ATOM      9  H11 UNL     1      15.298  14.830  17.072  1.00  0.00     0.278 HD
BRANCH   7  10
HETATM   10  C5  UNL     1      14.142  16.317  16.302  1.00  0.00     0.191 C 
HETATM   11  C6  UNL     1      14.199  17.692  15.699  1.00  0.00     0.038 C 
HETATM   12  C7  UNL     1      13.424  17.620  14.401  1.00  0.00    -0.012 C 
HETATM   13  C8  UNL     1      14.265  16.908  13.386  1.00  0.00     0.005 C 
HETATM   14  C11 UNL     1      12.432  16.494  14.744  1.00  0.00     0.011 C 
HETATM   15  C9  UNL     1      14.456  15.536  14.041  1.00  0.00     0.007 C 
HETATM   16  C10 UNL     1      13.496  15.504  15.203  1.00  0.00     0.017 C 
ENDBRANCH   7  10
ENDBRANCH   3   7
BRANCH   4  17
HETATM   17  O2  UNL     1      17.385  17.837  16.023  1.00  0.00    -0.391 OA
ATOM     18  H2  UNL     1      18.265  18.060  15.741  1.00  0.00     0.210 HD
ENDBRANCH   4  17
BRANCH   1  19
HETATM   19  C1  UNL     1      17.017  16.417  21.243  1.00  0.00     0.171 C 
BRANCH  19  20
HETATM   20  O1  UNL     1      15.723  16.028  21.559  1.00  0.00    -0.400 OA
ATOM     21  H1  UNL     1      15.670  15.834  22.488  1.00  0.00     0.209 HD
ENDBRANCH  19  20
ENDBRANCH   1  19
BRANCH   5  22
HETATM   22  O3  UNL     1      19.050  18.481  17.707  1.00  0.00    -0.390 OA
ATOM     23  H3  UNL     1      19.309  18.644  16.808  1.00  0.00     0.210 HD
ENDBRANCH   5  22
BRANCH   6  24
HETATM   24  O4  UNL     1      19.187  17.867  20.045  1.00  0.00    -0.392 OA
ATOM     25  H4  UNL     1      19.289  17.550  20.935  1.00  0.00     0.210 HD
ENDBRANCH   6  24
TORSDOF 7
ENDMDL
MODEL 5
REMARK VINA RESULT: -6.068915396      2.774      4.439
REMARK  7 active torsions:
REMARK  status: ('A' for Active; 'I' for Inactive)
REMARK    1  A    between atoms: O1_1  and  C1_3 
REMARK    2  A    between atoms: C1_3  and  C2_4 
REMARK    3  A    between atoms: C4_6  and  N1_7 
REMARK    4  A    between atoms: N1_7  and  C5_10 
REMARK    5  A    between atoms: C12_17  and  O2_18 
REMARK    6  A    between atoms: C13_20  and  O3_21 
REMARK    7  A    between atoms: C14_23  and  O4_24 
ROOT
HETATM    1  C2  UNL     1      17.017  16.590  17.340  1.00  0.00     0.043 C 
HETATM    2  C3  UNL     1      16.096  17.155  16.266  1.00  0.00     0.045 C 
HETATM    3  C4  UNL     1      14.970  16.171  16.123  1.00  0.00     0.218 C 
HETATM    4  C12 UNL     1      14.219  15.971  17.390  1.00  0.00     0.180 C 
HETATM    5  C13 UNL     1      14.956  16.049  18.666  1.00  0.00     0.178 C 
HETATM    6  C14 UNL     1      16.308  16.679  18.642  1.00  0.00     0.155 C 
ENDROOT
BRANCH   3   7
HETATM    7  N1  UNL     1      13.993  16.668  15.136  1.00  0.00    -0.064 N 
ATOM      8  H12 UNL     1      13.908  16.028  14.346  1.00  0.00     0.278 HD
ATOM      9  H11 UNL     1      13.041  16.606  15.497  1.00  0.00     0.278 HD
BRANCH   7  10
HETATM   10  C5  UNL     1      14.294  17.994  14.696  1.00  0.00     0.191 C 
HETATM   11  C6  UNL     1      14.516  18.144  13.218  1.00  0.00     0.038 C 
HETATM   12  C7  UNL     1      13.615  19.273  12.763  1.00  0.00    -0.012 C 
HETATM   13  C8  UNL     1      12.207  18.766  12.718  1.00  0.00     0.005 C 
HETATM   14  C11 UNL     1      13.546  20.097  14.062  1.00  0.00     0.011 C 
HETATM   15  C9  UNL     1      11.967  18.365  14.177  1.00  0.00     0.007 C 
HETATM   16  C10 UNL     1      13.133  18.929  14.949  1.00  0.00     0.017 C 
ENDBRANCH   7  10
ENDBRANCH   3   7
BRANCH   4  17
HETATM   17  O2  UNL     1      13.586  14.729  17.308  1.00  0.00    -0.391 OA
ATOM     18  H2  UNL     1      13.407  14.442  18.196  1.00  0.00     0.210 HD
ENDBRANCH   4  17
BRANCH   1  19
HETATM   19  C1  UNL     1      18.231  17.523  17.411  1.00  0.00     0.171 C 
BRANCH  19  20
HETATM   20  O1  UNL     1      19.366  16.781  17.705  1.00  0.00    -0.400 OA
ATOM     21  H1  UNL     1      19.477  16.100  17.052  1.00  0.00     0.209 HD
ENDBRANCH  19  20
ENDBRANCH   1  19
BRANCH   5  22
HETATM   22  O3  UNL     1      15.074  14.781  19.258  1.00  0.00    -0.390 OA
ATOM     23  H3  UNL     1      15.151  14.102  18.598  1.00  0.00     0.210 HD
ENDBRANCH   5  22
BRANCH   6  24
HETATM   24  O4  UNL     1      17.110  16.046  19.603  1.00  0.00    -0.392 OA
ATOM     25  H4  UNL     1      17.903  16.561  19.698  1.00  0.00     0.210 HD
ENDBRANCH   6  24
TORSDOF 7
ENDMDL
