MODEL 1
REMARK VINA RESULT: -6.792422223      0.000      0.000
REMARK  6 active torsions:
REMARK  status: ('A' for Active; 'I' for Inactive)
REMARK    1  A    between atoms: O1_1  and  N1_3 
REMARK       I    between atoms: C1_5  and  N2_6 
REMARK       I    between atoms: C1_5  and  N3_18 
REMARK    2  A    between atoms: N2_6  and  C2_8 
REMARK    3  A    between atoms: C2_8  and  C3_9 
REMARK    4  A    between atoms: C5_12  and  O3_13 
REMARK    5  A    between atoms: C6_15  and  O4_16 
REMARK    6  A    between atoms: N3_18  and  C7_20 
ROOT
HETATM    1  N1  UNL     1      13.135  15.932  18.613  1.00  0.00    -0.099 N 
ATOM      2  H1  UNL     1      13.261  16.548  19.416  1.00  0.00     0.213 HD
HETATM    3  C1  UNL     1      14.052  15.922  17.734  1.00  0.00     0.694 C 
HETATM    4  N2  UNL     1      13.938  15.089  16.598  1.00  0.00    -0.222 N 
ATOM      5  H2  UNL     1      13.200  14.386  16.589  1.00  0.00     0.177 HD
HETATM    6  N3  UNL     1      15.197  16.748  17.890  1.00  0.00    -0.220 N 
ATOM      7  H3  UNL     1      15.195  17.698  17.519  1.00  0.00     0.178 HD
ENDROOT
BRANCH   1   8
HETATM    8  O1  UNL     1      12.001  15.189  18.569  1.00  0.00    -0.276 OA
ATOM      9  H1  UNL     1      11.819  14.433  19.115  1.00  0.00     0.245 HD
ENDBRANCH   1   8
BRANCH   4  10
HETATM   10  C2  UNL     1      14.808  15.180  15.454  1.00  0.00     0.172 C 
BRANCH  10  11
HETATM   11  C3  UNL     1      14.111  15.775  14.267  1.00  0.00     0.171 C 
HETATM   12  O2  UNL     1      14.850  15.722  13.112  1.00  0.00    -0.379 OA
HETATM   13  C4  UNL     1      15.831  16.702  13.211  1.00  0.00     0.202 C 
HETATM   14  C5  UNL     1      15.248  17.816  14.048  1.00  0.00     0.173 C 
HETATM   15  C6  UNL     1      13.880  17.266  14.437  1.00  0.00     0.179 C 
BRANCH  14  16
HETATM   16  O3  UNL     1      16.023  18.076  15.169  1.00  0.00    -0.391 OA
ATOM     17  H3  UNL     1      16.247  18.997  15.236  1.00  0.00     0.210 HD
ENDBRANCH  14  16
BRANCH  15  18
HETATM   18  O4  UNL     1      12.895  17.708  13.555  1.00  0.00    -0.390 OA
ATOM     19  H4  UNL     1      13.154  18.530  13.156  1.00  0.00     0.210 HD
ENDBRANCH  15  18
ENDBRANCH  10  11
ENDBRANCH   4  10
BRANCH   6  20
HETATM   20  C7  UNL     1      16.386  16.236  18.585  1.00  0.00     0.099 C 
HETATM   21  C8  UNL     1      17.648  16.753  18.007  1.00  0.00     0.026 C 
HETATM   22  C9  UNL     1      18.504  17.534  18.959  1.00  0.00     0.002 C 
HETATM   23  C10 UNL     1      18.635  16.931  20.309  1.00  0.00     0.000 C 
HETATM   24  C11 UNL     1      17.498  16.079  20.743  1.00  0.00     0.002 C 
HETATM   25  C12 UNL     1      16.226  16.520  20.057  1.00  0.00     0.026 C 
ENDBRANCH   6  20
TORSDOF 6
ENDMDL
MODEL 2
REMARK VINA RESULT: -6.732670629      1.522      2.228
REMARK  6 active torsions:
REMARK  status: ('A' for Active; 'I' for Inactive)
REMARK    1  A    between atoms: O1_1  and  N1_3 
REMARK       I    between atoms: C1_5  and  N2_6 
REMARK       I    between atoms: C1_5  and  N3_18 
REMARK    2  A    between atoms: N2_6  and  C2_8 
REMARK    3  A    between atoms: C2_8  and  C3_9 
REMARK    4  A    between atoms: C5_12  and  O3_13 
REMARK    5  A    between atoms: C6_15  and  O4_16 
REMARK    6  A    between atoms: N3_18  and  C7_20 
ROOT
HETATM    1  N1  UNL     1      14.276  13.944  19.356  1.00  0.00    -0.099 N 
ATOM      2  H1  UNL     1      14.326  13.828  20.368  1.00  0.00     0.213 HD
HETATM    3  C1  UNL     1      14.758  15.012  18.866  1.00  0.00     0.694 C 
HETATM    4  N2  UNL     1      14.721  15.231  17.470  1.00  0.00    -0.222 N 
ATOM      5  H2  UNL     1      14.459  14.452  16.866  1.00  0.00     0.177 HD
HETATM    6  N3  UNL     1      15.337  15.990  19.718  1.00  0.00    -0.220 N 
ATOM      7  H3  UNL     1      14.755  16.729  20.114  1.00  0.00     0.178 HD
ENDROOT
BRANCH   1   8
HETATM    8  O1  UNL     1      13.701  12.944  18.642  1.00  0.00    -0.276 OA
ATOM      9  H1  UNL     1      13.217  12.215  19.012  1.00  0.00     0.245 HD
ENDBRANCH   1   8
BRANCH   4  10
HETATM   10  C2  UNL     1      15.032  16.496  16.855  1.00  0.00     0.172 C 
BRANCH  10  11
HETATM   11  C3  UNL     1      15.121  16.385  15.362  1.00  0.00     0.171 C 
HETATM   12  O2  UNL     1      14.780  17.541  14.705  1.00  0.00    -0.379 OA
HETATM   13  C4  UNL     1      13.395  17.647  14.761  1.00  0.00     0.202 C 
HETATM   14  C5  UNL     1      12.853  16.237  14.782  1.00  0.00     0.173 C 
HETATM   15  C6  UNL     1      14.119  15.389  14.809  1.00  0.00     0.179 C 
BRANCH  14  16
HETATM   16  O3  UNL     1      12.067  16.006  15.903  1.00  0.00    -0.391 OA
ATOM     17  H3  UNL     1      12.035  16.766  16.472  1.00  0.00     0.210 HD
ENDBRANCH  14  16
BRANCH  15  18
HETATM   18  O4  UNL     1      14.484  14.995  13.523  1.00  0.00    -0.390 OA
ATOM     19  H4  UNL     1      13.942  14.272  13.232  1.00  0.00     0.210 HD
ENDBRANCH  15  18
ENDBRANCH  10  11
ENDBRANCH   4  10
BRANCH   6  20
HETATM   20  C7  UNL     1      16.771  15.940  20.030  1.00  0.00     0.099 C 
HETATM   21  C8  UNL     1      17.610  16.457  18.924  1.00  0.00     0.026 C 
HETATM   22  C9  UNL     1      18.466  17.636  19.280  1.00  0.00     0.002 C 
HETATM   23  C10 UNL     1      19.155  17.526  20.591  1.00  0.00     0.000 C 
HETATM   24  C11 UNL     1      18.479  16.671  21.600  1.00  0.00     0.002 C 
HETATM   25  C12 UNL     1      16.990  16.644  21.344  1.00  0.00     0.026 C 
ENDBRANCH   6  20
TORSDOF 6
ENDMDL
MODEL 3
REMARK VINA RESULT: -6.397687472      2.126      3.687
REMARK  6 active torsions:
REMARK  status: ('A' for Active; 'I' for Inactive)
REMARK    1  A    between atoms: O1_1  and  N1_3 
REMARK       I    between atoms: C1_5  and  N2_6 
REMARK       I    between atoms: C1_5  and  N3_18 
REMARK    2  A    between atoms: N2_6  and  C2_8 
REMARK    3  A    between atoms: C2_8  and  C3_9 
REMARK    4  A    between atoms: C5_12  and  O3_13 
REMARK    5  A    between atoms: C6_15  and  O4_16 
REMARK    6  A    between atoms: N3_18  and  C7_20 
ROOT
HETATM    1  N1  UNL     1      18.475  18.356  16.024  1.00  0.00    -0.099 N 
ATOM      2  H1  UNL     1      19.302  18.399  16.618  1.00  0.00     0.213 HD
HETATM    3  C1  UNL     1      17.579  17.508  16.329  1.00  0.00     0.694 C 
HETATM    4  N2  UNL     1      16.408  17.401  15.545  1.00  0.00    -0.222 N 
ATOM      5  H2  UNL     1      16.226  18.122  14.848  1.00  0.00     0.177 HD
HETATM    6  N3  UNL     1      17.752  16.665  17.459  1.00  0.00    -0.220 N 
ATOM      7  H3  UNL     1      18.219  15.764  17.356  1.00  0.00     0.178 HD
ENDROOT
BRANCH   1   8
HETATM    8  O1  UNL     1      18.419  19.210  14.971  1.00  0.00    -0.276 OA
ATOM      9  H1  UNL     1      19.048  19.897  14.789  1.00  0.00     0.245 HD
ENDBRANCH   1   8
BRANCH   4  10
HETATM   10  C2  UNL     1      15.457  16.327  15.680  1.00  0.00     0.172 C 
BRANCH  10  11
HETATM   11  C3  UNL     1      14.062  16.838  15.881  1.00  0.00     0.171 C 
HETATM   12  O2  UNL     1      13.374  16.182  16.872  1.00  0.00    -0.379 OA
HETATM   13  C4  UNL     1      13.004  14.944  16.360  1.00  0.00     0.202 C 
HETATM   14  C5  UNL     1      12.803  15.132  14.875  1.00  0.00     0.173 C 
HETATM   15  C6  UNL     1      13.189  16.592  14.663  1.00  0.00     0.179 C 
BRANCH  14  16
HETATM   16  O3  UNL     1      13.617  14.285  14.136  1.00  0.00    -0.391 OA
ATOM     17  H3  UNL     1      13.591  14.492  13.209  1.00  0.00     0.210 HD
ENDBRANCH  14  16
BRANCH  15  18
HETATM   18  O4  UNL     1      12.065  17.415  14.697  1.00  0.00    -0.390 OA
ATOM     19  H4  UNL     1      11.326  16.951  15.072  1.00  0.00     0.210 HD
ENDBRANCH  15  18
ENDBRANCH  10  11
ENDBRANCH   4  10
BRANCH   6  20
HETATM   20  C7  UNL     1      17.258  17.088  18.776  1.00  0.00     0.099 C 
HETATM   21  C8  UNL     1      15.959  16.466  19.121  1.00  0.00     0.026 C 
HETATM   22  C9  UNL     1      15.971  15.630  20.366  1.00  0.00     0.002 C 
HETATM   23  C10 UNL     1      16.700  16.235  21.510  1.00  0.00     0.000 C 
HETATM   24  C11 UNL     1      17.788  17.179  21.148  1.00  0.00     0.002 C 
HETATM   25  C12 UNL     1      18.346  16.834  19.787  1.00  0.00     0.026 C 
ENDBRANCH   6  20
TORSDOF 6
ENDMDL
MODEL 4
REMARK VINA RESULT: -6.185620992      2.004      3.618
REMARK  6 active torsions:
REMARK  status: ('A' for Active; 'I' for Inactive)
REMARK    1  A    between atoms: O1_1  and  N1_3 
REMARK       I    between atoms: C1_5  and  N2_6 
REMARK       I    between atoms: C1_5  and  N3_18 
REMARK    2  A    between atoms: N2_6  and  C2_8 
REMARK    3  A    between atoms: C2_8  and  C3_9 
REMARK    4  A    between atoms: C5_12  and  O3_13 
REMARK    5  A    between atoms: C6_15  and  O4_16 
REMARK    6  A    between atoms: N3_18  and  C7_20 
ROOT
HETATM    1  N1  UNL     1      18.488  18.197  16.096  1.00  0.00    -0.099 N 
ATOM      2  H1  UNL     1      19.356  18.119  16.626  1.00  0.00     0.213 HD
HETATM    3  C1  UNL     1      17.507  17.484  16.474  1.00  0.00     0.694 C 
HETATM    4  N2  UNL     1      16.276  17.547  15.781  1.00  0.00    -0.222 N 
ATOM      5  H2  UNL     1      16.148  18.289  15.094  1.00  0.00     0.177 HD
HETATM    6  N3  UNL     1      17.642  16.621  17.594  1.00  0.00    -0.220 N 
ATOM      7  H3  UNL     1      17.967  15.663  17.463  1.00  0.00     0.178 HD
ENDROOT
BRANCH   1   8
HETATM    8  O1  UNL     1      18.475  19.053  15.044  1.00  0.00    -0.276 OA
ATOM      9  H1  UNL     1      19.129  19.085  14.355  1.00  0.00     0.245 HD
ENDBRANCH   1   8
BRANCH   4  10
HETATM   10  C2  UNL     1      15.195  16.620  15.995  1.00  0.00     0.172 C 
BRANCH  10  11
HETATM   11  C3  UNL     1      14.702  16.030  14.707  1.00  0.00     0.171 C 
HETATM   12  O2  UNL     1      13.902  16.880  13.984  1.00  0.00    -0.379 OA
HETATM   13  C4  UNL     1      12.664  16.909  14.615  1.00  0.00     0.202 C 
HETATM   14  C5  UNL     1      12.471  15.552  15.252  1.00  0.00     0.173 C 
HETATM   15  C6  UNL     1      13.785  14.844  14.944  1.00  0.00     0.179 C 
BRANCH  14  16
HETATM   16  O3  UNL     1      12.260  15.653  16.620  1.00  0.00    -0.391 OA
ATOM     17  H3  UNL     1      12.464  16.522  16.944  1.00  0.00     0.210 HD
ENDBRANCH  14  16
BRANCH  15  18
HETATM   18  O4  UNL     1      13.679  14.073  13.788  1.00  0.00    -0.390 OA
ATOM     19  H4  UNL     1      12.791  13.754  13.684  1.00  0.00     0.210 HD
ENDBRANCH  15  18
ENDBRANCH  10  11
ENDBRANCH   4  10
BRANCH   6  20
HETATM   20  C7  UNL     1      17.314  17.106  18.941  1.00  0.00     0.099 C 
HETATM   21  C8  UNL     1      16.032  16.562  19.443  1.00  0.00     0.026 C 
HETATM   22  C9  UNL     1      16.139  15.762  20.708  1.00  0.00     0.002 C 
HETATM   23  C10 UNL     1      17.015  16.361  21.746  1.00  0.00     0.000 C 
HETATM   24  C11 UNL     1      18.101  17.238  21.239  1.00  0.00     0.002 C 
HETATM   25  C12 UNL     1      18.492  16.826  19.839  1.00  0.00     0.026 C 
ENDBRANCH   6  20
TORSDOF 6
ENDMDL
MODEL 5
REMARK VINA RESULT: -6.069832612      2.420      3.982
REMARK  6 active torsions:
REMARK  status: ('A' for Active; 'I' for Inactive)
REMARK    1  A    between atoms: O1_1  and  N1_3 
REMARK       I    between atoms: C1_5  and  N2_6 
REMARK       I    between atoms: C1_5  and  N3_18 
REMARK    2  A    between atoms: N2_6  and  C2_8 
REMARK    3  A    between atoms: C2_8  and  C3_9 
REMARK    4  A    between atoms: C5_12  and  O3_13 
REMARK    5  A    between atoms: C6_15  and  O4_16 
REMARK    6  A    between atoms: N3_18  and  C7_20 
ROOT
HETATM    1  N1  UNL     1      17.895  18.551  15.298  1.00  0.00    -0.099 N 
ATOM      2  H1  UNL     1      18.595  18.145  15.919  1.00  0.00     0.213 HD
HETATM    3  C1  UNL     1      16.794  17.930  15.175  1.00  0.00     0.694 C 
HETATM    4  N2  UNL     1      15.783  18.441  14.330  1.00  0.00    -0.222 N 
ATOM      5  H2  UNL     1      15.891  19.387  13.965  1.00  0.00     0.177 HD
HETATM    6  N3  UNL     1      16.575  16.720  15.885  1.00  0.00    -0.220 N 
ATOM      7  H3  UNL     1      16.839  15.828  15.467  1.00  0.00     0.178 HD
ENDROOT
BRANCH   1   8
HETATM    8  O1  UNL     1      18.216  19.710  14.670  1.00  0.00    -0.276 OA
ATOM      9  H1  UNL     1      17.591  20.336  14.323  1.00  0.00     0.245 HD
ENDBRANCH   1   8
BRANCH   4  10
HETATM   10  C2  UNL     1      14.607  17.696  13.956  1.00  0.00     0.172 C 
BRANCH  10  11
HETATM   11  C3  UNL     1      13.373  18.232  14.617  1.00  0.00     0.171 C 
HETATM   12  O2  UNL     1      12.209  17.859  13.992  1.00  0.00    -0.379 OA
HETATM   13  C4  UNL     1      12.102  18.627  12.839  1.00  0.00     0.202 C 
HETATM   14  C5  UNL     1      12.772  19.949  13.136  1.00  0.00     0.173 C 
HETATM   15  C6  UNL     1      13.307  19.747  14.549  1.00  0.00     0.179 C 
BRANCH  14  16
HETATM   16  O3  UNL     1      13.799  20.216  12.241  1.00  0.00    -0.391 OA
ATOM     17  H3  UNL     1      13.769  21.112  11.929  1.00  0.00     0.210 HD
ENDBRANCH  14  16
BRANCH  15  18
HETATM   18  O4  UNL     1      12.412  20.238  15.497  1.00  0.00    -0.390 OA
ATOM     19  H4  UNL     1      12.442  21.187  15.521  1.00  0.00     0.210 HD
ENDBRANCH  15  18
ENDBRANCH  10  11
ENDBRANCH   4  10
BRANCH   6  20
HETATM   20  C7  UNL     1      15.967  16.750  17.222  1.00  0.00     0.099 C 
HETATM   21  C8  UNL     1      14.845  15.793  17.357  1.00  0.00     0.026 C 
HETATM   22  C9  UNL     1      15.029  14.753  18.422  1.00  0.00     0.002 C 
HETATM   23  C10 UNL     1      15.569  15.270  19.705  1.00  0.00     0.000 C 
HETATM   24  C11 UNL     1      16.409  16.490  19.600  1.00  0.00     0.002 C 
HETATM   25  C12 UNL     1      17.062  16.557  18.239  1.00  0.00     0.026 C 
ENDBRANCH   6  20
TORSDOF 6
ENDMDL
