MODEL 1
REMARK VINA RESULT: -6.640090494      0.000      0.000
REMARK  5 active torsions:
REMARK  status: ('A' for Active; 'I' for Inactive)
REMARK       I    between atoms: C1_4  and  N3_6 
REMARK    1  A    between atoms: N3_6  and  C2_8 
REMARK    2  A    between atoms: C2_8  and  C3_9 
REMARK    3  A    between atoms: C2_8  and  C9_15 
REMARK    4  A    between atoms: C11_18  and  N4_19 
REMARK    5  A    between atoms: C12_23  and  O2_24 
ROOT
HETATM    1  C2  UNL     1      14.821  16.485  16.642  1.00  0.00     0.143 C 
ENDROOT
BRANCH   1   2
HETATM    2  N3  UNL     1      14.249  15.173  16.428  1.00  0.00    -0.355 N 
HETATM    3  C1  UNL     1      12.918  14.810  16.277  1.00  0.00     0.182 C 
HETATM    4  N1  UNL     1      12.479  14.446  15.125  1.00  0.00    -0.374 N 
HETATM    5  N2  UNL     1      12.035  14.819  17.369  1.00  0.00    -0.064 NA
ATOM      6  H12 UNL     1      11.501  14.179  15.015  1.00  0.00     0.158 HD
ATOM      7  H11 UNL     1      13.120  14.440  14.332  1.00  0.00     0.158 HD
ATOM      8  H3  UNL     1      14.920  14.407  16.381  1.00  0.00     0.162 HD
ENDBRANCH   1   2
BRANCH   1   9
HETATM    9  C3  UNL     1      15.479  16.649  17.951  1.00  0.00     0.013 C 
HETATM   10  C4  UNL     1      14.842  16.037  19.145  1.00  0.00     0.007 C 
HETATM   11  C5  UNL     1      15.909  15.431  20.085  1.00  0.00     0.000 C 
HETATM   12  C6  UNL     1      16.913  16.532  20.365  1.00  0.00     0.000 C 
HETATM   13  C7  UNL     1      17.666  16.930  19.112  1.00  0.00     0.000 C 
HETATM   14  C8  UNL     1      16.962  16.376  17.873  1.00  0.00     0.007 C 
ENDBRANCH   1   9
BRANCH   1  15
HETATM   15  C9  UNL     1      15.626  16.802  15.423  1.00  0.00     0.285 C 
HETATM   16  O1  UNL     1      15.648  18.147  15.165  1.00  0.00    -0.357 OA
HETATM   17  C10 UNL     1      16.434  18.512  14.103  1.00  0.00     0.209 C 
HETATM   18  C11 UNL     1      16.459  17.543  12.977  1.00  0.00     0.261 C 
HETATM   19  C12 UNL     1      15.642  16.318  13.156  1.00  0.00     0.292 C 
HETATM   20  O3  UNL     1      14.960  16.204  14.329  1.00  0.00    -0.327 OA
BRANCH  18  21
HETATM   21  N4  UNL     1      17.861  17.162  12.749  1.00  0.00    -0.068 N 
ATOM     22  H43 UNL     1      17.977  16.532  11.956  1.00  0.00     0.275 HD
ATOM     23  H42 UNL     1      18.429  17.932  12.394  1.00  0.00     0.275 HD
ATOM     24  H41 UNL     1      18.221  16.774  13.621  1.00  0.00     0.275 HD
ENDBRANCH  18  21
BRANCH  19  25
HETATM   25  O2  UNL     1      16.385  15.139  12.977  1.00  0.00    -0.369 OA
ATOM     26  H2  UNL     1      16.019  14.399  13.448  1.00  0.00     0.212 HD
ENDBRANCH  19  25
ENDBRANCH   1  15
TORSDOF 5
ENDMDL
MODEL 2
REMARK VINA RESULT: -6.559433789      1.899      3.979
REMARK  5 active torsions:
REMARK  status: ('A' for Active; 'I' for Inactive)
REMARK       I    between atoms: C1_4  and  N3_6 
REMARK    1  A    between atoms: N3_6  and  C2_8 
REMARK    2  A    between atoms: C2_8  and  C3_9 
REMARK    3  A    between atoms: C2_8  and  C9_15 
REMARK    4  A    between atoms: C11_18  and  N4_19 
REMARK    5  A    between atoms: C12_23  and  O2_24 
ROOT
HETATM    1  C2  UNL     1      15.621  16.679  16.431  1.00  0.00     0.143 C 
ENDROOT
BRANCH   1   2
HETATM    2  N3  UNL     1      16.227  17.797  15.742  1.00  0.00    -0.355 N 
HETATM    3  C1  UNL     1      17.246  17.800  14.799  1.00  0.00     0.182 C 
HETATM    4  N1  UNL     1      16.980  18.057  13.568  1.00  0.00    -0.374 N 
HETATM    5  N2  UNL     1      18.576  17.539  15.167  1.00  0.00    -0.064 NA
ATOM      6  H12 UNL     1      17.730  18.059  12.875  1.00  0.00     0.158 HD
ATOM      7  H11 UNL     1      16.015  18.247  13.300  1.00  0.00     0.158 HD
ATOM      8  H3  UNL     1      15.851  18.714  15.982  1.00  0.00     0.162 HD
ENDBRANCH   1   2
BRANCH   1   9
HETATM    9  C3  UNL     1      15.811  16.697  17.892  1.00  0.00     0.013 C 
HETATM   10  C4  UNL     1      14.833  15.967  18.741  1.00  0.00     0.007 C 
HETATM   11  C5  UNL     1      15.548  15.253  19.911  1.00  0.00     0.000 C 
HETATM   12  C6  UNL     1      16.378  16.307  20.617  1.00  0.00     0.000 C 
HETATM   13  C7  UNL     1      17.489  16.829  19.729  1.00  0.00     0.000 C 
HETATM   14  C8  UNL     1      17.244  16.418  18.278  1.00  0.00     0.007 C 
ENDBRANCH   1   9
BRANCH   1  15
HETATM   15  C9  UNL     1      14.219  16.574  15.920  1.00  0.00     0.285 C 
HETATM   16  O1  UNL     1      13.980  15.355  15.343  1.00  0.00    -0.357 OA
HETATM   17  C10 UNL     1      12.689  15.166  14.923  1.00  0.00     0.209 C 
HETATM   18  C11 UNL     1      12.015  16.381  14.395  1.00  0.00     0.261 C 
HETATM   19  C12 UNL     1      12.822  17.625  14.398  1.00  0.00     0.292 C 
HETATM   20  O3  UNL     1      14.090  17.530  14.888  1.00  0.00    -0.327 OA
BRANCH  18  21
HETATM   21  N4  UNL     1      10.794  16.592  15.187  1.00  0.00    -0.068 N 
ATOM     22  H43 UNL     1       9.952  16.267  14.712  1.00  0.00     0.275 HD
ATOM     23  H42 UNL     1      10.736  15.977  15.999  1.00  0.00     0.275 HD
ATOM     24  H41 UNL     1      10.754  17.581  15.434  1.00  0.00     0.275 HD
ENDBRANCH  18  21
BRANCH  19  25
HETATM   25  O2  UNL     1      12.184  18.684  15.066  1.00  0.00    -0.369 OA
ATOM     26  H2  UNL     1      12.648  18.957  15.849  1.00  0.00     0.212 HD
ENDBRANCH  19  25
ENDBRANCH   1  15
TORSDOF 5
ENDMDL
MODEL 3
REMARK VINA RESULT: -6.519683554      1.623      2.212
REMARK  5 active torsions:
REMARK  status: ('A' for Active; 'I' for Inactive)
REMARK       I    between atoms: C1_4  and  N3_6 
REMARK    1  A    between atoms: N3_6  and  C2_8 
REMARK    2  A    between atoms: C2_8  and  C3_9 
REMARK    3  A    between atoms: C2_8  and  C9_15 
REMARK    4  A    between atoms: C11_18  and  N4_19 
REMARK    5  A    between atoms: C12_23  and  O2_24 
ROOT
HETATM    1  C2  UNL     1      15.159  16.175  17.491  1.00  0.00     0.143 C 
ENDROOT
BRANCH   1   2
HETATM    2  N3  UNL     1      14.557  14.861  17.447  1.00  0.00    -0.355 N 
HETATM    3  C1  UNL     1      14.022  14.105  18.482  1.00  0.00     0.182 C 
HETATM    4  N1  UNL     1      12.750  13.944  18.568  1.00  0.00    -0.374 N 
HETATM    5  N2  UNL     1      14.850  13.497  19.439  1.00  0.00    -0.064 NA
ATOM      6  H12 UNL     1      12.358  13.388  19.328  1.00  0.00     0.158 HD
ATOM      7  H11 UNL     1      12.148  14.385  17.873  1.00  0.00     0.158 HD
ATOM      8  H3  UNL     1      14.519  14.427  16.525  1.00  0.00     0.162 HD
ENDBRANCH   1   2
BRANCH   1   9
HETATM    9  C3  UNL     1      16.438  16.229  18.221  1.00  0.00     0.013 C 
HETATM   10  C4  UNL     1      17.603  16.874  17.560  1.00  0.00     0.007 C 
HETATM   11  C5  UNL     1      18.420  17.703  18.577  1.00  0.00     0.000 C 
HETATM   12  C6  UNL     1      18.746  16.773  19.729  1.00  0.00     0.000 C 
HETATM   13  C7  UNL     1      17.497  16.348  20.473  1.00  0.00     0.000 C 
HETATM   14  C8  UNL     1      16.252  16.679  19.650  1.00  0.00     0.007 C 
ENDBRANCH   1   9
BRANCH   1  15
HETATM   15  C9  UNL     1      15.145  16.696  16.089  1.00  0.00     0.285 C 
HETATM   16  O1  UNL     1      14.070  17.514  15.862  1.00  0.00    -0.357 OA
HETATM   17  C10 UNL     1      14.041  18.086  14.617  1.00  0.00     0.209 C 
HETATM   18  C11 UNL     1      14.566  17.232  13.519  1.00  0.00     0.261 C 
HETATM   19  C12 UNL     1      15.052  15.889  13.918  1.00  0.00     0.292 C 
HETATM   20  O3  UNL     1      14.974  15.578  15.242  1.00  0.00    -0.327 OA
BRANCH  18  21
HETATM   21  N4  UNL     1      15.657  17.969  12.866  1.00  0.00    -0.068 N 
ATOM     22  H43 UNL     1      16.579  17.596  13.091  1.00  0.00     0.275 HD
ATOM     23  H42 UNL     1      15.692  17.816  11.858  1.00  0.00     0.275 HD
ATOM     24  H41 UNL     1      15.556  18.954  13.114  1.00  0.00     0.275 HD
ENDBRANCH  18  21
BRANCH  19  25
HETATM   25  O2  UNL     1      16.370  15.642  13.498  1.00  0.00    -0.369 OA
ATOM     26  H2  UNL     1      16.707  14.813  13.816  1.00  0.00     0.212 HD
ENDBRANCH  19  25
ENDBRANCH   1  15
TORSDOF 5
ENDMDL
MODEL 4
REMARK VINA RESULT: -6.481068842      2.308      5.080
REMARK  5 active torsions:
REMARK  status: ('A' for Active; 'I' for Inactive)
REMARK       I    between atoms: C1_4  and  N3_6 
REMARK    1  A    between atoms: N3_6  and  C2_8 
REMARK    2  A    between atoms: C2_8  and  C3_9 
REMARK    3  A    between atoms: C2_8  and  C9_15 
REMARK    4  A    between atoms: C11_18  and  N4_19 
REMARK    5  A    between atoms: C12_23  and  O2_24 
ROOT
HETATM    1  C2  UNL     1      14.360  16.603  15.712  1.00  0.00     0.143 C 
ENDROOT
BRANCH   1   2
HETATM    2  N3  UNL     1      12.933  16.383  15.784  1.00  0.00    -0.355 N 
HETATM    3  C1  UNL     1      12.235  15.195  15.958  1.00  0.00     0.182 C 
HETATM    4  N1  UNL     1      11.646  14.955  17.075  1.00  0.00    -0.374 N 
HETATM    5  N2  UNL     1      12.147  14.248  14.926  1.00  0.00    -0.064 NA
ATOM      6  H12 UNL     1      11.134  14.082  17.203  1.00  0.00     0.158 HD
ATOM      7  H11 UNL     1      11.710  15.643  17.826  1.00  0.00     0.158 HD
ATOM      8  H3  UNL     1      12.356  17.220  15.695  1.00  0.00     0.162 HD
ENDBRANCH   1   2
BRANCH   1   9
HETATM    9  C3  UNL     1      14.744  17.851  15.028  1.00  0.00     0.013 C 
HETATM   10  C4  UNL     1      15.806  17.791  13.990  1.00  0.00     0.007 C 
HETATM   11  C5  UNL     1      15.461  18.712  12.798  1.00  0.00     0.000 C 
HETATM   12  C6  UNL     1      15.184  20.084  13.380  1.00  0.00     0.000 C 
HETATM   13  C7  UNL     1      13.946  20.080  14.251  1.00  0.00     0.000 C 
HETATM   14  C8  UNL     1      13.539  18.645  14.585  1.00  0.00     0.007 C 
ENDBRANCH   1   9
BRANCH   1  15
HETATM   15  C9  UNL     1      14.895  16.383  17.091  1.00  0.00     0.285 C 
HETATM   16  O1  UNL     1      16.180  16.839  17.216  1.00  0.00    -0.357 OA
HETATM   17  C10 UNL     1      16.703  16.736  18.479  1.00  0.00     0.209 C 
HETATM   18  C11 UNL     1      16.264  15.541  19.245  1.00  0.00     0.261 C 
HETATM   19  C12 UNL     1      15.324  14.631  18.548  1.00  0.00     0.292 C 
HETATM   20  O3  UNL     1      14.955  14.984  17.285  1.00  0.00    -0.327 OA
BRANCH  18  21
HETATM   21  N4  UNL     1      15.647  16.015  20.493  1.00  0.00    -0.068 N 
ATOM     22  H43 UNL     1      15.047  16.827  20.355  1.00  0.00     0.275 HD
ATOM     23  H42 UNL     1      14.932  15.379  20.849  1.00  0.00     0.275 HD
ATOM     24  H41 UNL     1      16.396  16.184  21.163  1.00  0.00     0.275 HD
ENDBRANCH  18  21
BRANCH  19  25
HETATM   25  O2  UNL     1      14.151  14.393  19.285  1.00  0.00    -0.369 OA
ATOM     26  H2  UNL     1      13.374  14.737  18.860  1.00  0.00     0.212 HD
ENDBRANCH  19  25
ENDBRANCH   1  15
TORSDOF 5
ENDMDL
MODEL 5
REMARK VINA RESULT: -6.475716961      3.300      6.003
REMARK  5 active torsions:
REMARK  status: ('A' for Active; 'I' for Inactive)
REMARK       I    between atoms: C1_4  and  N3_6 
REMARK    1  A    between atoms: N3_6  and  C2_8 
REMARK    2  A    between atoms: C2_8  and  C3_9 
REMARK    3  A    between atoms: C2_8  and  C9_15 
REMARK    4  A    between atoms: C11_18  and  N4_19 
REMARK    5  A    between atoms: C12_23  and  O2_24 
ROOT
HETATM    1  C2  UNL     1      13.826  17.727  14.573  1.00  0.00     0.143 C 
ENDROOT
BRANCH   1   2
HETATM    2  N3  UNL     1      14.298  16.775  13.592  1.00  0.00    -0.355 N 
HETATM    3  C1  UNL     1      15.586  16.572  13.115  1.00  0.00     0.182 C 
HETATM    4  N1  UNL     1      16.238  15.518  13.457  1.00  0.00    -0.374 N 
HETATM    5  N2  UNL     1      16.193  17.494  12.247  1.00  0.00    -0.064 NA
ATOM      6  H12 UNL     1      17.184  15.369  13.107  1.00  0.00     0.158 HD
ATOM      7  H11 UNL     1      15.798  14.848  14.088  1.00  0.00     0.158 HD
ATOM      8  H3  UNL     1      13.583  16.167  13.194  1.00  0.00     0.162 HD
ENDBRANCH   1   2
BRANCH   1   9
HETATM    9  C3  UNL     1      12.830  18.683  14.056  1.00  0.00     0.013 C 
HETATM   10  C4  UNL     1      11.508  18.160  13.622  1.00  0.00     0.007 C 
HETATM   11  C5  UNL     1      10.374  19.122  14.041  1.00  0.00     0.000 C 
HETATM   12  C6  UNL     1      10.750  20.491  13.509  1.00  0.00     0.000 C 
HETATM   13  C7  UNL     1      11.996  21.027  14.182  1.00  0.00     0.000 C 
HETATM   14  C8  UNL     1      12.716  19.907  14.932  1.00  0.00     0.007 C 
ENDBRANCH   1   9
BRANCH   1  15
HETATM   15  C9  UNL     1      13.456  16.938  15.788  1.00  0.00     0.285 C 
HETATM   16  O1  UNL     1      14.554  16.626  16.545  1.00  0.00    -0.357 OA
HETATM   17  C10 UNL     1      14.274  15.968  17.714  1.00  0.00     0.209 C 
HETATM   18  C11 UNL     1      13.130  15.022  17.645  1.00  0.00     0.261 C 
HETATM   19  C12 UNL     1      12.448  14.922  16.331  1.00  0.00     0.292 C 
HETATM   20  O3  UNL     1      12.933  15.708  15.329  1.00  0.00    -0.327 OA
BRANCH  18  21
HETATM   21  N4  UNL     1      12.155  15.427  18.669  1.00  0.00    -0.068 N 
ATOM     22  H43 UNL     1      12.425  15.140  19.609  1.00  0.00     0.275 HD
ATOM     23  H42 UNL     1      12.146  16.434  18.832  1.00  0.00     0.275 HD
ATOM     24  H41 UNL     1      11.244  15.062  18.389  1.00  0.00     0.275 HD
ENDBRANCH  18  21
BRANCH  19  25
HETATM   25  O2  UNL     1      11.064  15.148  16.420  1.00  0.00    -0.369 OA
ATOM     26  H2  UNL     1      10.772  15.862  15.865  1.00  0.00     0.212 HD
ENDBRANCH  19  25
ENDBRANCH   1  15
TORSDOF 5
ENDMDL
