MODEL 1
REMARK VINA RESULT: -8.539832787      0.000      0.000
REMARK  7 active torsions:
REMARK  status: ('A' for Active; 'I' for Inactive)
REMARK    1  A    between atoms: C2_2  and  O1_4 
REMARK    2  A    between atoms: C2_2  and  C4_6 
REMARK    3  A    between atoms: C4_6  and  C5_8 
REMARK    4  A    between atoms: C5_8  and  N1_9 
REMARK    5  A    between atoms: C8_12  and  N2_13 
REMARK    6  A    between atoms: C9_14  and  C10_15 
REMARK    7  A    between atoms: C20_30  and  O2_31 
ROOT
HETATM    1  N2  UNL     1     -21.191   4.611  22.914  1.00  0.00    -0.319 N 
HETATM    2  C9  UNL     1     -20.156   5.453  22.841  1.00  0.00     0.060 A 
HETATM    3  C16 UNL     1     -20.442   6.493  23.753  1.00  0.00     0.026 A 
HETATM    4  C17 UNL     1     -20.034   7.679  24.301  1.00  0.00     0.058 A 
HETATM    5  C18 UNL     1     -21.006   8.109  25.215  1.00  0.00     0.104 A 
HETATM    6 CL1  UNL     1     -20.980   9.563  26.192  1.00  0.00    -0.065 Cl
HETATM    7  N3  UNL     1     -21.988   7.213  25.232  1.00  0.00    -0.343 N 
ATOM      8  H3  UNL     1     -22.834   7.253  25.800  1.00  0.00     0.167 HD
HETATM    9  C19 UNL     1     -21.658   6.235  24.353  1.00  0.00     0.097 A 
HETATM   10  C20 UNL     1     -22.111   5.059  23.819  1.00  0.00     0.171 A 
ENDROOT
BRANCH   1  11
HETATM   11  C8  UNL     1     -21.374   3.378  22.210  1.00  0.00     0.096 C 
HETATM   12  C7  UNL     1     -21.888   2.261  23.094  1.00  0.00     0.056 C 
HETATM   13  C6  UNL     1     -21.911   0.942  22.366  1.00  0.00     0.274 C 
HETATM   14  N1  UNL     1     -22.724   1.047  21.142  1.00  0.00     0.091 N 
HETATM   15  C22 UNL     1     -22.269   2.142  20.335  1.00  0.00     0.274 C 
HETATM   16  C21 UNL     1     -22.429   3.476  21.100  1.00  0.00     0.056 C 
BRANCH  14  17
HETATM   17  C5  UNL     1     -22.704  -0.220  20.515  1.00  0.00     0.312 C 
BRANCH  17  18
HETATM   18  C4  UNL     1     -24.029  -0.898  20.385  1.00  0.00     0.231 C 
HETATM   19  F1  UNL     1     -24.946  -0.334  21.239  1.00  0.00    -0.244 F 
BRANCH  18  20
HETATM   20  C2  UNL     1     -23.873  -2.351  20.802  1.00  0.00     0.083 C 
HETATM   21  C1  UNL     1     -25.158  -2.745  21.508  1.00  0.00     0.048 C 
HETATM   22  C3  UNL     1     -23.595  -3.258  19.648  1.00  0.00     0.048 C 
BRANCH  20  23
HETATM   23  O1  UNL     1     -22.822  -2.430  21.732  1.00  0.00    -0.388 OA
ATOM     24  H1  UNL     1     -22.016  -2.195  21.288  1.00  0.00     0.210 HD
ENDBRANCH  20  23
ENDBRANCH  18  20
ENDBRANCH  17  18
ENDBRANCH  14  17
ENDBRANCH   1  11
BRANCH   2  25
HETATM   25  C10 UNL     1     -18.894   5.391  22.115  1.00  0.00    -0.005 A 
HETATM   26  C11 UNL     1     -17.675   5.466  22.803  1.00  0.00     0.017 A 
HETATM   27  C12 UNL     1     -16.462   5.505  22.154  1.00  0.00     0.046 A 
HETATM   28  C13 UNL     1     -16.415   5.472  20.790  1.00  0.00     0.154 A 
HETATM   29  F2  UNL     1     -15.217   5.510  20.134  1.00  0.00    -0.203 F 
HETATM   30  C14 UNL     1     -17.569   5.398  20.059  1.00  0.00     0.155 A 
HETATM   31  F3  UNL     1     -17.524   5.363  18.695  1.00  0.00    -0.203 F 
HETATM   32  C15 UNL     1     -18.788   5.360  20.747  1.00  0.00     0.059 A 
ENDBRANCH   2  25
BRANCH  10  33
HETATM   33  O2  UNL     1     -23.321   4.493  24.199  1.00  0.00    -0.344 OA
ATOM     34  H2  UNL     1     -23.507   3.884  24.905  1.00  0.00     0.219 HD
ENDBRANCH  10  33
TORSDOF 7
ENDMDL
MODEL 2
REMARK VINA RESULT: -8.522193834      2.766      3.619
REMARK  7 active torsions:
REMARK  status: ('A' for Active; 'I' for Inactive)
REMARK    1  A    between atoms: C2_2  and  O1_4 
REMARK    2  A    between atoms: C2_2  and  C4_6 
REMARK    3  A    between atoms: C4_6  and  C5_8 
REMARK    4  A    between atoms: C5_8  and  N1_9 
REMARK    5  A    between atoms: C8_12  and  N2_13 
REMARK    6  A    between atoms: C9_14  and  C10_15 
REMARK    7  A    between atoms: C20_30  and  O2_31 
ROOT
HETATM    1  N2  UNL     1     -22.181   2.656  22.252  1.00  0.00    -0.319 N 
HETATM    2  C9  UNL     1     -21.986   3.823  21.631  1.00  0.00     0.060 A 
HETATM    3  C16 UNL     1     -22.016   4.807  22.643  1.00  0.00     0.026 A 
HETATM    4  C17 UNL     1     -21.938   6.140  22.946  1.00  0.00     0.058 A 
HETATM    5  C18 UNL     1     -22.106   6.295  24.330  1.00  0.00     0.104 A 
HETATM    6 CL1  UNL     1     -22.092   7.791  25.242  1.00  0.00    -0.065 Cl
HETATM    7  N3  UNL     1     -22.283   5.092  24.866  1.00  0.00    -0.343 N 
ATOM      8  H3  UNL     1     -22.430   4.887  25.855  1.00  0.00     0.167 HD
HETATM    9  C19 UNL     1     -22.231   4.189  23.858  1.00  0.00     0.097 A 
HETATM   10  C20 UNL     1     -22.332   2.848  23.596  1.00  0.00     0.171 A 
ENDROOT
BRANCH   1  11
HETATM   11  C8  UNL     1     -22.207   1.346  21.677  1.00  0.00     0.096 C 
HETATM   12  C7  UNL     1     -21.512   0.308  22.532  1.00  0.00     0.056 C 
HETATM   13  C6  UNL     1     -21.411  -1.018  21.826  1.00  0.00     0.274 C 
HETATM   14  N1  UNL     1     -22.749  -1.490  21.429  1.00  0.00     0.091 N 
HETATM   15  C22 UNL     1     -23.426  -0.482  20.666  1.00  0.00     0.274 C 
HETATM   16  C21 UNL     1     -23.630   0.792  21.519  1.00  0.00     0.056 C 
BRANCH  14  17
HETATM   17  C5  UNL     1     -22.580  -2.733  20.777  1.00  0.00     0.312 C 
BRANCH  17  18
HETATM   18  C4  UNL     1     -23.105  -2.808  19.380  1.00  0.00     0.231 C 
HETATM   19  F1  UNL     1     -24.121  -3.729  19.294  1.00  0.00    -0.244 F 
BRANCH  18  20
HETATM   20  C2  UNL     1     -21.990  -3.293  18.469  1.00  0.00     0.083 C 
HETATM   21  C1  UNL     1     -21.050  -2.118  18.264  1.00  0.00     0.048 C 
HETATM   22  C3  UNL     1     -21.261  -4.473  19.024  1.00  0.00     0.048 C 
BRANCH  20  23
HETATM   23  O1  UNL     1     -22.553  -3.623  17.225  1.00  0.00    -0.388 OA
ATOM     24  H1  UNL     1     -21.844  -3.763  16.607  1.00  0.00     0.210 HD
ENDBRANCH  20  23
ENDBRANCH  18  20
ENDBRANCH  17  18
ENDBRANCH  14  17
ENDBRANCH   1  11
BRANCH   2  25
HETATM   25  C10 UNL     1     -21.684   4.154  20.244  1.00  0.00    -0.005 A 
HETATM   26  C11 UNL     1     -20.372   4.463  19.857  1.00  0.00     0.017 A 
HETATM   27  C12 UNL     1     -20.055   4.872  18.582  1.00  0.00     0.046 A 
HETATM   28  C13 UNL     1     -21.035   4.989  17.638  1.00  0.00     0.154 A 
HETATM   29  F2  UNL     1     -20.733   5.393  16.369  1.00  0.00    -0.203 F 
HETATM   30  C14 UNL     1     -22.336   4.701  17.950  1.00  0.00     0.155 A 
HETATM   31  F3  UNL     1     -23.316   4.817  17.008  1.00  0.00    -0.203 F 
HETATM   32  C15 UNL     1     -22.628   4.289  19.257  1.00  0.00     0.059 A 
ENDBRANCH   2  25
BRANCH  10  33
HETATM   33  O2  UNL     1     -22.551   1.915  24.601  1.00  0.00    -0.344 OA
ATOM     34  H2  UNL     1     -21.955   1.593  25.267  1.00  0.00     0.219 HD
ENDBRANCH  10  33
TORSDOF 7
ENDMDL
MODEL 3
REMARK VINA RESULT: -8.388349783      2.701      3.688
REMARK  7 active torsions:
REMARK  status: ('A' for Active; 'I' for Inactive)
REMARK    1  A    between atoms: C2_2  and  O1_4 
REMARK    2  A    between atoms: C2_2  and  C4_6 
REMARK    3  A    between atoms: C4_6  and  C5_8 
REMARK    4  A    between atoms: C5_8  and  N1_9 
REMARK    5  A    between atoms: C8_12  and  N2_13 
REMARK    6  A    between atoms: C9_14  and  C10_15 
REMARK    7  A    between atoms: C20_30  and  O2_31 
ROOT
HETATM    1  N2  UNL     1     -22.027   2.698  22.205  1.00  0.00    -0.319 N 
HETATM    2  C9  UNL     1     -21.932   3.891  21.610  1.00  0.00     0.060 A 
HETATM    3  C16 UNL     1     -22.094   4.846  22.637  1.00  0.00     0.026 A 
HETATM    4  C17 UNL     1     -22.163   6.173  22.965  1.00  0.00     0.058 A 
HETATM    5  C18 UNL     1     -22.390   6.283  24.345  1.00  0.00     0.104 A 
HETATM    6 CL1  UNL     1     -22.557   7.754  25.282  1.00  0.00    -0.065 Cl
HETATM    7  N3  UNL     1     -22.460   5.057  24.855  1.00  0.00    -0.343 N 
ATOM      8  H3  UNL     1     -22.617   4.818  25.834  1.00  0.00     0.167 HD
HETATM    9  C19 UNL     1     -22.284   4.184  23.834  1.00  0.00     0.097 A 
HETATM   10  C20 UNL     1     -22.239   2.846  23.546  1.00  0.00     0.171 A 
ENDROOT
BRANCH   1  11
HETATM   11  C8  UNL     1     -21.900   1.403  21.607  1.00  0.00     0.096 C 
HETATM   12  C7  UNL     1     -21.922   0.277  22.619  1.00  0.00     0.056 C 
HETATM   13  C6  UNL     1     -21.621  -1.052  21.979  1.00  0.00     0.274 C 
HETATM   14  N1  UNL     1     -22.572  -1.322  20.887  1.00  0.00     0.091 N 
HETATM   15  C22 UNL     1     -22.590  -0.228  19.961  1.00  0.00     0.274 C 
HETATM   16  C21 UNL     1     -23.063   1.066  20.664  1.00  0.00     0.056 C 
BRANCH  14  17
HETATM   17  C5  UNL     1     -22.234  -2.580  20.336  1.00  0.00     0.312 C 
BRANCH  17  18
HETATM   18  C4  UNL     1     -21.971  -2.590  18.865  1.00  0.00     0.231 C 
HETATM   19  F1  UNL     1     -22.939  -3.308  18.206  1.00  0.00    -0.244 F 
BRANCH  18  20
HETATM   20  C2  UNL     1     -20.650  -3.298  18.615  1.00  0.00     0.083 C 
HETATM   21  C1  UNL     1     -19.577  -2.484  19.318  1.00  0.00     0.048 C 
HETATM   22  C3  UNL     1     -20.651  -4.713  19.096  1.00  0.00     0.048 C 
BRANCH  20  23
HETATM   23  O1  UNL     1     -20.388  -3.265  17.235  1.00  0.00    -0.388 OA
ATOM     24  H1  UNL     1     -21.219  -3.197  16.778  1.00  0.00     0.210 HD
ENDBRANCH  20  23
ENDBRANCH  18  20
ENDBRANCH  17  18
ENDBRANCH  14  17
ENDBRANCH   1  11
BRANCH   2  25
HETATM   25  C10 UNL     1     -21.621   4.278  20.241  1.00  0.00    -0.005 A 
HETATM   26  C11 UNL     1     -22.651   4.554  19.329  1.00  0.00     0.017 A 
HETATM   27  C12 UNL     1     -22.409   4.832  18.004  1.00  0.00     0.046 A 
HETATM   28  C13 UNL     1     -21.128   4.847  17.531  1.00  0.00     0.154 A 
HETATM   29  F2  UNL     1     -20.875   5.122  16.217  1.00  0.00    -0.203 F 
HETATM   30  C14 UNL     1     -20.077   4.588  18.368  1.00  0.00     0.155 A 
HETATM   31  F3  UNL     1     -18.797   4.603  17.897  1.00  0.00    -0.203 F 
HETATM   32  C15 UNL     1     -20.354   4.307  19.712  1.00  0.00     0.059 A 
ENDBRANCH   2  25
BRANCH  10  33
HETATM   33  O2  UNL     1     -22.394   1.875  24.527  1.00  0.00    -0.344 OA
ATOM     34  H2  UNL     1     -21.845   1.683  25.278  1.00  0.00     0.219 HD
ENDBRANCH  10  33
TORSDOF 7
ENDMDL
MODEL 4
REMARK VINA RESULT: -8.364540474      1.120      1.328
REMARK  7 active torsions:
REMARK  status: ('A' for Active; 'I' for Inactive)
REMARK    1  A    between atoms: C2_2  and  O1_4 
REMARK    2  A    between atoms: C2_2  and  C4_6 
REMARK    3  A    between atoms: C4_6  and  C5_8 
REMARK    4  A    between atoms: C5_8  and  N1_9 
REMARK    5  A    between atoms: C8_12  and  N2_13 
REMARK    6  A    between atoms: C9_14  and  C10_15 
REMARK    7  A    between atoms: C20_30  and  O2_31 
ROOT
HETATM    1  N2  UNL     1     -21.043   4.921  22.990  1.00  0.00    -0.319 N 
HETATM    2  C9  UNL     1     -19.986   5.698  22.734  1.00  0.00     0.060 A 
HETATM    3  C16 UNL     1     -20.112   6.814  23.589  1.00  0.00     0.026 A 
HETATM    4  C17 UNL     1     -19.587   8.012  23.992  1.00  0.00     0.058 A 
HETATM    5  C18 UNL     1     -20.423   8.559  24.977  1.00  0.00     0.104 A 
HETATM    6 CL1  UNL     1     -20.212  10.076  25.828  1.00  0.00    -0.065 Cl
HETATM    7  N3  UNL     1     -21.436   7.722  25.175  1.00  0.00    -0.343 N 
ATOM      8  H3  UNL     1     -22.205   7.851  25.832  1.00  0.00     0.167 HD
HETATM    9  C19 UNL     1     -21.259   6.668  24.343  1.00  0.00     0.097 A 
HETATM   10  C20 UNL     1     -21.826   5.483  23.957  1.00  0.00     0.171 A 
ENDROOT
BRANCH   1  11
HETATM   11  C8  UNL     1     -21.366   3.653  22.410  1.00  0.00     0.096 C 
HETATM   12  C7  UNL     1     -21.877   2.650  23.422  1.00  0.00     0.056 C 
HETATM   13  C6  UNL     1     -22.049   1.283  22.813  1.00  0.00     0.274 C 
HETATM   14  N1  UNL     1     -22.952   1.350  21.651  1.00  0.00     0.091 N 
HETATM   15  C22 UNL     1     -22.495   2.341  20.721  1.00  0.00     0.274 C 
HETATM   16  C21 UNL     1     -22.501   3.740  21.380  1.00  0.00     0.056 C 
BRANCH  14  17
HETATM   17  C5  UNL     1     -23.069   0.039  21.134  1.00  0.00     0.312 C 
BRANCH  17  18
HETATM   18  C4  UNL     1     -22.012  -0.367  20.159  1.00  0.00     0.231 C 
HETATM   19  F1  UNL     1     -22.495  -0.318  18.874  1.00  0.00    -0.244 F 
BRANCH  18  20
HETATM   20  C2  UNL     1     -21.630  -1.812  20.433  1.00  0.00     0.083 C 
HETATM   21  C1  UNL     1     -22.524  -2.674  19.560  1.00  0.00     0.048 C 
HETATM   22  C3  UNL     1     -20.187  -2.091  20.164  1.00  0.00     0.048 C 
BRANCH  20  23
HETATM   23  O1  UNL     1     -21.927  -2.097  21.777  1.00  0.00    -0.388 OA
ATOM     24  H1  UNL     1     -21.604  -1.379  22.309  1.00  0.00     0.210 HD
ENDBRANCH  20  23
ENDBRANCH  18  20
ENDBRANCH  17  18
ENDBRANCH  14  17
ENDBRANCH   1  11
BRANCH   2  25
HETATM   25  C10 UNL     1     -18.823   5.514  21.874  1.00  0.00    -0.005 A 
HETATM   26  C11 UNL     1     -17.528   5.642  22.395  1.00  0.00     0.017 A 
HETATM   27  C12 UNL     1     -16.404   5.570  21.605  1.00  0.00     0.046 A 
HETATM   28  C13 UNL     1     -16.525   5.366  20.260  1.00  0.00     0.154 A 
HETATM   29  F2  UNL     1     -15.417   5.292  19.464  1.00  0.00    -0.203 F 
HETATM   30  C14 UNL     1     -17.761   5.232  19.688  1.00  0.00     0.155 A 
HETATM   31  F3  UNL     1     -17.884   5.028  18.345  1.00  0.00    -0.203 F 
HETATM   32  C15 UNL     1     -18.887   5.311  20.518  1.00  0.00     0.059 A 
ENDBRANCH   2  25
BRANCH  10  33
HETATM   33  O2  UNL     1     -23.008   5.014  24.517  1.00  0.00    -0.344 OA
ATOM     34  H2  UNL     1     -23.263   4.124  24.732  1.00  0.00     0.219 HD
ENDBRANCH  10  33
TORSDOF 7
ENDMDL
MODEL 5
REMARK VINA RESULT: -8.070076919      1.255      1.848
REMARK  7 active torsions:
REMARK  status: ('A' for Active; 'I' for Inactive)
REMARK    1  A    between atoms: C2_2  and  O1_4 
REMARK    2  A    between atoms: C2_2  and  C4_6 
REMARK    3  A    between atoms: C4_6  and  C5_8 
REMARK    4  A    between atoms: C5_8  and  N1_9 
REMARK    5  A    between atoms: C8_12  and  N2_13 
REMARK    6  A    between atoms: C9_14  and  C10_15 
REMARK    7  A    between atoms: C20_30  and  O2_31 
ROOT
HETATM    1  N2  UNL     1     -20.834   4.923  22.774  1.00  0.00    -0.319 N 
HETATM    2  C9  UNL     1     -19.912   5.754  22.280  1.00  0.00     0.060 A 
HETATM    3  C16 UNL     1     -19.884   6.862  23.154  1.00  0.00     0.026 A 
HETATM    4  C17 UNL     1     -19.339   8.086  23.434  1.00  0.00     0.058 A 
HETATM    5  C18 UNL     1     -19.939   8.588  24.598  1.00  0.00     0.104 A 
HETATM    6 CL1  UNL     1     -19.607  10.115  25.392  1.00  0.00    -0.065 Cl
HETATM    7  N3  UNL     1     -20.830   7.699  25.025  1.00  0.00    -0.343 N 
ATOM      8  H3  UNL     1     -21.423   7.787  25.850  1.00  0.00     0.167 HD
HETATM    9  C19 UNL     1     -20.805   6.656  24.161  1.00  0.00     0.097 A 
HETATM   10  C20 UNL     1     -21.388   5.442  23.909  1.00  0.00     0.171 A 
ENDROOT
BRANCH   1  11
HETATM   11  C8  UNL     1     -21.222   3.639  22.273  1.00  0.00     0.096 C 
HETATM   12  C7  UNL     1     -21.688   2.694  23.359  1.00  0.00     0.056 C 
HETATM   13  C6  UNL     1     -21.929   1.307  22.824  1.00  0.00     0.274 C 
HETATM   14  N1  UNL     1     -22.906   1.346  21.722  1.00  0.00     0.091 N 
HETATM   15  C22 UNL     1     -22.489   2.285  20.721  1.00  0.00     0.274 C 
HETATM   16  C21 UNL     1     -22.421   3.711  21.316  1.00  0.00     0.056 C 
BRANCH  14  17
HETATM   17  C5  UNL     1     -23.085   0.018  21.272  1.00  0.00     0.312 C 
BRANCH  17  18
HETATM   18  C4  UNL     1     -22.128  -0.443  20.220  1.00  0.00     0.231 C 
HETATM   19  F1  UNL     1     -22.745  -0.495  18.994  1.00  0.00    -0.244 F 
BRANCH  18  20
HETATM   20  C2  UNL     1     -21.687  -1.859  20.554  1.00  0.00     0.083 C 
HETATM   21  C1  UNL     1     -22.614  -2.795  19.799  1.00  0.00     0.048 C 
HETATM   22  C3  UNL     1     -20.259  -2.119  20.202  1.00  0.00     0.048 C 
BRANCH  20  23
HETATM   23  O1  UNL     1     -21.884  -2.067  21.930  1.00  0.00    -0.388 OA
ATOM     24  H1  UNL     1     -22.170  -1.246  22.315  1.00  0.00     0.210 HD
ENDBRANCH  20  23
ENDBRANCH  18  20
ENDBRANCH  17  18
ENDBRANCH  14  17
ENDBRANCH   1  11
BRANCH   2  25
HETATM   25  C10 UNL     1     -18.984   5.632  21.162  1.00  0.00    -0.005 A 
HETATM   26  C11 UNL     1     -19.462   5.394  19.865  1.00  0.00     0.017 A 
HETATM   27  C12 UNL     1     -18.622   5.179  18.797  1.00  0.00     0.046 A 
HETATM   28  C13 UNL     1     -17.268   5.193  18.978  1.00  0.00     0.154 A 
HETATM   29  F2  UNL     1     -16.424   4.981  17.925  1.00  0.00    -0.203 F 
HETATM   30  C14 UNL     1     -16.737   5.421  20.218  1.00  0.00     0.155 A 
HETATM   31  F3  UNL     1     -15.385   5.436  20.400  1.00  0.00    -0.203 F 
HETATM   32  C15 UNL     1     -17.618   5.636  21.287  1.00  0.00     0.059 A 
ENDBRANCH   2  25
BRANCH  10  33
HETATM   33  O2  UNL     1     -22.373   4.912  24.732  1.00  0.00    -0.344 OA
ATOM     34  H2  UNL     1     -22.477   4.986  25.674  1.00  0.00     0.219 HD
ENDBRANCH  10  33
TORSDOF 7
ENDMDL
