MODEL 1
REMARK VINA RESULT: -6.190850451      0.000      0.000
REMARK  7 active torsions:
REMARK  status: ('A' for Active; 'I' for Inactive)
REMARK    1  A    between atoms: C2_2  and  C3_3 
REMARK    2  A    between atoms: C3_3  and  N1_5 
REMARK    3  A    between atoms: N1_5  and  C5_7 
REMARK    4  A    between atoms: C5_7  and  C6_8 
REMARK    5  A    between atoms: C5_7  and  C12_17 
REMARK    6  A    between atoms: C13_18  and  O1_19 
REMARK    7  A    between atoms: C17_25  and  O2_26 
ROOT
HETATM    1  C5  UNL     1     -21.599   3.550  17.456  1.00  0.00     0.151 C 
ENDROOT
BRANCH   1   2
HETATM    2  N1  UNL     1     -22.650   4.510  17.672  1.00  0.00    -0.405 N 
ATOM      3  H1  UNL     1     -22.777   4.947  18.585  1.00  0.00     0.154 HD
BRANCH   2   4
HETATM    4  C3  UNL     1     -23.502   4.834  16.592  1.00  0.00     0.073 C 
HETATM    5  C4  UNL     1     -23.639   3.579  15.738  1.00  0.00     0.031 C 
BRANCH   4   6
HETATM    6  C2  UNL     1     -22.844   5.878  15.725  1.00  0.00     0.020 C 
HETATM    7  C1  UNL     1     -22.356   7.057  16.555  1.00  0.00     0.007 C 
ENDBRANCH   4   6
ENDBRANCH   2   4
ENDBRANCH   1   2
BRANCH   1   8
HETATM    8  C6  UNL     1     -20.232   4.105  17.476  1.00  0.00    -0.011 A 
HETATM    9  C7  UNL     1     -19.694   4.568  18.660  1.00  0.00     0.014 A 
HETATM   10  C8  UNL     1     -18.440   5.088  18.779  1.00  0.00     0.046 A 
HETATM   11  C9  UNL     1     -17.676   5.145  17.624  1.00  0.00     0.156 A 
HETATM   12  F1  UNL     1     -16.413   5.664  17.713  1.00  0.00    -0.203 F 
HETATM   13  C10 UNL     1     -18.193   4.690  16.428  1.00  0.00     0.172 A 
HETATM   14  F2  UNL     1     -17.457   4.740  15.293  1.00  0.00    -0.201 F 
HETATM   15  C11 UNL     1     -19.479   4.163  16.341  1.00  0.00     0.061 A 
HETATM   16 BR1  UNL     1     -20.094   3.553  14.619  1.00  0.00    -0.047 Br
ENDBRANCH   1   8
BRANCH   1  17
HETATM   17  C12 UNL     1     -21.864   2.423  18.356  1.00  0.00     0.040 A 
HETATM   18  C13 UNL     1     -22.195   2.525  19.685  1.00  0.00     0.101 A 
HETATM   19  C14 UNL     1     -22.436   1.404  20.503  1.00  0.00     0.104 A 
HETATM   20 CL1  UNL     1     -22.853   1.575  22.192  1.00  0.00    -0.078 Cl
HETATM   21  C15 UNL     1     -22.340   0.166  19.968  1.00  0.00     0.132 A 
HETATM   22  C16 UNL     1     -22.012   0.019  18.643  1.00  0.00     0.140 A 
HETATM   23  O4  UNL     1     -22.524  -1.104  20.543  1.00  0.00    -0.321 OA
HETATM   24  C17 UNL     1     -21.784   1.135  17.875  1.00  0.00     0.113 A 
HETATM   25  O3  UNL     1     -21.990  -1.336  18.382  1.00  0.00    -0.320 OA
HETATM   26  C18 UNL     1     -22.648  -1.998  19.445  1.00  0.00     0.352 C 
BRANCH  18  27
HETATM   27  O1  UNL     1     -22.321   3.736  20.330  1.00  0.00    -0.358 OA
ATOM     28  H1  UNL     1     -22.075   3.861  21.240  1.00  0.00     0.217 HD
ENDBRANCH  18  27
BRANCH  24  29
HETATM   29  O2  UNL     1     -21.457   0.893  16.534  1.00  0.00    -0.357 OA
ATOM     30  H2  UNL     1     -20.803   0.244  16.305  1.00  0.00     0.217 HD
ENDBRANCH  24  29
ENDBRANCH   1  17
TORSDOF 7
ENDMDL
MODEL 2
REMARK VINA RESULT: -5.871336476      5.552      8.059
REMARK  7 active torsions:
REMARK  status: ('A' for Active; 'I' for Inactive)
REMARK    1  A    between atoms: C2_2  and  C3_3 
REMARK    2  A    between atoms: C3_3  and  N1_5 
REMARK    3  A    between atoms: N1_5  and  C5_7 
REMARK    4  A    between atoms: C5_7  and  C6_8 
REMARK    5  A    between atoms: C5_7  and  C12_17 
REMARK    6  A    between atoms: C13_18  and  O1_19 
REMARK    7  A    between atoms: C17_25  and  O2_26 
ROOT
HETATM    1  C5  UNL     1     -20.427   5.544  22.403  1.00  0.00     0.151 C 
ENDROOT
BRANCH   1   2
HETATM    2  N1  UNL     1     -19.263   5.301  23.215  1.00  0.00    -0.405 N 
ATOM      3  H1  UNL     1     -19.283   4.600  23.956  1.00  0.00     0.154 HD
BRANCH   2   4
HETATM    4  C3  UNL     1     -18.094   6.054  22.964  1.00  0.00     0.073 C 
HETATM    5  C4  UNL     1     -17.584   5.642  21.588  1.00  0.00     0.031 C 
BRANCH   4   6
HETATM    6  C2  UNL     1     -17.024   5.671  23.955  1.00  0.00     0.020 C 
HETATM    7  C1  UNL     1     -16.685   4.189  23.857  1.00  0.00     0.007 C 
ENDBRANCH   4   6
ENDBRANCH   2   4
ENDBRANCH   1   2
BRANCH   1   8
HETATM    8  C6  UNL     1     -21.165   4.334  21.993  1.00  0.00    -0.011 A 
HETATM    9  C7  UNL     1     -21.710   3.501  22.950  1.00  0.00     0.014 A 
HETATM   10  C8  UNL     1     -22.415   2.370  22.668  1.00  0.00     0.046 A 
HETATM   11  C9  UNL     1     -22.583   2.057  21.329  1.00  0.00     0.156 A 
HETATM   12  F1  UNL     1     -23.287   0.925  21.017  1.00  0.00    -0.203 F 
HETATM   13  C10 UNL     1     -22.048   2.873  20.354  1.00  0.00     0.172 A 
HETATM   14  F2  UNL     1     -22.206   2.578  19.042  1.00  0.00    -0.201 F 
HETATM   15  C11 UNL     1     -21.332   4.023  20.676  1.00  0.00     0.061 A 
HETATM   16 BR1  UNL     1     -20.634   5.090  19.230  1.00  0.00    -0.047 Br
ENDBRANCH   1   8
BRANCH   1  17
HETATM   17  C12 UNL     1     -21.202   6.591  23.076  1.00  0.00     0.040 A 
HETATM   18  C13 UNL     1     -21.761   6.489  24.325  1.00  0.00     0.101 A 
HETATM   19  C14 UNL     1     -22.500   7.530  24.921  1.00  0.00     0.104 A 
HETATM   20 CL1  UNL     1     -23.198   7.363  26.515  1.00  0.00    -0.078 Cl
HETATM   21  C15 UNL     1     -22.673   8.687  24.242  1.00  0.00     0.132 A 
HETATM   22  C16 UNL     1     -22.130   8.830  22.989  1.00  0.00     0.140 A 
HETATM   23  O4  UNL     1     -23.353   9.867  24.589  1.00  0.00    -0.321 OA
HETATM   24  C17 UNL     1     -21.415   7.793  22.440  1.00  0.00     0.113 A 
HETATM   25  O3  UNL     1     -22.464  10.094  22.548  1.00  0.00    -0.320 OA
HETATM   26  C18 UNL     1     -22.901  10.846  23.664  1.00  0.00     0.352 C 
BRANCH  18  27
HETATM   27  O1  UNL     1     -21.645   5.359  25.104  1.00  0.00    -0.358 OA
ATOM     28  H1  UNL     1     -22.396   4.911  25.476  1.00  0.00     0.217 HD
ENDBRANCH  18  27
BRANCH  24  29
HETATM   29  O2  UNL     1     -20.895   8.026  21.159  1.00  0.00    -0.357 OA
ATOM     30  H2  UNL     1     -21.425   8.443  20.490  1.00  0.00     0.217 HD
ENDBRANCH  24  29
ENDBRANCH   1  17
TORSDOF 7
ENDMDL
MODEL 3
REMARK VINA RESULT: -5.800271818      4.582      6.622
REMARK  7 active torsions:
REMARK  status: ('A' for Active; 'I' for Inactive)
REMARK    1  A    between atoms: C2_2  and  C3_3 
REMARK    2  A    between atoms: C3_3  and  N1_5 
REMARK    3  A    between atoms: N1_5  and  C5_7 
REMARK    4  A    between atoms: C5_7  and  C6_8 
REMARK    5  A    between atoms: C5_7  and  C12_17 
REMARK    6  A    between atoms: C13_18  and  O1_19 
REMARK    7  A    between atoms: C17_25  and  O2_26 
ROOT
HETATM    1  C5  UNL     1     -21.239   4.837  20.814  1.00  0.00     0.151 C 
ENDROOT
BRANCH   1   2
HETATM    2  N1  UNL     1     -21.805   5.893  20.015  1.00  0.00    -0.405 N 
ATOM      3  H1  UNL     1     -21.856   5.808  19.000  1.00  0.00     0.154 HD
BRANCH   2   4
HETATM    4  C3  UNL     1     -22.289   7.049  20.669  1.00  0.00     0.073 C 
HETATM    5  C4  UNL     1     -21.260   8.151  20.448  1.00  0.00     0.031 C 
BRANCH   4   6
HETATM    6  C2  UNL     1     -22.349   6.803  22.155  1.00  0.00     0.020 C 
HETATM    7  C1  UNL     1     -22.021   8.066  22.939  1.00  0.00     0.007 C 
ENDBRANCH   4   6
ENDBRANCH   2   4
ENDBRANCH   1   2
BRANCH   1   8
HETATM    8  C6  UNL     1     -21.711   3.480  20.479  1.00  0.00    -0.011 A 
HETATM    9  C7  UNL     1     -21.737   3.065  19.162  1.00  0.00     0.014 A 
HETATM   10  C8  UNL     1     -22.147   1.830  18.757  1.00  0.00     0.046 A 
HETATM   11  C9  UNL     1     -22.558   0.953  19.748  1.00  0.00     0.156 A 
HETATM   12  F1  UNL     1     -22.975  -0.295  19.370  1.00  0.00    -0.203 F 
HETATM   13  C10 UNL     1     -22.541   1.345  21.071  1.00  0.00     0.172 A 
HETATM   14  F2  UNL     1     -22.940   0.497  22.049  1.00  0.00    -0.201 F 
HETATM   15  C11 UNL     1     -22.116   2.615  21.452  1.00  0.00     0.061 A 
HETATM   16 BR1  UNL     1     -22.131   3.051  23.329  1.00  0.00    -0.047 Br
ENDBRANCH   1   8
BRANCH   1  17
HETATM   17  C12 UNL     1     -19.788   5.045  20.822  1.00  0.00     0.040 A 
HETATM   18  C13 UNL     1     -19.007   5.167  21.945  1.00  0.00     0.101 A 
HETATM   19  C14 UNL     1     -17.614   5.368  21.891  1.00  0.00     0.104 A 
HETATM   20 CL1  UNL     1     -16.653   5.520  23.344  1.00  0.00    -0.078 Cl
HETATM   21  C15 UNL     1     -17.006   5.448  20.686  1.00  0.00     0.132 A 
HETATM   22  C16 UNL     1     -17.750   5.331  19.538  1.00  0.00     0.140 A 
HETATM   23  O4  UNL     1     -15.656   5.642  20.345  1.00  0.00    -0.321 OA
HETATM   24  C17 UNL     1     -19.107   5.134  19.629  1.00  0.00     0.113 A 
HETATM   25  O3  UNL     1     -16.875   5.450  18.477  1.00  0.00    -0.320 OA
HETATM   26  C18 UNL     1     -15.560   5.282  18.973  1.00  0.00     0.352 C 
BRANCH  18  27
HETATM   27  O1  UNL     1     -19.521   5.099  23.221  1.00  0.00    -0.358 OA
ATOM     28  H1  UNL     1     -19.900   5.851  23.663  1.00  0.00     0.217 HD
ENDBRANCH  18  27
BRANCH  24  29
HETATM   29  O2  UNL     1     -19.787   5.024  18.408  1.00  0.00    -0.357 OA
ATOM     30  H2  UNL     1     -19.341   4.709  17.632  1.00  0.00     0.217 HD
ENDBRANCH  24  29
ENDBRANCH   1  17
TORSDOF 7
ENDMDL
MODEL 4
REMARK VINA RESULT: -5.748163002      2.216      2.829
REMARK  7 active torsions:
REMARK  status: ('A' for Active; 'I' for Inactive)
REMARK    1  A    between atoms: C2_2  and  C3_3 
REMARK    2  A    between atoms: C3_3  and  N1_5 
REMARK    3  A    between atoms: N1_5  and  C5_7 
REMARK    4  A    between atoms: C5_7  and  C6_8 
REMARK    5  A    between atoms: C5_7  and  C12_17 
REMARK    6  A    between atoms: C13_18  and  O1_19 
REMARK    7  A    between atoms: C17_25  and  O2_26 
ROOT
HETATM    1  C5  UNL     1     -21.065   4.966  19.562  1.00  0.00     0.151 C 
ENDROOT
BRANCH   1   2
HETATM    2  N1  UNL     1     -21.765   6.108  20.090  1.00  0.00    -0.405 N 
ATOM      3  H1  UNL     1     -22.666   5.997  20.556  1.00  0.00     0.154 HD
BRANCH   2   4
HETATM    4  C3  UNL     1     -21.178   7.386  19.950  1.00  0.00     0.073 C 
HETATM    5  C4  UNL     1     -21.520   8.176  21.207  1.00  0.00     0.031 C 
BRANCH   4   6
HETATM    6  C2  UNL     1     -21.818   8.112  18.794  1.00  0.00     0.020 C 
HETATM    7  C1  UNL     1     -20.841   8.283  17.639  1.00  0.00     0.007 C 
ENDBRANCH   4   6
ENDBRANCH   2   4
ENDBRANCH   1   2
BRANCH   1   8
HETATM    8  C6  UNL     1     -19.597   5.106  19.504  1.00  0.00    -0.011 A 
HETATM    9  C7  UNL     1     -18.878   5.315  20.664  1.00  0.00     0.014 A 
HETATM   10  C8  UNL     1     -17.523   5.447  20.711  1.00  0.00     0.046 A 
HETATM   11  C9  UNL     1     -16.845   5.362  19.506  1.00  0.00     0.156 A 
HETATM   12  F1  UNL     1     -15.483   5.491  19.523  1.00  0.00    -0.203 F 
HETATM   13  C10 UNL     1     -17.542   5.155  18.332  1.00  0.00     0.172 A 
HETATM   14  F2  UNL     1     -16.891   5.070  17.148  1.00  0.00    -0.201 F 
HETATM   15  C11 UNL     1     -18.928   5.024  18.319  1.00  0.00     0.061 A 
HETATM   16 BR1  UNL     1     -19.794   4.733  16.622  1.00  0.00    -0.047 Br
ENDBRANCH   1   8
BRANCH   1  17
HETATM   17  C12 UNL     1     -21.586   3.789  20.263  1.00  0.00     0.040 A 
HETATM   18  C13 UNL     1     -21.762   3.683  21.620  1.00  0.00     0.101 A 
HETATM   19  C14 UNL     1     -22.265   2.522  22.239  1.00  0.00     0.104 A 
HETATM   20 CL1  UNL     1     -22.475   2.425  23.973  1.00  0.00    -0.078 Cl
HETATM   21  C15 UNL     1     -22.592   1.456  21.474  1.00  0.00     0.132 A 
HETATM   22  C16 UNL     1     -22.431   1.520  20.112  1.00  0.00     0.140 A 
HETATM   23  O4  UNL     1     -23.106   0.195  21.821  1.00  0.00    -0.321 OA
HETATM   24  C17 UNL     1     -21.938   2.670  19.542  1.00  0.00     0.113 A 
HETATM   25  O3  UNL     1     -22.842   0.306  19.601  1.00  0.00    -0.320 OA
HETATM   26  C18 UNL     1     -23.582  -0.364  20.603  1.00  0.00     0.352 C 
BRANCH  18  27
HETATM   27  O1  UNL     1     -21.464   4.707  22.493  1.00  0.00    -0.358 OA
ATOM     28  H1  UNL     1     -21.002   4.566  23.311  1.00  0.00     0.217 HD
ENDBRANCH  18  27
BRANCH  24  29
HETATM   29  O2  UNL     1     -21.808   2.648  18.147  1.00  0.00    -0.357 OA
ATOM     30  H2  UNL     1     -21.617   1.837  17.691  1.00  0.00     0.217 HD
ENDBRANCH  24  29
ENDBRANCH   1  17
TORSDOF 7
ENDMDL
MODEL 5
REMARK VINA RESULT: -5.635791206      4.359      6.589
REMARK  7 active torsions:
REMARK  status: ('A' for Active; 'I' for Inactive)
REMARK    1  A    between atoms: C2_2  and  C3_3 
REMARK    2  A    between atoms: C3_3  and  N1_5 
REMARK    3  A    between atoms: N1_5  and  C5_7 
REMARK    4  A    between atoms: C5_7  and  C6_8 
REMARK    5  A    between atoms: C5_7  and  C12_17 
REMARK    6  A    between atoms: C13_18  and  O1_19 
REMARK    7  A    between atoms: C17_25  and  O2_26 
ROOT
HETATM    1  C5  UNL     1     -21.338   4.500  19.822  1.00  0.00     0.151 C 
ENDROOT
BRANCH   1   2
HETATM    2  N1  UNL     1     -22.175   5.427  19.105  1.00  0.00    -0.405 N 
ATOM      3  H1  UNL     1     -22.508   5.209  18.166  1.00  0.00     0.154 HD
BRANCH   2   4
HETATM    4  C3  UNL     1     -22.526   6.644  19.732  1.00  0.00     0.073 C 
HETATM    5  C4  UNL     1     -21.497   7.682  19.300  1.00  0.00     0.031 C 
BRANCH   4   6
HETATM    6  C2  UNL     1     -22.395   6.500  21.227  1.00  0.00     0.020 C 
HETATM    7  C1  UNL     1     -21.687   7.701  21.839  1.00  0.00     0.007 C 
ENDBRANCH   4   6
ENDBRANCH   2   4
ENDBRANCH   1   2
BRANCH   1   8
HETATM    8  C6  UNL     1     -21.808   3.101  19.815  1.00  0.00    -0.011 A 
HETATM    9  C7  UNL     1     -21.898   2.409  18.623  1.00  0.00     0.014 A 
HETATM   10  C8  UNL     1     -22.311   1.115  18.519  1.00  0.00     0.046 A 
HETATM   11  C9  UNL     1     -22.657   0.474  19.698  1.00  0.00     0.156 A 
HETATM   12  F1  UNL     1     -23.076  -0.827  19.622  1.00  0.00    -0.203 F 
HETATM   13  C10 UNL     1     -22.576   1.144  20.901  1.00  0.00     0.172 A 
HETATM   14  F2  UNL     1     -22.911   0.528  22.059  1.00  0.00    -0.201 F 
HETATM   15  C11 UNL     1     -22.150   2.467  20.973  1.00  0.00     0.061 A 
HETATM   16 BR1  UNL     1     -22.072   3.301  22.710  1.00  0.00    -0.047 Br
ENDBRANCH   1   8
BRANCH   1  17
HETATM   17  C12 UNL     1     -19.964   4.733  19.369  1.00  0.00     0.040 A 
HETATM   18  C13 UNL     1     -19.541   4.714  18.062  1.00  0.00     0.101 A 
HETATM   19  C14 UNL     1     -18.203   4.943  17.687  1.00  0.00     0.104 A 
HETATM   20 CL1  UNL     1     -17.703   4.909  16.011  1.00  0.00    -0.078 Cl
HETATM   21  C15 UNL     1     -17.283   5.195  18.645  1.00  0.00     0.132 A 
HETATM   22  C16 UNL     1     -17.664   5.224  19.964  1.00  0.00     0.140 A 
HETATM   23  O4  UNL     1     -15.905   5.454  18.556  1.00  0.00    -0.321 OA
HETATM   24  C17 UNL     1     -18.978   4.996  20.294  1.00  0.00     0.113 A 
HETATM   25  O3  UNL     1     -16.532   5.502  20.704  1.00  0.00    -0.320 OA
HETATM   26  C18 UNL     1     -15.541   5.991  19.820  1.00  0.00     0.352 C 
BRANCH  18  27
HETATM   27  O1  UNL     1     -20.392   4.469  17.007  1.00  0.00    -0.358 OA
ATOM     28  H1  UNL     1     -21.034   5.103  16.707  1.00  0.00     0.217 HD
ENDBRANCH  18  27
BRANCH  24  29
HETATM   29  O2  UNL     1     -19.279   5.047  21.662  1.00  0.00    -0.357 OA
ATOM     30  H2  UNL     1     -19.224   5.866  22.140  1.00  0.00     0.217 HD
ENDBRANCH  24  29
ENDBRANCH   1  17
TORSDOF 7
ENDMDL
