MODEL 1
REMARK VINA RESULT: -7.631017016      0.000      0.000
REMARK  8 active torsions:
REMARK  status: ('A' for Active; 'I' for Inactive)
REMARK    1  A    between atoms: C2_2  and  C3_3 
REMARK    2  A    between atoms: C4_4  and  C5_5 
REMARK    3  A    between atoms: C13_16  and  O1_17 
REMARK    4  A    between atoms: O1_17  and  C14_18 
REMARK    5  A    between atoms: C14_18  and  C15_19 
REMARK    6  A    between atoms: C15_19  and  C16_20 
REMARK    7  A    between atoms: C17_22  and  N1_23 
REMARK    8  A    between atoms: C18_28  and  O2_29 
ROOT
HETATM    1  C3  UNL     1     -19.623   6.960  21.870  1.00  0.00     0.016 C 
HETATM    2  C4  UNL     1     -18.462   6.747  22.775  1.00  0.00     0.033 C 
HETATM    3  C6  UNL     1     -18.786   7.090  24.020  1.00  0.00    -0.003 C 
HETATM    4  C7  UNL     1     -20.192   7.561  24.046  1.00  0.00    -0.004 C 
HETATM    5  C8  UNL     1     -20.417   8.648  25.067  1.00  0.00     0.021 C 
HETATM    6  C9  UNL     1     -21.051   6.371  24.307  1.00  0.00     0.049 C 
HETATM    7  C10 UNL     1     -21.219   5.520  23.075  1.00  0.00    -0.073 C 
HETATM    8  C11 UNL     1     -22.001   4.487  23.344  1.00  0.00     0.006 C 
HETATM    9  C12 UNL     1     -22.415   3.427  22.440  1.00  0.00     0.032 C 
HETATM   10  C13 UNL     1     -22.146   3.182  21.166  1.00  0.00     0.046 C 
HETATM   11  C19 UNL     1     -21.297   3.978  20.283  1.00  0.00     0.065 C 
HETATM   12  C20 UNL     1     -20.126   4.612  21.060  1.00  0.00     0.016 C 
HETATM   13  C21 UNL     1     -20.585   5.837  21.778  1.00  0.00     0.029 C 
HETATM   14  C22 UNL     1     -20.356   8.083  22.629  1.00  0.00     0.108 C 
HETATM   15 CL1  UNL     1     -22.087   8.102  22.233  1.00  0.00    -0.123 Cl
ENDROOT
BRANCH  10  16
HETATM   16  O1  UNL     1     -22.737   2.062  20.654  1.00  0.00    -0.355 OA
BRANCH  16  17
HETATM   17  C14 UNL     1     -22.563   0.774  21.197  1.00  0.00     0.180 C 
BRANCH  17  18
HETATM   18  C15 UNL     1     -23.814  -0.027  21.173  1.00  0.00     0.077 C 
BRANCH  18  19
HETATM   19  C16 UNL     1     -23.548  -1.396  20.606  1.00  0.00     0.039 A 
HETATM   20  S1  UNL     1     -22.397  -1.866  19.424  1.00  0.00    -0.055 SA
HETATM   21  C17 UNL     1     -22.770  -3.524  19.360  1.00  0.00     0.144 A 
HETATM   22  N2  UNL     1     -23.757  -3.648  20.244  1.00  0.00    -0.317 N 
HETATM   23  C18 UNL     1     -24.166  -2.588  20.884  1.00  0.00     0.155 A 
ATOM     24  H2  UNL     1     -24.186  -4.557  20.418  1.00  0.00     0.170 HD
BRANCH  21  25
HETATM   25  N1  UNL     1     -22.245  -4.489  18.636  1.00  0.00    -0.380 N 
ATOM     26  H12 UNL     1     -21.290  -4.843  18.702  1.00  0.00     0.158 HD
ATOM     27  H11 UNL     1     -22.655  -5.057  17.896  1.00  0.00     0.158 HD
ENDBRANCH  21  25
BRANCH  23  28
HETATM   28  O2  UNL     1     -25.218  -2.618  21.853  1.00  0.00    -0.345 OA
ATOM     29  H2  UNL     1     -25.154  -3.218  22.588  1.00  0.00     0.219 HD
ENDBRANCH  23  28
ENDBRANCH  18  19
ENDBRANCH  17  18
ENDBRANCH  16  17
ENDBRANCH  10  16
BRANCH   1  30
HETATM   30  C2  UNL     1     -19.201   7.558  20.559  1.00  0.00     0.012 C 
HETATM   31  C1  UNL     1     -18.858   9.020  20.625  1.00  0.00     0.006 C 
ENDBRANCH   1  30
BRANCH   2  32
HETATM   32  C5  UNL     1     -17.095   6.251  22.447  1.00  0.00     0.414 C 
HETATM   33  F1  UNL     1     -16.235   7.287  22.139  1.00  0.00    -0.166 F 
HETATM   34  F2  UNL     1     -17.134   5.292  21.487  1.00  0.00    -0.166 F 
HETATM   35  F3  UNL     1     -16.514   5.643  23.570  1.00  0.00    -0.166 F 
ENDBRANCH   2  32
TORSDOF 8
ENDMDL
MODEL 2
REMARK VINA RESULT: -7.579407462      2.541      3.539
REMARK  8 active torsions:
REMARK  status: ('A' for Active; 'I' for Inactive)
REMARK    1  A    between atoms: C2_2  and  C3_3 
REMARK    2  A    between atoms: C4_4  and  C5_5 
REMARK    3  A    between atoms: C13_16  and  O1_17 
REMARK    4  A    between atoms: O1_17  and  C14_18 
REMARK    5  A    between atoms: C14_18  and  C15_19 
REMARK    6  A    between atoms: C15_19  and  C16_20 
REMARK    7  A    between atoms: C17_22  and  N1_23 
REMARK    8  A    between atoms: C18_28  and  O2_29 
ROOT
HETATM    1  C3  UNL     1     -20.246   5.942  22.290  1.00  0.00     0.016 C 
HETATM    2  C4  UNL     1     -21.201   7.079  22.364  1.00  0.00     0.033 C 
HETATM    3  C6  UNL     1     -21.344   7.633  21.162  1.00  0.00    -0.003 C 
HETATM    4  C7  UNL     1     -20.495   6.908  20.186  1.00  0.00    -0.004 C 
HETATM    5  C8  UNL     1     -19.950   7.815  19.110  1.00  0.00     0.021 C 
HETATM    6  C9  UNL     1     -21.320   5.807  19.615  1.00  0.00     0.049 C 
HETATM    7  C10 UNL     1     -21.445   4.647  20.569  1.00  0.00    -0.073 C 
HETATM    8  C11 UNL     1     -22.168   3.686  20.018  1.00  0.00     0.006 C 
HETATM    9  C12 UNL     1     -22.528   2.402  20.597  1.00  0.00     0.032 C 
HETATM   10  C13 UNL     1     -22.273   1.847  21.773  1.00  0.00     0.046 C 
HETATM   11  C19 UNL     1     -21.505   2.435  22.868  1.00  0.00     0.065 C 
HETATM   12  C20 UNL     1     -21.698   3.964  22.925  1.00  0.00     0.016 C 
HETATM   13  C21 UNL     1     -20.829   4.632  21.912  1.00  0.00     0.029 C 
HETATM   14  C22 UNL     1     -19.390   6.385  21.088  1.00  0.00     0.108 C 
HETATM   15 CL1  UNL     1     -18.628   4.990  20.293  1.00  0.00    -0.123 Cl
ENDROOT
BRANCH  10  16
HETATM   16  O1  UNL     1     -22.794   0.597  21.949  1.00  0.00    -0.355 OA
BRANCH  16  17
HETATM   17  C14 UNL     1     -23.481  -0.107  20.941  1.00  0.00     0.180 C 
BRANCH  17  18
HETATM   18  C15 UNL     1     -23.355  -1.580  21.090  1.00  0.00     0.077 C 
BRANCH  18  19
HETATM   19  C16 UNL     1     -22.651  -2.169  19.897  1.00  0.00     0.039 A 
HETATM   20  S1  UNL     1     -21.565  -1.410  18.805  1.00  0.00    -0.055 SA
HETATM   21  C17 UNL     1     -21.269  -2.738  17.787  1.00  0.00     0.144 A 
HETATM   22  N2  UNL     1     -22.010  -3.704  18.323  1.00  0.00    -0.317 N 
HETATM   23  C18 UNL     1     -22.715  -3.440  19.387  1.00  0.00     0.155 A 
ATOM     24  H2  UNL     1     -22.026  -4.636  17.909  1.00  0.00     0.170 HD
BRANCH  21  25
HETATM   25  N1  UNL     1     -20.505  -2.841  16.721  1.00  0.00    -0.380 N 
ATOM     26  H12 UNL     1     -19.770  -2.192  16.438  1.00  0.00     0.158 HD
ATOM     27  H11 UNL     1     -20.484  -3.551  15.989  1.00  0.00     0.158 HD
ENDBRANCH  21  25
BRANCH  23  28
HETATM   28  O2  UNL     1     -23.542  -4.410  20.038  1.00  0.00    -0.345 OA
ATOM     29  H2  UNL     1     -24.447  -4.192  20.230  1.00  0.00     0.219 HD
ENDBRANCH  23  28
ENDBRANCH  18  19
ENDBRANCH  17  18
ENDBRANCH  16  17
ENDBRANCH  10  16
BRANCH   1  30
HETATM   30  C2  UNL     1     -19.318   5.919  23.469  1.00  0.00     0.012 C 
HETATM   31  C1  UNL     1     -18.186   6.905  23.388  1.00  0.00     0.006 C 
ENDBRANCH   1  30
BRANCH   2  32
HETATM   32  C5  UNL     1     -21.928   7.618  23.548  1.00  0.00     0.414 C 
HETATM   33  F1  UNL     1     -21.084   8.303  24.400  1.00  0.00    -0.166 F 
HETATM   34  F2  UNL     1     -22.640   6.647  24.176  1.00  0.00    -0.166 F 
HETATM   35  F3  UNL     1     -22.868   8.580  23.148  1.00  0.00    -0.166 F 
ENDBRANCH   2  32
TORSDOF 8
ENDMDL
MODEL 3
REMARK VINA RESULT: -7.493329892      2.658      3.631
REMARK  8 active torsions:
REMARK  status: ('A' for Active; 'I' for Inactive)
REMARK    1  A    between atoms: C2_2  and  C3_3 
REMARK    2  A    between atoms: C4_4  and  C5_5 
REMARK    3  A    between atoms: C13_16  and  O1_17 
REMARK    4  A    between atoms: O1_17  and  C14_18 
REMARK    5  A    between atoms: C14_18  and  C15_19 
REMARK    6  A    between atoms: C15_19  and  C16_20 
REMARK    7  A    between atoms: C17_22  and  N1_23 
REMARK    8  A    between atoms: C18_28  and  O2_29 
ROOT
HETATM    1  C3  UNL     1     -20.185   6.031  22.246  1.00  0.00     0.016 C 
HETATM    2  C4  UNL     1     -21.126   7.182  22.287  1.00  0.00     0.033 C 
HETATM    3  C6  UNL     1     -21.251   7.711  21.072  1.00  0.00    -0.003 C 
HETATM    4  C7  UNL     1     -20.403   6.955  20.120  1.00  0.00    -0.004 C 
HETATM    5  C8  UNL     1     -19.836   7.831  19.030  1.00  0.00     0.021 C 
HETATM    6  C9  UNL     1     -21.237   5.852  19.565  1.00  0.00     0.049 C 
HETATM    7  C10 UNL     1     -21.385   4.715  20.543  1.00  0.00    -0.073 C 
HETATM    8  C11 UNL     1     -22.116   3.751  20.007  1.00  0.00     0.006 C 
HETATM    9  C12 UNL     1     -22.497   2.485  20.610  1.00  0.00     0.032 C 
HETATM   10  C13 UNL     1     -22.259   1.952  21.800  1.00  0.00     0.046 C 
HETATM   11  C19 UNL     1     -21.493   2.554  22.889  1.00  0.00     0.065 C 
HETATM   12  C20 UNL     1     -21.668   4.086  22.911  1.00  0.00     0.016 C 
HETATM   13  C21 UNL     1     -20.781   4.721  21.892  1.00  0.00     0.029 C 
HETATM   14  C22 UNL     1     -19.312   6.437  21.043  1.00  0.00     0.108 C 
HETATM   15 CL1  UNL     1     -18.561   5.016  20.285  1.00  0.00    -0.123 Cl
ENDROOT
BRANCH  10  16
HETATM   16  O1  UNL     1     -22.798   0.713  21.998  1.00  0.00    -0.355 OA
BRANCH  16  17
HETATM   17  C14 UNL     1     -23.557   0.031  21.027  1.00  0.00     0.180 C 
BRANCH  17  18
HETATM   18  C15 UNL     1     -23.479  -1.444  21.178  1.00  0.00     0.077 C 
BRANCH  18  19
HETATM   19  C16 UNL     1     -22.334  -1.994  20.369  1.00  0.00     0.039 A 
HETATM   20  S1  UNL     1     -22.380  -2.840  18.877  1.00  0.00    -0.055 SA
HETATM   21  C17 UNL     1     -20.710  -3.098  18.687  1.00  0.00     0.144 A 
HETATM   22  N2  UNL     1     -20.189  -2.527  19.770  1.00  0.00    -0.317 N 
HETATM   23  C18 UNL     1     -20.989  -1.964  20.632  1.00  0.00     0.155 A 
ATOM     24  H2  UNL     1     -19.180  -2.530  19.923  1.00  0.00     0.170 HD
BRANCH  21  25
HETATM   25  N1  UNL     1     -20.045  -3.704  17.727  1.00  0.00    -0.380 N 
ATOM     26  H12 UNL     1     -19.163  -4.208  17.827  1.00  0.00     0.158 HD
ATOM     27  H11 UNL     1     -20.255  -3.796  16.734  1.00  0.00     0.158 HD
ENDBRANCH  21  25
BRANCH  23  28
HETATM   28  O2  UNL     1     -20.526  -1.324  21.826  1.00  0.00    -0.345 OA
ATOM     29  H2  UNL     1     -21.134  -0.803  22.337  1.00  0.00     0.219 HD
ENDBRANCH  23  28
ENDBRANCH  18  19
ENDBRANCH  17  18
ENDBRANCH  16  17
ENDBRANCH  10  16
BRANCH   1  30
HETATM   30  C2  UNL     1     -19.267   6.023  23.434  1.00  0.00     0.012 C 
HETATM   31  C1  UNL     1     -18.135   7.009  23.352  1.00  0.00     0.006 C 
ENDBRANCH   1  30
BRANCH   2  32
HETATM   32  C5  UNL     1     -21.856   7.756  23.453  1.00  0.00     0.414 C 
HETATM   33  F1  UNL     1     -21.021   8.496  24.267  1.00  0.00    -0.166 F 
HETATM   34  F2  UNL     1     -22.541   6.797  24.128  1.00  0.00    -0.166 F 
HETATM   35  F3  UNL     1     -22.820   8.679  23.019  1.00  0.00    -0.166 F 
ENDBRANCH   2  32
TORSDOF 8
ENDMDL
MODEL 4
REMARK VINA RESULT: -7.451935815      1.273      1.378
REMARK  8 active torsions:
REMARK  status: ('A' for Active; 'I' for Inactive)
REMARK    1  A    between atoms: C2_2  and  C3_3 
REMARK    2  A    between atoms: C4_4  and  C5_5 
REMARK    3  A    between atoms: C13_16  and  O1_17 
REMARK    4  A    between atoms: O1_17  and  C14_18 
REMARK    5  A    between atoms: C14_18  and  C15_19 
REMARK    6  A    between atoms: C15_19  and  C16_20 
REMARK    7  A    between atoms: C17_22  and  N1_23 
REMARK    8  A    between atoms: C18_28  and  O2_29 
ROOT
HETATM    1  C3  UNL     1     -19.758   6.927  21.907  1.00  0.00     0.016 C 
HETATM    2  C4  UNL     1     -18.571   6.748  22.786  1.00  0.00     0.033 C 
HETATM    3  C6  UNL     1     -18.877   7.081  24.038  1.00  0.00    -0.003 C 
HETATM    4  C7  UNL     1     -20.295   7.510  24.096  1.00  0.00    -0.004 C 
HETATM    5  C8  UNL     1     -20.529   8.590  25.124  1.00  0.00     0.021 C 
HETATM    6  C9  UNL     1     -21.113   6.296  24.375  1.00  0.00     0.049 C 
HETATM    7  C10 UNL     1     -21.284   5.441  23.146  1.00  0.00    -0.073 C 
HETATM    8  C11 UNL     1     -22.029   4.386  23.431  1.00  0.00     0.006 C 
HETATM    9  C12 UNL     1     -22.433   3.315  22.535  1.00  0.00     0.032 C 
HETATM   10  C13 UNL     1     -22.186   3.078  21.255  1.00  0.00     0.046 C 
HETATM   11  C19 UNL     1     -21.380   3.899  20.354  1.00  0.00     0.065 C 
HETATM   12  C20 UNL     1     -20.210   4.566  21.106  1.00  0.00     0.016 C 
HETATM   13  C21 UNL     1     -20.689   5.777  21.836  1.00  0.00     0.029 C 
HETATM   14  C22 UNL     1     -20.506   8.028  22.684  1.00  0.00     0.108 C 
HETATM   15 CL1  UNL     1     -22.246   7.997  22.326  1.00  0.00    -0.123 Cl
ENDROOT
BRANCH  10  16
HETATM   16  O1  UNL     1     -22.756   1.942  20.755  1.00  0.00    -0.355 OA
BRANCH  16  17
HETATM   17  C14 UNL     1     -22.770   0.713  21.443  1.00  0.00     0.180 C 
BRANCH  17  18
HETATM   18  C15 UNL     1     -23.650  -0.292  20.792  1.00  0.00     0.077 C 
BRANCH  18  19
HETATM   19  C16 UNL     1     -22.824  -1.299  20.036  1.00  0.00     0.039 A 
HETATM   20  S1  UNL     1     -22.540  -2.951  20.406  1.00  0.00    -0.055 SA
HETATM   21  C17 UNL     1     -21.526  -3.327  19.093  1.00  0.00     0.144 A 
HETATM   22  N2  UNL     1     -21.449  -2.177  18.429  1.00  0.00    -0.317 N 
HETATM   23  C18 UNL     1     -22.095  -1.140  18.886  1.00  0.00     0.155 A 
ATOM     24  H2  UNL     1     -20.893  -2.106  17.577  1.00  0.00     0.170 HD
BRANCH  21  25
HETATM   25  N1  UNL     1     -20.938  -4.457  18.767  1.00  0.00    -0.380 N 
ATOM     26  H12 UNL     1     -21.384  -5.271  18.343  1.00  0.00     0.158 HD
ATOM     27  H11 UNL     1     -19.966  -4.748  18.862  1.00  0.00     0.158 HD
ENDBRANCH  21  25
BRANCH  23  28
HETATM   28  O2  UNL     1     -22.076   0.139  18.245  1.00  0.00    -0.345 OA
ATOM     29  H2  UNL     1     -21.912   0.185  17.310  1.00  0.00     0.219 HD
ENDBRANCH  23  28
ENDBRANCH  18  19
ENDBRANCH  17  18
ENDBRANCH  16  17
ENDBRANCH  10  16
BRANCH   1  30
HETATM   30  C2  UNL     1     -19.383   7.538  20.588  1.00  0.00     0.012 C 
HETATM   31  C1  UNL     1     -19.073   9.008  20.649  1.00  0.00     0.006 C 
ENDBRANCH   1  30
BRANCH   2  32
HETATM   32  C5  UNL     1     -17.198   6.292  22.426  1.00  0.00     0.414 C 
HETATM   33  F1  UNL     1     -16.400   7.343  22.019  1.00  0.00    -0.166 F 
HETATM   34  F2  UNL     1     -17.234   5.275  21.527  1.00  0.00    -0.166 F 
HETATM   35  F3  UNL     1     -16.543   5.779  23.556  1.00  0.00    -0.166 F 
ENDBRANCH   2  32
TORSDOF 8
ENDMDL
MODEL 5
REMARK VINA RESULT: -7.435215711      2.339      3.313
REMARK  8 active torsions:
REMARK  status: ('A' for Active; 'I' for Inactive)
REMARK    1  A    between atoms: C2_2  and  C3_3 
REMARK    2  A    between atoms: C4_4  and  C5_5 
REMARK    3  A    between atoms: C13_16  and  O1_17 
REMARK    4  A    between atoms: O1_17  and  C14_18 
REMARK    5  A    between atoms: C14_18  and  C15_19 
REMARK    6  A    between atoms: C15_19  and  C16_20 
REMARK    7  A    between atoms: C17_22  and  N1_23 
REMARK    8  A    between atoms: C18_28  and  O2_29 
ROOT
HETATM    1  C3  UNL     1     -20.066   6.399  22.468  1.00  0.00     0.016 C 
HETATM    2  C4  UNL     1     -20.950   7.593  22.399  1.00  0.00     0.033 C 
HETATM    3  C6  UNL     1     -20.891   8.132  21.183  1.00  0.00    -0.003 C 
HETATM    4  C7  UNL     1     -19.963   7.340  20.341  1.00  0.00    -0.004 C 
HETATM    5  C8  UNL     1     -19.219   8.192  19.342  1.00  0.00     0.021 C 
HETATM    6  C9  UNL     1     -20.769   6.280  19.672  1.00  0.00     0.049 C 
HETATM    7  C10 UNL     1     -21.096   5.147  20.610  1.00  0.00    -0.073 C 
HETATM    8  C11 UNL     1     -21.795   4.222  19.974  1.00  0.00     0.006 C 
HETATM    9  C12 UNL     1     -22.310   2.973  20.510  1.00  0.00     0.032 C 
HETATM   10  C13 UNL     1     -22.254   2.425  21.715  1.00  0.00     0.046 C 
HETATM   11  C19 UNL     1     -21.609   2.985  22.901  1.00  0.00     0.065 C 
HETATM   12  C20 UNL     1     -21.712   4.524  22.915  1.00  0.00     0.016 C 
HETATM   13  C21 UNL     1     -20.672   5.120  22.026  1.00  0.00     0.029 C 
HETATM   14  C22 UNL     1     -19.027   6.767  21.392  1.00  0.00     0.108 C 
HETATM   15 CL1  UNL     1     -18.251   5.315  20.724  1.00  0.00    -0.123 Cl
ENDROOT
BRANCH  10  16
HETATM   16  O1  UNL     1     -22.872   1.213  21.830  1.00  0.00    -0.355 OA
BRANCH  16  17
HETATM   17  C14 UNL     1     -23.137   0.369  20.733  1.00  0.00     0.180 C 
BRANCH  17  18
HETATM   18  C15 UNL     1     -24.046  -0.751  21.086  1.00  0.00     0.077 C 
BRANCH  18  19
HETATM   19  C16 UNL     1     -23.524  -2.047  20.523  1.00  0.00     0.039 A 
HETATM   20  S1  UNL     1     -22.057  -2.341  19.684  1.00  0.00    -0.055 SA
HETATM   21  C17 UNL     1     -22.262  -4.005  19.402  1.00  0.00     0.144 A 
HETATM   22  N2  UNL     1     -23.441  -4.265  19.960  1.00  0.00    -0.317 N 
HETATM   23  C18 UNL     1     -24.096  -3.293  20.531  1.00  0.00     0.155 A 
ATOM     24  H2  UNL     1     -23.827  -5.210  19.942  1.00  0.00     0.170 HD
BRANCH  21  25
HETATM   25  N1  UNL     1     -21.480  -4.869  18.791  1.00  0.00    -0.380 N 
ATOM     26  H12 UNL     1     -21.511  -5.117  17.801  1.00  0.00     0.158 HD
ATOM     27  H11 UNL     1     -20.720  -5.443  19.152  1.00  0.00     0.158 HD
ENDBRANCH  21  25
BRANCH  23  28
HETATM   28  O2  UNL     1     -25.370  -3.471  21.159  1.00  0.00    -0.345 OA
ATOM     29  H2  UNL     1     -26.005  -4.054  20.761  1.00  0.00     0.219 HD
ENDBRANCH  23  28
ENDBRANCH  18  19
ENDBRANCH  17  18
ENDBRANCH  16  17
ENDBRANCH  10  16
BRANCH   1  30
HETATM   30  C2  UNL     1     -19.312   6.341  23.765  1.00  0.00     0.012 C 
HETATM   31  C1  UNL     1     -18.118   7.253  23.830  1.00  0.00     0.006 C 
ENDBRANCH   1  30
BRANCH   2  32
HETATM   32  C5  UNL     1     -21.797   8.196  23.466  1.00  0.00     0.414 C 
HETATM   33  F1  UNL     1     -21.075   9.057  24.268  1.00  0.00    -0.166 F 
HETATM   34  F2  UNL     1     -22.457   7.242  24.172  1.00  0.00    -0.166 F 
HETATM   35  F3  UNL     1     -22.792   9.008  22.898  1.00  0.00    -0.166 F 
ENDBRANCH   2  32
TORSDOF 8
ENDMDL
