MODEL 1
REMARK VINA RESULT: -8.684410942      0.000      0.000
REMARK  9 active torsions:
REMARK  status: ('A' for Active; 'I' for Inactive)
REMARK    1  A    between atoms: C3_3  and  C4_4 
REMARK    2  A    between atoms: C3_3  and  C9_14 
REMARK    3  A    between atoms: C5_5  and  O1_6 
REMARK    4  A    between atoms: C6_9  and  O3_10 
REMARK    5  A    between atoms: C23_28  and  O4_29 
REMARK    6  A    between atoms: O4_29  and  C24_30 
REMARK    7  A    between atoms: C26_33  and  C27_34 
REMARK    8  A    between atoms: C27_34  and  O6_35 
REMARK    9  A    between atoms: C29_38  and  O7_39 
ROOT
HETATM    1  C9  UNL     1      17.832  -6.551  -5.676  1.00  0.00    -0.037 C 
HETATM    2  C10 UNL     1      18.876  -6.362  -4.640  1.00  0.00     0.038 C 
HETATM    3  C11 UNL     1      18.678  -7.325  -3.445  1.00  0.00     0.009 C 
HETATM    4  C12 UNL     1      19.912  -7.321  -2.564  1.00  0.00    -0.018 C 
HETATM    5  C13 UNL     1      19.520  -6.985  -1.120  1.00  0.00     0.010 C 
HETATM    6  C14 UNL     1      20.565  -8.711  -2.517  1.00  0.00     0.004 C 
HETATM    7  C15 UNL     1      21.634  -8.888  -3.535  1.00  0.00     0.001 C 
HETATM    8  C16 UNL     1      21.607 -10.290  -4.146  1.00  0.00     0.004 C 
HETATM    9  C17 UNL     1      22.233 -10.242  -5.526  1.00  0.00     0.033 C 
HETATM   10  C18 UNL     1      21.664 -11.220  -6.469  1.00  0.00    -0.087 C 
HETATM   11  C19 UNL     1      21.367 -12.591  -5.929  1.00  0.00     0.043 C 
HETATM   12  C20 UNL     1      21.385 -11.023  -7.739  1.00  0.00    -0.024 C 
HETATM   13  C21 UNL     1      21.588  -9.754  -8.493  1.00  0.00     0.030 C 
HETATM   14  C22 UNL     1      20.326  -9.328  -9.202  1.00  0.00     0.041 C 
HETATM   15  C23 UNL     1      20.113  -7.859  -8.925  1.00  0.00     0.163 C 
HETATM   16  C26 UNL     1      18.660  -7.500  -8.996  1.00  0.00    -0.029 C 
HETATM   17  C28 UNL     1      17.792  -7.445  -8.027  1.00  0.00     0.016 C 
HETATM   18  C29 UNL     1      17.917  -7.705  -6.580  1.00  0.00     0.171 C 
ENDROOT
BRANCH   1  19
HETATM   19  C3  UNL     1      17.304  -5.279  -6.201  1.00  0.00    -0.019 C 
HETATM   20  C2  UNL     1      18.192  -4.376  -6.688  1.00  0.00    -0.018 C 
HETATM   21  C1  UNL     1      19.625  -4.652  -6.884  1.00  0.00     0.037 C 
BRANCH  19  22
HETATM   22  C4  UNL     1      15.929  -4.782  -6.105  1.00  0.00     0.043 A 
HETATM   23  C5  UNL     1      15.546  -3.609  -5.492  1.00  0.00     0.197 A 
HETATM   24  O2  UNL     1      14.221  -3.459  -5.596  1.00  0.00    -0.264 OA
HETATM   25  C6  UNL     1      13.706  -4.437  -6.229  1.00  0.00     0.192 A 
HETATM   26  C7  UNL     1      14.752  -5.323  -6.584  1.00  0.00     0.012 A 
HETATM   27  C8  UNL     1      14.497  -6.558  -7.338  1.00  0.00     0.054 C 
BRANCH  23  28
HETATM   28  O1  UNL     1      16.232  -2.606  -4.821  1.00  0.00    -0.340 OA
ATOM     29  H1  UNL     1      16.118  -1.666  -4.749  1.00  0.00     0.220 HD
ENDBRANCH  23  28
BRANCH  25  30
HETATM   30  O3  UNL     1      12.378  -4.599  -6.510  1.00  0.00    -0.340 OA
ATOM     31  H3  UNL     1      11.719  -4.938  -5.914  1.00  0.00     0.220 HD
ENDBRANCH  25  30
ENDBRANCH  19  22
ENDBRANCH   1  19
BRANCH  18  32
HETATM   32  O7  UNL     1      19.126  -8.390  -6.284  1.00  0.00    -0.387 OA
ATOM     33  H7  UNL     1      19.664  -8.369  -7.067  1.00  0.00     0.210 HD
ENDBRANCH  18  32
BRANCH  16  34
HETATM   34  C27 UNL     1      18.201  -7.175 -10.413  1.00  0.00     0.200 C 
BRANCH  34  35
HETATM   35  O6  UNL     1      18.225  -5.782 -10.479  1.00  0.00    -0.397 OA
ATOM     36  H6  UNL     1      18.681  -5.589 -11.290  1.00  0.00     0.209 HD
ENDBRANCH  34  35
ENDBRANCH  16  34
BRANCH  15  37
HETATM   37  O4  UNL     1      20.810  -7.166  -9.968  1.00  0.00    -0.312 OA
BRANCH  37  38
HETATM   38  C24 UNL     1      21.545  -6.052  -9.636  1.00  0.00     0.255 C 
HETATM   39  C25 UNL     1      22.752  -6.146  -8.733  1.00  0.00     0.126 C 
HETATM   40  O5  UNL     1      21.296  -4.886 -10.034  1.00  0.00    -0.266 OA
ENDBRANCH  37  38
ENDBRANCH  15  37
TORSDOF 9
ENDMDL
MODEL 2
REMARK VINA RESULT: -8.319677980      1.166      1.419
REMARK  9 active torsions:
REMARK  status: ('A' for Active; 'I' for Inactive)
REMARK    1  A    between atoms: C3_3  and  C4_4 
REMARK    2  A    between atoms: C3_3  and  C9_14 
REMARK    3  A    between atoms: C5_5  and  O1_6 
REMARK    4  A    between atoms: C6_9  and  O3_10 
REMARK    5  A    between atoms: C23_28  and  O4_29 
REMARK    6  A    between atoms: O4_29  and  C24_30 
REMARK    7  A    between atoms: C26_33  and  C27_34 
REMARK    8  A    between atoms: C27_34  and  O6_35 
REMARK    9  A    between atoms: C29_38  and  O7_39 
ROOT
HETATM    1  C9  UNL     1      16.643  -6.360  -5.626  1.00  0.00    -0.037 C 
HETATM    2  C10 UNL     1      17.398  -6.031  -4.392  1.00  0.00     0.038 C 
HETATM    3  C11 UNL     1      17.127  -7.055  -3.265  1.00  0.00     0.009 C 
HETATM    4  C12 UNL     1      18.128  -6.871  -2.142  1.00  0.00    -0.018 C 
HETATM    5  C13 UNL     1      17.390  -6.659  -0.815  1.00  0.00     0.010 C 
HETATM    6  C14 UNL     1      18.991  -8.129  -1.955  1.00  0.00     0.004 C 
HETATM    7  C15 UNL     1      20.264  -8.083  -2.723  1.00  0.00     0.001 C 
HETATM    8  C16 UNL     1      20.612  -9.446  -3.323  1.00  0.00     0.004 C 
HETATM    9  C17 UNL     1      21.494  -9.242  -4.539  1.00  0.00     0.033 C 
HETATM   10  C18 UNL     1      21.316 -10.269  -5.580  1.00  0.00    -0.087 C 
HETATM   11  C19 UNL     1      21.158 -11.689  -5.113  1.00  0.00     0.043 C 
HETATM   12  C20 UNL     1      21.279 -10.078  -6.880  1.00  0.00    -0.024 C 
HETATM   13  C21 UNL     1      21.408  -8.767  -7.576  1.00  0.00     0.030 C 
HETATM   14  C22 UNL     1      20.268  -8.539  -8.538  1.00  0.00     0.041 C 
HETATM   15  C23 UNL     1      19.747  -7.140  -8.315  1.00  0.00     0.163 C 
HETATM   16  C26 UNL     1      18.301  -7.033  -8.693  1.00  0.00    -0.029 C 
HETATM   17  C28 UNL     1      17.253  -7.163  -7.931  1.00  0.00     0.016 C 
HETATM   18  C29 UNL     1      17.117  -7.449  -6.490  1.00  0.00     0.171 C 
ENDROOT
BRANCH   1  19
HETATM   19  C3  UNL     1      16.022  -5.180  -6.253  1.00  0.00    -0.019 C 
HETATM   20  C2  UNL     1      16.824  -4.131  -6.566  1.00  0.00    -0.018 C 
HETATM   21  C1  UNL     1      18.293  -4.161  -6.477  1.00  0.00     0.037 C 
BRANCH  19  22
HETATM   22  C4  UNL     1      14.591  -4.919  -6.431  1.00  0.00     0.043 A 
HETATM   23  C5  UNL     1      13.917  -3.815  -5.956  1.00  0.00     0.197 A 
HETATM   24  O2  UNL     1      12.627  -3.892  -6.303  1.00  0.00    -0.264 OA
HETATM   25  C6  UNL     1      12.403  -4.955  -6.966  1.00  0.00     0.192 A 
HETATM   26  C7  UNL     1      13.625  -5.660  -7.084  1.00  0.00     0.012 A 
HETATM   27  C8  UNL     1      13.718  -6.935  -7.807  1.00  0.00     0.054 C 
BRANCH  23  28
HETATM   28  O1  UNL     1      14.296  -2.697  -5.226  1.00  0.00    -0.340 OA
ATOM     29  H1  UNL     1      13.848  -1.906  -4.953  1.00  0.00     0.220 HD
ENDBRANCH  23  28
BRANCH  25  30
HETATM   30  O3  UNL     1      11.194  -5.344  -7.472  1.00  0.00    -0.340 OA
ATOM     31  H3  UNL     1      10.988  -6.201  -7.828  1.00  0.00     0.220 HD
ENDBRANCH  25  30
ENDBRANCH  19  22
ENDBRANCH   1  19
BRANCH  18  32
HETATM   32  O7  UNL     1      18.338  -7.926  -5.943  1.00  0.00    -0.387 OA
ATOM     33  H7  UNL     1      18.991  -7.247  -6.068  1.00  0.00     0.210 HD
ENDBRANCH  18  32
BRANCH  16  34
HETATM   34  C27 UNL     1      18.099  -6.742 -10.176  1.00  0.00     0.200 C 
BRANCH  34  35
HETATM   35  O6  UNL     1      17.908  -5.362 -10.239  1.00  0.00    -0.397 OA
ATOM     36  H6  UNL     1      18.490  -5.072 -10.932  1.00  0.00     0.209 HD
ENDBRANCH  34  35
ENDBRANCH  16  34
BRANCH  15  37
HETATM   37  O4  UNL     1      20.514  -6.301  -9.187  1.00  0.00    -0.312 OA
BRANCH  37  38
HETATM   38  C24 UNL     1      20.975  -5.099  -8.702  1.00  0.00     0.255 C 
HETATM   39  C25 UNL     1      21.933  -5.037  -7.537  1.00  0.00     0.126 C 
HETATM   40  O5  UNL     1      20.656  -3.973  -9.160  1.00  0.00    -0.266 OA
ENDBRANCH  37  38
ENDBRANCH  15  37
TORSDOF 9
ENDMDL
MODEL 3
REMARK VINA RESULT: -8.192088319      2.398      4.141
REMARK  9 active torsions:
REMARK  status: ('A' for Active; 'I' for Inactive)
REMARK    1  A    between atoms: C3_3  and  C4_4 
REMARK    2  A    between atoms: C3_3  and  C9_14 
REMARK    3  A    between atoms: C5_5  and  O1_6 
REMARK    4  A    between atoms: C6_9  and  O3_10 
REMARK    5  A    between atoms: C23_28  and  O4_29 
REMARK    6  A    between atoms: O4_29  and  C24_30 
REMARK    7  A    between atoms: C26_33  and  C27_34 
REMARK    8  A    between atoms: C27_34  and  O6_35 
REMARK    9  A    between atoms: C29_38  and  O7_39 
ROOT
HETATM    1  C9  UNL     1      16.506  -6.766  -4.283  1.00  0.00    -0.037 C 
HETATM    2  C10 UNL     1      16.678  -5.814  -3.158  1.00  0.00     0.038 C 
HETATM    3  C11 UNL     1      15.944  -6.295  -1.884  1.00  0.00     0.009 C 
HETATM    4  C12 UNL     1      16.384  -5.474  -0.688  1.00  0.00    -0.018 C 
HETATM    5  C13 UNL     1      15.161  -4.858  -0.000  1.00  0.00     0.010 C 
HETATM    6  C14 UNL     1      17.071  -6.355   0.368  1.00  0.00     0.004 C 
HETATM    7  C15 UNL     1      18.549  -6.408   0.212  1.00  0.00     0.001 C 
HETATM    8  C16 UNL     1      19.097  -7.809   0.489  1.00  0.00     0.004 C 
HETATM    9  C17 UNL     1      20.411  -7.982  -0.247  1.00  0.00     0.033 C 
HETATM   10  C18 UNL     1      20.671  -9.367  -0.677  1.00  0.00    -0.087 C 
HETATM   11  C19 UNL     1      20.311 -10.458   0.293  1.00  0.00     0.043 C 
HETATM   12  C20 UNL     1      21.186  -9.755  -1.823  1.00  0.00    -0.024 C 
HETATM   13  C21 UNL     1      21.615  -8.863  -2.936  1.00  0.00     0.030 C 
HETATM   14  C22 UNL     1      20.987  -9.275  -4.245  1.00  0.00     0.041 C 
HETATM   15  C23 UNL     1      20.440  -8.033  -4.907  1.00  0.00     0.163 C 
HETATM   16  C26 UNL     1      19.288  -8.361  -5.808  1.00  0.00    -0.029 C 
HETATM   17  C28 UNL     1      18.016  -8.343  -5.533  1.00  0.00     0.016 C 
HETATM   18  C29 UNL     1      17.283  -8.012  -4.296  1.00  0.00     0.171 C 
ENDROOT
BRANCH   1  19
HETATM   19  C3  UNL     1      16.223  -6.097  -5.565  1.00  0.00    -0.019 C 
HETATM   20  C2  UNL     1      17.138  -5.213  -6.036  1.00  0.00    -0.018 C 
HETATM   21  C1  UNL     1      18.468  -5.006  -5.440  1.00  0.00     0.037 C 
BRANCH  19  22
HETATM   22  C4  UNL     1      14.974  -6.136  -6.330  1.00  0.00     0.043 A 
HETATM   23  C5  UNL     1      14.503  -7.224  -7.034  1.00  0.00     0.197 A 
HETATM   24  O2  UNL     1      13.334  -6.917  -7.606  1.00  0.00    -0.264 OA
HETATM   25  C6  UNL     1      13.000  -5.720  -7.332  1.00  0.00     0.192 A 
HETATM   26  C7  UNL     1      14.012  -5.162  -6.515  1.00  0.00     0.012 A 
HETATM   27  C8  UNL     1      13.928  -3.785  -6.009  1.00  0.00     0.054 C 
BRANCH  23  28
HETATM   28  O1  UNL     1      14.983  -8.507  -7.254  1.00  0.00    -0.340 OA
ATOM     29  H1  UNL     1      15.105  -9.039  -8.031  1.00  0.00     0.220 HD
ENDBRANCH  23  28
BRANCH  25  30
HETATM   30  O3  UNL     1      11.864  -5.087  -7.757  1.00  0.00    -0.340 OA
ATOM     31  H3  UNL     1      11.012  -5.131  -7.338  1.00  0.00     0.220 HD
ENDBRANCH  25  30
ENDBRANCH  19  22
ENDBRANCH   1  19
BRANCH  18  32
HETATM   32  O7  UNL     1      18.155  -7.982  -3.174  1.00  0.00    -0.387 OA
ATOM     33  H7  UNL     1      18.203  -8.866  -2.827  1.00  0.00     0.210 HD
ENDBRANCH  18  32
BRANCH  16  34
HETATM   34  C27 UNL     1      19.732  -8.767  -7.209  1.00  0.00     0.200 C 
BRANCH  34  35
HETATM   35  O6  UNL     1      19.548  -7.620  -7.981  1.00  0.00    -0.397 OA
ATOM     36  H6  UNL     1      18.606  -7.550  -8.083  1.00  0.00     0.209 HD
ENDBRANCH  34  35
ENDBRANCH  16  34
BRANCH  15  37
HETATM   37  O4  UNL     1      21.515  -7.518  -5.704  1.00  0.00    -0.312 OA
BRANCH  37  38
HETATM   38  C24 UNL     1      21.790  -6.172  -5.641  1.00  0.00     0.255 C 
HETATM   39  C25 UNL     1      22.092  -5.372  -6.886  1.00  0.00     0.126 C 
HETATM   40  O5  UNL     1      21.818  -5.496  -4.582  1.00  0.00    -0.266 OA
ENDBRANCH  37  38
ENDBRANCH  15  37
TORSDOF 9
ENDMDL
MODEL 4
REMARK VINA RESULT: -8.099104269      1.278      1.766
REMARK  9 active torsions:
REMARK  status: ('A' for Active; 'I' for Inactive)
REMARK    1  A    between atoms: C3_3  and  C4_4 
REMARK    2  A    between atoms: C3_3  and  C9_14 
REMARK    3  A    between atoms: C5_5  and  O1_6 
REMARK    4  A    between atoms: C6_9  and  O3_10 
REMARK    5  A    between atoms: C23_28  and  O4_29 
REMARK    6  A    between atoms: O4_29  and  C24_30 
REMARK    7  A    between atoms: C26_33  and  C27_34 
REMARK    8  A    between atoms: C27_34  and  O6_35 
REMARK    9  A    between atoms: C29_38  and  O7_39 
ROOT
HETATM    1  C9  UNL     1      17.118  -6.954  -5.547  1.00  0.00    -0.037 C 
HETATM    2  C10 UNL     1      17.866  -6.542  -4.334  1.00  0.00     0.038 C 
HETATM    3  C11 UNL     1      17.600  -7.497  -3.146  1.00  0.00     0.009 C 
HETATM    4  C12 UNL     1      18.596  -7.234  -2.034  1.00  0.00    -0.018 C 
HETATM    5  C13 UNL     1      17.852  -6.946  -0.725  1.00  0.00     0.010 C 
HETATM    6  C14 UNL     1      19.469  -8.470  -1.767  1.00  0.00     0.004 C 
HETATM    7  C15 UNL     1      20.744  -8.461  -2.533  1.00  0.00     0.001 C 
HETATM    8  C16 UNL     1      21.106  -9.855  -3.046  1.00  0.00     0.004 C 
HETATM    9  C17 UNL     1      21.990  -9.719  -4.270  1.00  0.00     0.033 C 
HETATM   10  C18 UNL     1      21.825 -10.811  -5.245  1.00  0.00    -0.087 C 
HETATM   11  C19 UNL     1      21.677 -12.200  -4.690  1.00  0.00     0.043 C 
HETATM   12  C20 UNL     1      21.790 -10.702  -6.555  1.00  0.00    -0.024 C 
HETATM   13  C21 UNL     1      21.910  -9.436  -7.331  1.00  0.00     0.030 C 
HETATM   14  C22 UNL     1      20.771  -9.279  -8.308  1.00  0.00     0.041 C 
HETATM   15  C23 UNL     1      20.237  -7.873  -8.174  1.00  0.00     0.163 C 
HETATM   16  C26 UNL     1      18.791  -7.803  -8.562  1.00  0.00    -0.029 C 
HETATM   17  C28 UNL     1      17.743  -7.894  -7.795  1.00  0.00     0.016 C 
HETATM   18  C29 UNL     1      17.604  -8.091  -6.340  1.00  0.00     0.171 C 
ENDROOT
BRANCH   1  19
HETATM   19  C3  UNL     1      16.489  -5.821  -6.248  1.00  0.00    -0.019 C 
HETATM   20  C2  UNL     1      17.271  -4.762  -6.573  1.00  0.00    -0.018 C 
HETATM   21  C1  UNL     1      18.736  -4.742  -6.425  1.00  0.00     0.037 C 
BRANCH  19  22
HETATM   22  C4  UNL     1      15.059  -5.613  -6.493  1.00  0.00     0.043 A 
HETATM   23  C5  UNL     1      14.193  -6.553  -7.009  1.00  0.00     0.197 A 
HETATM   24  O2  UNL     1      12.964  -6.033  -7.094  1.00  0.00    -0.264 OA
HETATM   25  C6  UNL     1      12.954  -4.831  -6.674  1.00  0.00     0.192 A 
HETATM   26  C7  UNL     1      14.271  -4.500  -6.273  1.00  0.00     0.012 A 
HETATM   27  C8  UNL     1      14.605  -3.179  -5.724  1.00  0.00     0.054 C 
BRANCH  23  28
HETATM   28  O1  UNL     1      14.342  -7.864  -7.437  1.00  0.00    -0.340 OA
ATOM     29  H1  UNL     1      14.198  -8.710  -7.030  1.00  0.00     0.220 HD
ENDBRANCH  23  28
BRANCH  25  30
HETATM   30  O3  UNL     1      11.863  -4.008  -6.623  1.00  0.00    -0.340 OA
ATOM     31  H3  UNL     1      11.863  -3.099  -6.346  1.00  0.00     0.220 HD
ENDBRANCH  25  30
ENDBRANCH  19  22
ENDBRANCH   1  19
BRANCH  18  32
HETATM   32  O7  UNL     1      18.828  -8.522  -5.761  1.00  0.00    -0.387 OA
ATOM     33  H7  UNL     1      19.504  -8.429  -6.422  1.00  0.00     0.210 HD
ENDBRANCH  18  32
BRANCH  16  34
HETATM   34  C27 UNL     1      18.592  -7.606 -10.060  1.00  0.00     0.200 C 
BRANCH  34  35
HETATM   35  O6  UNL     1      18.410  -6.232 -10.213  1.00  0.00    -0.397 OA
ATOM     36  H6  UNL     1      18.827  -5.850  -9.449  1.00  0.00     0.209 HD
ENDBRANCH  34  35
ENDBRANCH  16  34
BRANCH  15  37
HETATM   37  O4  UNL     1      21.000  -7.083  -9.095  1.00  0.00    -0.312 OA
BRANCH  37  38
HETATM   38  C24 UNL     1      21.456  -5.853  -8.681  1.00  0.00     0.255 C 
HETATM   39  C25 UNL     1      22.543  -5.728  -7.640  1.00  0.00     0.126 C 
HETATM   40  O5  UNL     1      21.031  -4.751  -9.109  1.00  0.00    -0.266 OA
ENDBRANCH  37  38
ENDBRANCH  15  37
TORSDOF 9
ENDMDL
MODEL 5
REMARK VINA RESULT: -7.836745851      1.741      2.572
REMARK  9 active torsions:
REMARK  status: ('A' for Active; 'I' for Inactive)
REMARK    1  A    between atoms: C3_3  and  C4_4 
REMARK    2  A    between atoms: C3_3  and  C9_14 
REMARK    3  A    between atoms: C5_5  and  O1_6 
REMARK    4  A    between atoms: C6_9  and  O3_10 
REMARK    5  A    between atoms: C23_28  and  O4_29 
REMARK    6  A    between atoms: O4_29  and  C24_30 
REMARK    7  A    between atoms: C26_33  and  C27_34 
REMARK    8  A    between atoms: C27_34  and  O6_35 
REMARK    9  A    between atoms: C29_38  and  O7_39 
ROOT
HETATM    1  C9  UNL     1      17.073  -6.911  -5.897  1.00  0.00    -0.037 C 
HETATM    2  C10 UNL     1      17.726  -6.477  -4.638  1.00  0.00     0.038 C 
HETATM    3  C11 UNL     1      17.367  -7.407  -3.455  1.00  0.00     0.009 C 
HETATM    4  C12 UNL     1      18.275  -7.123  -2.275  1.00  0.00    -0.018 C 
HETATM    5  C13 UNL     1      17.433  -6.809  -1.033  1.00  0.00     0.010 C 
HETATM    6  C14 UNL     1      19.120  -8.356  -1.917  1.00  0.00     0.004 C 
HETATM    7  C15 UNL     1      20.450  -8.364  -2.582  1.00  0.00     0.001 C 
HETATM    8  C16 UNL     1      20.846  -9.769  -3.038  1.00  0.00     0.004 C 
HETATM    9  C17 UNL     1      21.823  -9.659  -4.193  1.00  0.00     0.033 C 
HETATM   10  C18 UNL     1      21.730 -10.769  -5.156  1.00  0.00    -0.087 C 
HETATM   11  C19 UNL     1      21.535 -12.147  -4.587  1.00  0.00     0.043 C 
HETATM   12  C20 UNL     1      21.796 -10.686  -6.467  1.00  0.00    -0.024 C 
HETATM   13  C21 UNL     1      21.980  -9.436  -7.256  1.00  0.00     0.030 C 
HETATM   14  C22 UNL     1      20.921  -9.296  -8.321  1.00  0.00     0.041 C 
HETATM   15  C23 UNL     1      20.382  -7.887  -8.256  1.00  0.00     0.163 C 
HETATM   16  C26 UNL     1      18.971  -7.822  -8.756  1.00  0.00    -0.029 C 
HETATM   17  C28 UNL     1      17.866  -7.896  -8.071  1.00  0.00     0.016 C 
HETATM   18  C29 UNL     1      17.614  -8.064  -6.627  1.00  0.00     0.171 C 
ENDROOT
BRANCH   1  19
HETATM   19  C3  UNL     1      16.503  -5.791  -6.666  1.00  0.00    -0.019 C 
HETATM   20  C2  UNL     1      15.400  -6.033  -7.417  1.00  0.00    -0.018 C 
HETATM   21  C1  UNL     1      14.636  -7.291  -7.379  1.00  0.00     0.037 C 
BRANCH  19  22
HETATM   22  C4  UNL     1      17.089  -4.462  -6.864  1.00  0.00     0.043 A 
HETATM   23  C5  UNL     1      17.923  -4.105  -7.901  1.00  0.00     0.197 A 
HETATM   24  O2  UNL     1      18.265  -2.818  -7.780  1.00  0.00    -0.264 OA
HETATM   25  C6  UNL     1      17.721  -2.303  -6.751  1.00  0.00     0.192 A 
HETATM   26  C7  UNL     1      16.951  -3.308  -6.118  1.00  0.00     0.012 A 
HETATM   27  C8  UNL     1      16.179  -3.039  -4.897  1.00  0.00     0.054 C 
BRANCH  23  28
HETATM   28  O1  UNL     1      18.452  -4.787  -8.989  1.00  0.00    -0.340 OA
ATOM     29  H1  UNL     1      19.093  -4.568  -9.654  1.00  0.00     0.220 HD
ENDBRANCH  23  28
BRANCH  25  30
HETATM   30  O3  UNL     1      17.860  -1.008  -6.333  1.00  0.00    -0.340 OA
ATOM     31  H3  UNL     1      18.545  -0.677  -5.763  1.00  0.00     0.220 HD
ENDBRANCH  25  30
ENDBRANCH  19  22
ENDBRANCH   1  19
BRANCH  18  32
HETATM   32  O7  UNL     1      18.789  -8.486  -5.947  1.00  0.00    -0.387 OA
ATOM     33  H7  UNL     1      19.280  -7.706  -5.717  1.00  0.00     0.210 HD
ENDBRANCH  18  32
BRANCH  16  34
HETATM   34  C27 UNL     1      18.888  -7.655 -10.269  1.00  0.00     0.200 C 
BRANCH  34  35
HETATM   35  O6  UNL     1      17.683  -6.986 -10.482  1.00  0.00    -0.397 OA
ATOM     36  H6  UNL     1      17.805  -6.138 -10.070  1.00  0.00     0.209 HD
ENDBRANCH  34  35
ENDBRANCH  16  34
BRANCH  15  37
HETATM   37  O4  UNL     1      21.216  -7.117  -9.131  1.00  0.00    -0.312 OA
BRANCH  37  38
HETATM   38  C24 UNL     1      21.737  -5.932  -8.664  1.00  0.00     0.255 C 
HETATM   39  C25 UNL     1      22.891  -5.909  -7.692  1.00  0.00     0.126 C 
HETATM   40  O5  UNL     1      21.319  -4.791  -8.986  1.00  0.00    -0.266 OA
ENDBRANCH  37  38
ENDBRANCH  15  37
TORSDOF 9
ENDMDL
