MODEL 1
REMARK VINA RESULT: -8.656951228      0.000      0.000
REMARK  9 active torsions:
REMARK  status: ('A' for Active; 'I' for Inactive)
REMARK    1  A    between atoms: C2_2  and  C3_3 
REMARK    2  A    between atoms: C2_2  and  C26_35 
REMARK    3  A    between atoms: C3_3  and  C4_4 
REMARK    4  A    between atoms: C4_4  and  C5_5 
REMARK    5  A    between atoms: C10_10  and  O1_11 
REMARK    6  A    between atoms: C19_21  and  O2_22 
REMARK    7  A    between atoms: C20_24  and  C21_25 
REMARK    8  A    between atoms: C21_25  and  C22_26 
REMARK    9  A    between atoms: C25_32  and  O3_33 
ROOT
HETATM    1  C5  UNL     1      12.350   3.173   2.477  1.00  0.00     0.089 C 
HETATM    2  C6  UNL     1      11.878   3.763   3.825  1.00  0.00    -0.001 C 
HETATM    3  C7  UNL     1      10.419   3.561   4.030  1.00  0.00     0.011 C 
HETATM    4  C8  UNL     1      12.223   5.196   3.860  1.00  0.00     0.008 C 
HETATM    5  C9  UNL     1      12.714   5.788   5.148  1.00  0.00     0.033 C 
HETATM    6  C10 UNL     1      12.433   7.275   5.085  1.00  0.00     0.126 C 
HETATM    7  C11 UNL     1      13.464   8.112   4.417  1.00  0.00    -0.021 C 
HETATM    8  C12 UNL     1      13.670   9.312   5.379  1.00  0.00     0.017 C 
HETATM    9  C13 UNL     1      14.841   7.507   4.335  1.00  0.00     0.017 C 
HETATM   10  C14 UNL     1      12.992   8.746   3.133  1.00  0.00     0.015 C 
HETATM   11  C15 UNL     1      13.539   8.141   1.888  1.00  0.00     0.028 C 
HETATM   12  C16 UNL     1      13.553   9.057   0.737  1.00  0.00    -0.017 C 
HETATM   13  C17 UNL     1      13.415   8.757  -0.539  1.00  0.00    -0.032 C 
HETATM   14  C18 UNL     1      13.487  10.004  -1.428  1.00  0.00     0.050 C 
HETATM   15  C19 UNL     1      13.206   7.487  -1.158  1.00  0.00     0.074 C 
HETATM   16  C20 UNL     1      13.925   6.208  -1.151  1.00  0.00    -0.042 C 
HETATM   17  C23 UNL     1      13.074   5.048  -0.707  1.00  0.00     0.040 C 
HETATM   18  C24 UNL     1      13.452   4.373   0.555  1.00  0.00     0.037 C 
HETATM   19  C25 UNL     1      12.199   4.146   1.374  1.00  0.00     0.133 C 
ENDROOT
BRANCH   1  20
HETATM   20  C4  UNL     1      11.899   1.852   2.359  1.00  0.00    -0.147 C 
BRANCH  20  21
HETATM   21  C3  UNL     1      11.489   0.652   2.252  1.00  0.00     0.060 C 
BRANCH  21  22
HETATM   22  C2  UNL     1      12.045  -0.269   1.246  1.00  0.00    -0.031 C 
HETATM   23  C1  UNL     1      13.030   0.155   0.436  1.00  0.00     0.022 C 
BRANCH  22  24
HETATM   24  C26 UNL     1      11.515  -1.637   1.172  1.00  0.00     0.165 C 
HETATM   25  C27 UNL     1      12.522  -2.658   0.666  1.00  0.00     0.051 C 
HETATM   26  C28 UNL     1      13.282  -2.987   1.905  1.00  0.00     0.084 C 
HETATM   27  C29 UNL     1      13.281  -4.491   2.208  1.00  0.00     0.020 C 
HETATM   28  C30 UNL     1      12.570  -2.356   3.051  1.00  0.00     0.263 C 
HETATM   29  O4  UNL     1      13.032  -2.179   4.180  1.00  0.00    -0.265 OA
HETATM   30  O5  UNL     1      11.309  -2.029   2.551  1.00  0.00    -0.311 OA
ENDBRANCH  22  24
ENDBRANCH  21  22
ENDBRANCH  20  21
ENDBRANCH   1  20
BRANCH  19  31
HETATM   31  O3  UNL     1      11.220   3.733   0.480  1.00  0.00    -0.394 OA
ATOM     32  H3  UNL     1      10.623   3.119   0.892  1.00  0.00     0.210 HD
ENDBRANCH  19  31
BRANCH   6  33
HETATM   33  O1  UNL     1      12.180   7.649   6.425  1.00  0.00    -0.395 OA
ATOM     34  H1  UNL     1      12.921   7.311   6.914  1.00  0.00     0.210 HD
ENDBRANCH   6  33
BRANCH  16  35
HETATM   35  C21 UNL     1      15.330   6.160  -0.703  1.00  0.00     0.081 C 
BRANCH  35  36
HETATM   36  C22 UNL     1      16.307   5.667  -1.712  1.00  0.00     0.057 C 
HETATM   37  N1  UNL     1      15.973   4.889  -2.655  1.00  0.00    -0.411 N 
ATOM     38  H12 UNL     1      14.996   4.600  -2.710  1.00  0.00     0.155 HD
ATOM     39  H11 UNL     1      16.642   4.551  -3.346  1.00  0.00     0.155 HD
ENDBRANCH  35  36
ENDBRANCH  16  35
BRANCH  15  40
HETATM   40  O2  UNL     1      12.135   7.432  -1.905  1.00  0.00    -0.360 OA
ATOM     41  H2  UNL     1      11.838   8.281  -2.212  1.00  0.00     0.217 HD
ENDBRANCH  15  40
TORSDOF 9
ENDMDL
MODEL 2
REMARK VINA RESULT: -8.613894246     11.466     14.229
REMARK  9 active torsions:
REMARK  status: ('A' for Active; 'I' for Inactive)
REMARK    1  A    between atoms: C2_2  and  C3_3 
REMARK    2  A    between atoms: C2_2  and  C26_35 
REMARK    3  A    between atoms: C3_3  and  C4_4 
REMARK    4  A    between atoms: C4_4  and  C5_5 
REMARK    5  A    between atoms: C10_10  and  O1_11 
REMARK    6  A    between atoms: C19_21  and  O2_22 
REMARK    7  A    between atoms: C20_24  and  C21_25 
REMARK    8  A    between atoms: C21_25  and  C22_26 
REMARK    9  A    between atoms: C25_32  and  O3_33 
ROOT
HETATM    1  C5  UNL     1      18.102  -7.647  -3.071  1.00  0.00     0.089 C 
HETATM    2  C6  UNL     1      19.614  -7.858  -3.310  1.00  0.00    -0.001 C 
HETATM    3  C7  UNL     1      20.412  -7.514  -2.102  1.00  0.00     0.011 C 
HETATM    4  C8  UNL     1      20.029  -7.045  -4.466  1.00  0.00     0.008 C 
HETATM    5  C9  UNL     1      21.021  -7.618  -5.433  1.00  0.00     0.033 C 
HETATM    6  C10 UNL     1      21.688  -6.448  -6.127  1.00  0.00     0.126 C 
HETATM    7  C11 UNL     1      20.985  -5.903  -7.319  1.00  0.00    -0.021 C 
HETATM    8  C12 UNL     1      22.100  -5.747  -8.387  1.00  0.00     0.017 C 
HETATM    9  C13 UNL     1      20.011  -6.839  -7.985  1.00  0.00     0.017 C 
HETATM   10  C14 UNL     1      20.462  -4.503  -7.126  1.00  0.00     0.015 C 
HETATM   11  C15 UNL     1      18.987  -4.394  -6.954  1.00  0.00     0.028 C 
HETATM   12  C16 UNL     1      18.439  -3.083  -7.331  1.00  0.00    -0.017 C 
HETATM   13  C17 UNL     1      17.394  -2.463  -6.817  1.00  0.00    -0.032 C 
HETATM   14  C18 UNL     1      17.150  -1.107  -7.489  1.00  0.00     0.050 C 
HETATM   15  C19 UNL     1      16.521  -2.872  -5.763  1.00  0.00     0.074 C 
HETATM   16  C20 UNL     1      15.678  -4.047  -5.524  1.00  0.00    -0.042 C 
HETATM   17  C23 UNL     1      15.991  -4.753  -4.232  1.00  0.00     0.040 C 
HETATM   18  C24 UNL     1      16.527  -6.130  -4.323  1.00  0.00     0.037 C 
HETATM   19  C25 UNL     1      17.693  -6.257  -3.365  1.00  0.00     0.133 C 
ENDROOT
BRANCH   1  20
HETATM   20  C4  UNL     1      17.719  -8.291  -1.887  1.00  0.00    -0.147 C 
BRANCH  20  21
HETATM   21  C3  UNL     1      17.371  -8.875  -0.812  1.00  0.00     0.060 C 
BRANCH  21  22
HETATM   22  C2  UNL     1      17.867  -8.435   0.503  1.00  0.00    -0.031 C 
HETATM   23  C1  UNL     1      17.798  -7.134   0.833  1.00  0.00     0.022 C 
BRANCH  22  24
HETATM   24  C26 UNL     1      18.407  -9.441   1.428  1.00  0.00     0.165 C 
HETATM   25  C27 UNL     1      19.218 -10.530   0.742  1.00  0.00     0.051 C 
HETATM   26  C28 UNL     1      20.556  -9.887   0.612  1.00  0.00     0.084 C 
HETATM   27  C29 UNL     1      21.671 -10.726   1.249  1.00  0.00     0.020 C 
HETATM   28  C30 UNL     1      20.525  -8.619   1.392  1.00  0.00     0.263 C 
HETATM   29  O4  UNL     1      21.337  -7.696   1.305  1.00  0.00    -0.265 OA
HETATM   30  O5  UNL     1      19.399  -8.731   2.209  1.00  0.00    -0.311 OA
ENDBRANCH  22  24
ENDBRANCH  21  22
ENDBRANCH  20  21
ENDBRANCH   1  20
BRANCH  19  31
HETATM   31  O3  UNL     1      17.317  -5.596  -2.204  1.00  0.00    -0.394 OA
ATOM     32  H3  UNL     1      16.446  -5.226  -2.292  1.00  0.00     0.210 HD
ENDBRANCH  19  31
BRANCH   6  33
HETATM   33  O1  UNL     1      23.002  -6.894  -6.398  1.00  0.00    -0.395 OA
ATOM     34  H1  UNL     1      23.479  -6.108  -6.638  1.00  0.00     0.210 HD
ENDBRANCH   6  33
BRANCH  16  35
HETATM   35  C21 UNL     1      15.318  -4.933  -6.649  1.00  0.00     0.081 C 
BRANCH  35  36
HETATM   36  C22 UNL     1      13.865  -5.214  -6.802  1.00  0.00     0.057 C 
HETATM   37  N1  UNL     1      13.402  -6.393  -6.833  1.00  0.00    -0.411 N 
ATOM     38  H12 UNL     1      14.062  -7.166  -6.747  1.00  0.00     0.155 HD
ATOM     39  H11 UNL     1      12.406  -6.586  -6.938  1.00  0.00     0.155 HD
ENDBRANCH  35  36
ENDBRANCH  16  35
BRANCH  15  40
HETATM   40  O2  UNL     1      16.443  -2.015  -4.779  1.00  0.00    -0.360 OA
ATOM     41  H2  UNL     1      16.499  -2.414  -3.918  1.00  0.00     0.217 HD
ENDBRANCH  15  40
TORSDOF 9
ENDMDL
MODEL 3
REMARK VINA RESULT: -8.421566856      8.901     13.485
REMARK  9 active torsions:
REMARK  status: ('A' for Active; 'I' for Inactive)
REMARK    1  A    between atoms: C2_2  and  C3_3 
REMARK    2  A    between atoms: C2_2  and  C26_35 
REMARK    3  A    between atoms: C3_3  and  C4_4 
REMARK    4  A    between atoms: C4_4  and  C5_5 
REMARK    5  A    between atoms: C10_10  and  O1_11 
REMARK    6  A    between atoms: C19_21  and  O2_22 
REMARK    7  A    between atoms: C20_24  and  C21_25 
REMARK    8  A    between atoms: C21_25  and  C22_26 
REMARK    9  A    between atoms: C25_32  and  O3_33 
ROOT
HETATM    1  C5  UNL     1      16.520  -6.583  -1.924  1.00  0.00     0.089 C 
HETATM    2  C6  UNL     1      17.897  -7.067  -1.417  1.00  0.00    -0.001 C 
HETATM    3  C7  UNL     1      18.455  -6.148  -0.388  1.00  0.00     0.011 C 
HETATM    4  C8  UNL     1      18.810  -7.186  -2.567  1.00  0.00     0.008 C 
HETATM    5  C9  UNL     1      19.768  -8.340  -2.613  1.00  0.00     0.033 C 
HETATM    6  C10 UNL     1      20.916  -7.926  -3.510  1.00  0.00     0.126 C 
HETATM    7  C11 UNL     1      20.726  -8.150  -4.967  1.00  0.00    -0.021 C 
HETATM    8  C12 UNL     1      22.051  -8.810  -5.433  1.00  0.00     0.017 C 
HETATM    9  C13 UNL     1      19.690  -9.179  -5.338  1.00  0.00     0.017 C 
HETATM   10  C14 UNL     1      20.646  -6.878  -5.771  1.00  0.00     0.015 C 
HETATM   11  C15 UNL     1      19.285  -6.520  -6.259  1.00  0.00     0.028 C 
HETATM   12  C16 UNL     1      19.289  -5.663  -7.455  1.00  0.00    -0.017 C 
HETATM   13  C17 UNL     1      18.406  -4.744  -7.796  1.00  0.00    -0.032 C 
HETATM   14  C18 UNL     1      18.772  -4.068  -9.122  1.00  0.00     0.050 C 
HETATM   15  C19 UNL     1      17.226  -4.320  -7.113  1.00  0.00     0.074 C 
HETATM   16  C20 UNL     1      16.020  -4.996  -6.624  1.00  0.00    -0.042 C 
HETATM   17  C23 UNL     1      15.778  -4.792  -5.152  1.00  0.00     0.040 C 
HETATM   18  C24 UNL     1      15.854  -5.985  -4.280  1.00  0.00     0.037 C 
HETATM   19  C25 UNL     1      16.657  -5.630  -3.046  1.00  0.00     0.133 C 
ENDROOT
BRANCH   1  20
HETATM   20  C4  UNL     1      15.684  -6.318  -0.832  1.00  0.00    -0.147 C 
BRANCH  20  21
HETATM   21  C3  UNL     1      14.925  -6.076   0.159  1.00  0.00     0.060 C 
BRANCH  21  22
HETATM   22  C2  UNL     1      14.725  -4.708   0.666  1.00  0.00    -0.031 C 
HETATM   23  C1  UNL     1      15.600  -4.197   1.549  1.00  0.00     0.022 C 
BRANCH  22  24
HETATM   24  C26 UNL     1      13.578  -3.932   0.175  1.00  0.00     0.165 C 
HETATM   25  C27 UNL     1      12.247  -4.655   0.310  1.00  0.00     0.051 C 
HETATM   26  C28 UNL     1      11.876  -4.364   1.724  1.00  0.00     0.084 C 
HETATM   27  C29 UNL     1      10.495  -3.707   1.843  1.00  0.00     0.020 C 
HETATM   28  C30 UNL     1      12.838  -3.351   2.243  1.00  0.00     0.263 C 
HETATM   29  O4  UNL     1      13.019  -3.066   3.428  1.00  0.00    -0.265 OA
HETATM   30  O5  UNL     1      13.453  -2.828   1.104  1.00  0.00    -0.311 OA
ENDBRANCH  22  24
ENDBRANCH  21  22
ENDBRANCH  20  21
ENDBRANCH   1  20
BRANCH  19  31
HETATM   31  O3  UNL     1      16.248  -4.359  -2.668  1.00  0.00    -0.394 OA
ATOM     32  H3  UNL     1      16.599  -3.701  -3.258  1.00  0.00     0.210 HD
ENDBRANCH  19  31
BRANCH   6  33
HETATM   33  O1  UNL     1      22.045  -8.590  -2.976  1.00  0.00    -0.395 OA
ATOM     34  H1  UNL     1      21.724  -9.449  -2.727  1.00  0.00     0.210 HD
ENDBRANCH   6  33
BRANCH  16  35
HETATM   35  C21 UNL     1      15.674  -6.337  -7.134  1.00  0.00     0.081 C 
BRANCH  35  36
HETATM   36  C22 UNL     1      14.293  -6.480  -7.671  1.00  0.00     0.057 C 
HETATM   37  N1  UNL     1      13.400  -7.152  -7.074  1.00  0.00    -0.411 N 
ATOM     38  H12 UNL     1      13.652  -7.604  -6.195  1.00  0.00     0.155 HD
ATOM     39  H11 UNL     1      12.454  -7.250  -7.442  1.00  0.00     0.155 HD
ENDBRANCH  35  36
ENDBRANCH  16  35
BRANCH  15  40
HETATM   40  O2  UNL     1      17.194  -3.037  -6.860  1.00  0.00    -0.360 OA
ATOM     41  H2  UNL     1      16.745  -2.817  -6.053  1.00  0.00     0.217 HD
ENDBRANCH  15  40
TORSDOF 9
ENDMDL
MODEL 4
REMARK VINA RESULT: -8.380632313     11.559     14.449
REMARK  9 active torsions:
REMARK  status: ('A' for Active; 'I' for Inactive)
REMARK    1  A    between atoms: C2_2  and  C3_3 
REMARK    2  A    between atoms: C2_2  and  C26_35 
REMARK    3  A    between atoms: C3_3  and  C4_4 
REMARK    4  A    between atoms: C4_4  and  C5_5 
REMARK    5  A    between atoms: C10_10  and  O1_11 
REMARK    6  A    between atoms: C19_21  and  O2_22 
REMARK    7  A    between atoms: C20_24  and  C21_25 
REMARK    8  A    between atoms: C21_25  and  C22_26 
REMARK    9  A    between atoms: C25_32  and  O3_33 
ROOT
HETATM    1  C5  UNL     1      20.128  -7.815  -3.887  1.00  0.00     0.089 C 
HETATM    2  C6  UNL     1      21.337  -6.929  -4.266  1.00  0.00    -0.001 C 
HETATM    3  C7  UNL     1      22.019  -6.389  -3.060  1.00  0.00     0.011 C 
HETATM    4  C8  UNL     1      20.869  -5.839  -5.140  1.00  0.00     0.008 C 
HETATM    5  C9  UNL     1      21.731  -5.416  -6.292  1.00  0.00     0.033 C 
HETATM    6  C10 UNL     1      21.347  -3.991  -6.632  1.00  0.00     0.126 C 
HETATM    7  C11 UNL     1      20.194  -3.822  -7.556  1.00  0.00    -0.021 C 
HETATM    8  C12 UNL     1      20.677  -2.770  -8.588  1.00  0.00     0.017 C 
HETATM    9  C13 UNL     1      19.873  -5.015  -8.419  1.00  0.00     0.017 C 
HETATM   10  C14 UNL     1      18.990  -3.184  -6.914  1.00  0.00     0.015 C 
HETATM   11  C15 UNL     1      17.856  -4.107  -6.632  1.00  0.00     0.028 C 
HETATM   12  C16 UNL     1      16.548  -3.438  -6.557  1.00  0.00    -0.017 C 
HETATM   13  C17 UNL     1      15.508  -3.772  -5.818  1.00  0.00    -0.032 C 
HETATM   14  C18 UNL     1      14.330  -2.814  -6.027  1.00  0.00     0.050 C 
HETATM   15  C19 UNL     1      15.359  -4.849  -4.892  1.00  0.00     0.074 C 
HETATM   16  C20 UNL     1      15.503  -6.306  -4.975  1.00  0.00    -0.042 C 
HETATM   17  C23 UNL     1      16.485  -6.866  -3.982  1.00  0.00     0.040 C 
HETATM   18  C24 UNL     1      17.710  -7.499  -4.521  1.00  0.00     0.037 C 
HETATM   19  C25 UNL     1      18.898  -7.012  -3.717  1.00  0.00     0.133 C 
ENDROOT
BRANCH   1  20
HETATM   20  C4  UNL     1      20.523  -8.766  -2.938  1.00  0.00    -0.147 C 
BRANCH  20  21
HETATM   21  C3  UNL     1      20.881  -9.630  -2.075  1.00  0.00     0.060 C 
BRANCH  21  22
HETATM   22  C2  UNL     1      21.261  -9.245  -0.705  1.00  0.00    -0.031 C 
HETATM   23  C1  UNL     1      22.494  -8.765  -0.472  1.00  0.00     0.022 C 
BRANCH  22  24
HETATM   24  C26 UNL     1      20.266  -9.382   0.368  1.00  0.00     0.165 C 
HETATM   25  C27 UNL     1      20.800  -9.026   1.747  1.00  0.00     0.051 C 
HETATM   26  C28 UNL     1      20.659  -7.543   1.763  1.00  0.00     0.084 C 
HETATM   27  C29 UNL     1      19.832  -7.048   2.957  1.00  0.00     0.020 C 
HETATM   28  C30 UNL     1      19.878  -7.151   0.557  1.00  0.00     0.263 C 
HETATM   29  O4  UNL     1      19.791  -6.014   0.089  1.00  0.00    -0.265 OA
HETATM   30  O5  UNL     1      19.296  -8.338   0.108  1.00  0.00    -0.311 OA
ENDBRANCH  22  24
ENDBRANCH  21  22
ENDBRANCH  20  21
ENDBRANCH   1  20
BRANCH  19  31
HETATM   31  O3  UNL     1      18.492  -7.004  -2.390  1.00  0.00    -0.394 OA
ATOM     32  H3  UNL     1      18.567  -7.870  -2.007  1.00  0.00     0.210 HD
ENDBRANCH  19  31
BRANCH   6  33
HETATM   33  O1  UNL     1      22.542  -3.399  -7.102  1.00  0.00    -0.395 OA
ATOM     34  H1  UNL     1      22.609  -2.580  -6.627  1.00  0.00     0.210 HD
ENDBRANCH   6  33
BRANCH  16  35
HETATM   35  C21 UNL     1      15.502  -6.968  -6.294  1.00  0.00     0.081 C 
BRANCH  35  36
HETATM   36  C22 UNL     1      14.356  -6.627  -7.180  1.00  0.00     0.057 C 
HETATM   37  N1  UNL     1      13.240  -7.224  -7.106  1.00  0.00    -0.411 N 
ATOM     38  H12 UNL     1      13.141  -7.961  -6.408  1.00  0.00     0.155 HD
ATOM     39  H11 UNL     1      12.454  -6.990  -7.713  1.00  0.00     0.155 HD
ENDBRANCH  35  36
ENDBRANCH  16  35
BRANCH  15  40
HETATM   40  O2  UNL     1      15.015  -4.468  -3.689  1.00  0.00    -0.360 OA
ATOM     41  H2  UNL     1      15.097  -5.149  -3.033  1.00  0.00     0.217 HD
ENDBRANCH  15  40
TORSDOF 9
ENDMDL
MODEL 5
REMARK VINA RESULT: -8.371534561      6.815     12.676
REMARK  9 active torsions:
REMARK  status: ('A' for Active; 'I' for Inactive)
REMARK    1  A    between atoms: C2_2  and  C3_3 
REMARK    2  A    between atoms: C2_2  and  C26_35 
REMARK    3  A    between atoms: C3_3  and  C4_4 
REMARK    4  A    between atoms: C4_4  and  C5_5 
REMARK    5  A    between atoms: C10_10  and  O1_11 
REMARK    6  A    between atoms: C19_21  and  O2_22 
REMARK    7  A    between atoms: C20_24  and  C21_25 
REMARK    8  A    between atoms: C21_25  and  C22_26 
REMARK    9  A    between atoms: C25_32  and  O3_33 
ROOT
HETATM    1  C5  UNL     1      15.127  -5.688  -0.436  1.00  0.00     0.089 C 
HETATM    2  C6  UNL     1      16.005  -5.594   0.833  1.00  0.00    -0.001 C 
HETATM    3  C7  UNL     1      16.060  -4.204   1.360  1.00  0.00     0.011 C 
HETATM    4  C8  UNL     1      17.355  -6.090   0.512  1.00  0.00     0.008 C 
HETATM    5  C9  UNL     1      18.082  -6.917   1.530  1.00  0.00     0.033 C 
HETATM    6  C10 UNL     1      19.561  -6.791   1.228  1.00  0.00     0.126 C 
HETATM    7  C11 UNL     1      20.108  -7.731   0.214  1.00  0.00    -0.021 C 
HETATM    8  C12 UNL     1      21.411  -8.275   0.855  1.00  0.00     0.017 C 
HETATM    9  C13 UNL     1      19.300  -8.982  -0.016  1.00  0.00     0.017 C 
HETATM   10  C14 UNL     1      20.572  -7.056  -1.051  1.00  0.00     0.015 C 
HETATM   11  C15 UNL     1      19.687  -7.244  -2.233  1.00  0.00     0.028 C 
HETATM   12  C16 UNL     1      20.378  -7.099  -3.523  1.00  0.00    -0.017 C 
HETATM   13  C17 UNL     1      19.885  -6.649  -4.661  1.00  0.00    -0.032 C 
HETATM   14  C18 UNL     1      20.935  -6.654  -5.778  1.00  0.00     0.050 C 
HETATM   15  C19 UNL     1      18.572  -6.172  -4.957  1.00  0.00     0.074 C 
HETATM   16  C20 UNL     1      17.222  -6.732  -4.837  1.00  0.00    -0.042 C 
HETATM   17  C23 UNL     1      16.295  -5.882  -4.010  1.00  0.00     0.040 C 
HETATM   18  C24 UNL     1      15.800  -6.457  -2.739  1.00  0.00     0.037 C 
HETATM   19  C25 UNL     1      15.906  -5.400  -1.659  1.00  0.00     0.133 C 
ENDROOT
BRANCH   1  20
HETATM   20  C4  UNL     1      13.887  -5.082  -0.194  1.00  0.00    -0.147 C 
BRANCH  20  21
HETATM   21  C3  UNL     1      12.761  -4.531   0.024  1.00  0.00     0.060 C 
BRANCH  21  22
HETATM   22  C2  UNL     1      12.263  -4.304   1.391  1.00  0.00    -0.031 C 
HETATM   23  C1  UNL     1      11.324  -5.122   1.896  1.00  0.00     0.022 C 
BRANCH  22  24
HETATM   24  C26 UNL     1      12.824  -3.193   2.172  1.00  0.00     0.165 C 
HETATM   25  C27 UNL     1      13.142  -1.959   1.341  1.00  0.00     0.051 C 
HETATM   26  C28 UNL     1      11.817  -1.281   1.270  1.00  0.00     0.084 C 
HETATM   27  C29 UNL     1      11.874   0.166   1.778  1.00  0.00     0.020 C 
HETATM   28  C30 UNL     1      10.898  -1.988   2.205  1.00  0.00     0.263 C 
HETATM   29  O4  UNL     1       9.669  -1.892   2.221  1.00  0.00    -0.265 OA
HETATM   30  O5  UNL     1      11.735  -2.750   3.020  1.00  0.00    -0.311 OA
ENDBRANCH  22  24
ENDBRANCH  21  22
ENDBRANCH  20  21
ENDBRANCH   1  20
BRANCH  19  31
HETATM   31  O3  UNL     1      15.495  -4.208  -2.239  1.00  0.00    -0.394 OA
ATOM     32  H3  UNL     1      15.821  -3.462  -1.749  1.00  0.00     0.210 HD
ENDBRANCH  19  31
BRANCH   6  33
HETATM   33  O1  UNL     1      20.194  -6.885   2.489  1.00  0.00    -0.395 OA
ATOM     34  H1  UNL     1      21.090  -7.129   2.291  1.00  0.00     0.210 HD
ENDBRANCH   6  33
BRANCH  16  35
HETATM   35  C21 UNL     1      17.045  -8.188  -4.676  1.00  0.00     0.081 C 
BRANCH  35  36
HETATM   36  C22 UNL     1      16.504  -8.902  -5.865  1.00  0.00     0.057 C 
HETATM   37  N1  UNL     1      15.501  -8.477  -6.513  1.00  0.00    -0.411 N 
ATOM     38  H12 UNL     1      15.061  -7.613  -6.195  1.00  0.00     0.155 HD
ATOM     39  H11 UNL     1      15.131  -8.966  -7.328  1.00  0.00     0.155 HD
ENDBRANCH  35  36
ENDBRANCH  16  35
BRANCH  15  40
HETATM   40  O2  UNL     1      18.548  -4.961  -5.451  1.00  0.00    -0.360 OA
ATOM     41  H2  UNL     1      17.788  -4.456  -5.190  1.00  0.00     0.217 HD
ENDBRANCH  15  40
TORSDOF 9
ENDMDL
