MODEL 1
REMARK VINA RESULT: -10.483316231      0.000      0.000
REMARK  10 active torsions:
REMARK  status: ('A' for Active; 'I' for Inactive)
REMARK    1  A    between atoms: C6_6  and  C7_7 
REMARK    2  A    between atoms: C7_7  and  C24_35 
REMARK    3  A    between atoms: C8_8  and  C9_9 
REMARK    4  A    between atoms: C9_9  and  O1_10 
REMARK    5  A    between atoms: O1_10  and  C10_11 
REMARK    6  A    between atoms: C11_12  and  C12_13 
REMARK    7  A    between atoms: C18_20  and  O2_21 
REMARK    8  A    between atoms: C20_24  and  O3_25 
REMARK    9  A    between atoms: C21_28  and  O5_29 
REMARK   10  A    between atoms: C23_32  and  O6_33 
ROOT
HETATM    1  C10 UNL     1      16.400  -5.628  -1.396  1.00  0.00     0.116 A 
HETATM    2  C11 UNL     1      17.189  -6.729  -1.599  1.00  0.00     0.040 A 
HETATM    3  C18 UNL     1      17.335  -7.236  -2.898  1.00  0.00     0.095 A 
HETATM    4  C19 UNL     1      16.706  -6.662  -3.994  1.00  0.00     0.074 A 
HETATM    5  C20 UNL     1      16.654  -6.922  -5.342  1.00  0.00     0.200 A 
HETATM    6  O4  UNL     1      15.887  -6.029  -5.890  1.00  0.00    -0.263 OA
HETATM    7  C21 UNL     1      15.422  -5.190  -5.007  1.00  0.00     0.200 A 
HETATM    8  C22 UNL     1      15.912  -5.541  -3.760  1.00  0.00     0.076 A 
HETATM    9  C23 UNL     1      15.764  -5.036  -2.489  1.00  0.00     0.116 A 
ENDROOT
BRANCH   1  10
HETATM   10  O1  UNL     1      16.182  -5.058  -0.162  1.00  0.00    -0.344 OA
BRANCH  10  11
HETATM   11  C9  UNL     1      14.895  -5.032   0.485  1.00  0.00     0.203 C 
BRANCH  11  12
HETATM   12  C8  UNL     1      14.250  -3.743   0.583  1.00  0.00     0.003 C 
HETATM   13  C7  UNL     1      13.204  -3.227   1.102  1.00  0.00    -0.073 C 
BRANCH  13  14
HETATM   14  C6  UNL     1      12.924  -1.714   0.930  1.00  0.00     0.015 C 
HETATM   15  C5  UNL     1      13.683  -0.966   2.013  1.00  0.00     0.013 C 
HETATM   16  C4  UNL     1      12.755   0.033   2.632  1.00  0.00     0.028 C 
HETATM   17  C3  UNL     1      12.597   1.165   1.683  1.00  0.00    -0.024 C 
HETATM   18  C2  UNL     1      12.563   1.163   0.371  1.00  0.00    -0.087 C 
HETATM   19  C1  UNL     1      12.383   2.571  -0.161  1.00  0.00     0.043 C 
HETATM   20  C30 UNL     1      12.642   0.167  -0.651  1.00  0.00     0.034 C 
HETATM   21  C29 UNL     1      13.347  -1.142  -0.352  1.00  0.00     0.013 C 
ENDBRANCH  13  14
BRANCH  13  22
HETATM   22  C24 UNL     1      12.108  -3.850   1.885  1.00  0.00     0.014 C 
HETATM   23  C25 UNL     1      10.996  -2.764   2.042  1.00  0.00     0.009 C 
HETATM   24  C26 UNL     1       9.760  -3.565   2.301  1.00  0.00     0.001 C 
HETATM   25  C27 UNL     1       9.932  -4.665   1.236  1.00  0.00     0.001 C 
HETATM   26  C28 UNL     1      11.411  -5.033   1.443  1.00  0.00     0.009 C 
ENDBRANCH  13  22
ENDBRANCH  11  12
ENDBRANCH  10  11
ENDBRANCH   1  10
BRANCH   2  27
HETATM   27  C12 UNL     1      18.021  -7.355  -0.552  1.00  0.00    -0.043 C 
HETATM   28  C13 UNL     1      17.770  -8.536  -0.042  1.00  0.00     0.011 C 
HETATM   29  C14 UNL     1      18.713  -9.037   1.021  1.00  0.00     0.300 C 
HETATM   30  N1  UNL     1      20.033  -8.957   0.476  1.00  0.00     0.087 N 
HETATM   31  C15 UNL     1      21.012  -9.529   1.413  1.00  0.00     0.310 C 
HETATM   32  C16 UNL     1      20.415  -7.589   0.197  1.00  0.00     0.277 C 
HETATM   33  C17 UNL     1      19.259  -6.666  -0.097  1.00  0.00     0.069 C 
ENDBRANCH   2  27
BRANCH   9  34
HETATM   34  O6  UNL     1      14.977  -3.929  -2.329  1.00  0.00    -0.357 OA
ATOM     35  H6  UNL     1      14.789  -3.355  -3.062  1.00  0.00     0.217 HD
ENDBRANCH   9  34
BRANCH   3  36
HETATM   36  O2  UNL     1      18.117  -8.334  -3.162  1.00  0.00    -0.359 OA
ATOM     37  H2  UNL     1      18.904  -8.271  -3.691  1.00  0.00     0.217 HD
ENDBRANCH   3  36
BRANCH   7  38
HETATM   38  O5  UNL     1      14.581  -4.147  -5.346  1.00  0.00    -0.340 OA
ATOM     39  H5  UNL     1      14.827  -3.237  -5.233  1.00  0.00     0.220 HD
ENDBRANCH   7  38
BRANCH   5  40
HETATM   40  O3  UNL     1      17.281  -7.932  -6.030  1.00  0.00    -0.340 OA
ATOM     41  H3  UNL     1      17.528  -7.947  -6.948  1.00  0.00     0.220 HD
ENDBRANCH   5  40
TORSDOF 10
ENDMDL
MODEL 2
REMARK VINA RESULT: -10.178794079      5.746      8.214
REMARK  10 active torsions:
REMARK  status: ('A' for Active; 'I' for Inactive)
REMARK    1  A    between atoms: C6_6  and  C7_7 
REMARK    2  A    between atoms: C7_7  and  C24_35 
REMARK    3  A    between atoms: C8_8  and  C9_9 
REMARK    4  A    between atoms: C9_9  and  O1_10 
REMARK    5  A    between atoms: O1_10  and  C10_11 
REMARK    6  A    between atoms: C11_12  and  C12_13 
REMARK    7  A    between atoms: C18_20  and  O2_21 
REMARK    8  A    between atoms: C20_24  and  O3_25 
REMARK    9  A    between atoms: C21_28  and  O5_29 
REMARK   10  A    between atoms: C23_32  and  O6_33 
ROOT
HETATM    1  C10 UNL     1      18.600  -7.824  -2.753  1.00  0.00     0.116 A 
HETATM    2  C11 UNL     1      19.877  -7.788  -3.246  1.00  0.00     0.040 A 
HETATM    3  C18 UNL     1      20.956  -7.943  -2.363  1.00  0.00     0.095 A 
HETATM    4  C19 UNL     1      20.778  -8.133  -1.000  1.00  0.00     0.074 A 
HETATM    5  C20 UNL     1      21.606  -8.307   0.081  1.00  0.00     0.200 A 
HETATM    6  O4  UNL     1      20.861  -8.439   1.136  1.00  0.00    -0.263 OA
HETATM    7  C21 UNL     1      19.594  -8.367   0.839  1.00  0.00     0.200 A 
HETATM    8  C22 UNL     1      19.468  -8.169  -0.526  1.00  0.00     0.076 A 
HETATM    9  C23 UNL     1      18.404  -8.019  -1.384  1.00  0.00     0.116 A 
ENDROOT
BRANCH   1  10
HETATM   10  O1  UNL     1      17.474  -7.672  -3.530  1.00  0.00    -0.344 OA
BRANCH  10  11
HETATM   11  C9  UNL     1      16.704  -6.456  -3.584  1.00  0.00     0.203 C 
BRANCH  11  12
HETATM   12  C8  UNL     1      17.098  -5.488  -4.582  1.00  0.00     0.003 C 
HETATM   13  C7  UNL     1      16.996  -5.309  -5.842  1.00  0.00    -0.073 C 
BRANCH  13  14
HETATM   14  C6  UNL     1      17.614  -4.047  -6.493  1.00  0.00     0.015 C 
HETATM   15  C5  UNL     1      17.895  -4.359  -7.954  1.00  0.00     0.013 C 
HETATM   16  C4  UNL     1      19.277  -3.883  -8.278  1.00  0.00     0.028 C 
HETATM   17  C3  UNL     1      19.240  -2.403  -8.395  1.00  0.00    -0.024 C 
HETATM   18  C2  UNL     1      18.528  -1.525  -7.726  1.00  0.00    -0.087 C 
HETATM   19  C1  UNL     1      18.833  -0.119  -8.201  1.00  0.00     0.043 C 
HETATM   20  C30 UNL     1      17.564  -1.582  -6.674  1.00  0.00     0.034 C 
HETATM   21  C29 UNL     1      16.763  -2.854  -6.474  1.00  0.00     0.013 C 
ENDBRANCH  13  14
BRANCH  13  22
HETATM   22  C24 UNL     1      16.368  -6.153  -6.888  1.00  0.00     0.014 C 
HETATM   23  C25 UNL     1      17.149  -7.506  -6.901  1.00  0.00     0.009 C 
HETATM   24  C26 UNL     1      16.176  -8.465  -7.509  1.00  0.00     0.001 C 
HETATM   25  C27 UNL     1      14.899  -8.062  -6.746  1.00  0.00     0.001 C 
HETATM   26  C28 UNL     1      14.976  -6.529  -6.854  1.00  0.00     0.009 C 
ENDBRANCH  13  22
ENDBRANCH  11  12
ENDBRANCH  10  11
ENDBRANCH   1  10
BRANCH   2  27
HETATM   27  C12 UNL     1      20.208  -7.730  -4.684  1.00  0.00    -0.043 C 
HETATM   28  C13 UNL     1      20.539  -6.624  -5.304  1.00  0.00     0.011 C 
HETATM   29  C14 UNL     1      20.847  -6.729  -6.775  1.00  0.00     0.300 C 
HETATM   30  N1  UNL     1      21.845  -7.744  -6.919  1.00  0.00     0.087 N 
HETATM   31  C15 UNL     1      22.282  -7.839  -8.320  1.00  0.00     0.310 C 
HETATM   32  C16 UNL     1      21.351  -9.042  -6.506  1.00  0.00     0.277 C 
HETATM   33  C17 UNL     1      20.256  -8.992  -5.472  1.00  0.00     0.069 C 
ENDBRANCH   2  27
BRANCH   9  34
HETATM   34  O6  UNL     1      17.144  -8.072  -0.855  1.00  0.00    -0.357 OA
ATOM     35  H6  UNL     1      16.791  -7.340  -0.364  1.00  0.00     0.217 HD
ENDBRANCH   9  34
BRANCH   3  36
HETATM   36  O2  UNL     1      22.257  -7.921  -2.802  1.00  0.00    -0.359 OA
ATOM     37  H2  UNL     1      22.873  -8.606  -2.572  1.00  0.00     0.217 HD
ENDBRANCH   3  36
BRANCH   7  38
HETATM   38  O5  UNL     1      18.601  -8.478   1.794  1.00  0.00    -0.340 OA
ATOM     39  H5  UNL     1      18.193  -7.720   2.196  1.00  0.00     0.220 HD
ENDBRANCH   7  38
BRANCH   5  40
HETATM   40  O3  UNL     1      22.980  -8.341   0.094  1.00  0.00    -0.340 OA
ATOM     41  H3  UNL     1      23.582  -7.634  -0.108  1.00  0.00     0.220 HD
ENDBRANCH   5  40
TORSDOF 10
ENDMDL
MODEL 3
REMARK VINA RESULT: -10.155165264      6.741     11.441
REMARK  10 active torsions:
REMARK  status: ('A' for Active; 'I' for Inactive)
REMARK    1  A    between atoms: C6_6  and  C7_7 
REMARK    2  A    between atoms: C7_7  and  C24_35 
REMARK    3  A    between atoms: C8_8  and  C9_9 
REMARK    4  A    between atoms: C9_9  and  O1_10 
REMARK    5  A    between atoms: O1_10  and  C10_11 
REMARK    6  A    between atoms: C11_12  and  C12_13 
REMARK    7  A    between atoms: C18_20  and  O2_21 
REMARK    8  A    between atoms: C20_24  and  O3_25 
REMARK    9  A    between atoms: C21_28  and  O5_29 
REMARK   10  A    between atoms: C23_32  and  O6_33 
ROOT
HETATM    1  C10 UNL     1      13.765   5.405   0.169  1.00  0.00     0.116 A 
HETATM    2  C11 UNL     1      14.335   6.011   1.256  1.00  0.00     0.040 A 
HETATM    3  C18 UNL     1      15.714   6.262   1.255  1.00  0.00     0.095 A 
HETATM    4  C19 UNL     1      16.531   5.916   0.187  1.00  0.00     0.074 A 
HETATM    5  C20 UNL     1      17.870   6.024  -0.099  1.00  0.00     0.200 A 
HETATM    6  O4  UNL     1      18.067   5.517  -1.277  1.00  0.00    -0.263 OA
HETATM    7  C21 UNL     1      16.957   5.077  -1.801  1.00  0.00     0.200 A 
HETATM    8  C22 UNL     1      15.924   5.303  -0.908  1.00  0.00     0.076 A 
HETATM    9  C23 UNL     1      14.571   5.055  -0.916  1.00  0.00     0.116 A 
ENDROOT
BRANCH   1  10
HETATM   10  O1  UNL     1      12.424   5.105   0.073  1.00  0.00    -0.344 OA
BRANCH  10  11
HETATM   11  C9  UNL     1      11.697   4.380   1.083  1.00  0.00     0.203 C 
BRANCH  11  12
HETATM   12  C8  UNL     1      11.935   2.956   1.149  1.00  0.00     0.003 C 
HETATM   13  C7  UNL     1      11.810   1.998   1.984  1.00  0.00    -0.073 C 
BRANCH  13  14
HETATM   14  C6  UNL     1      12.220   0.562   1.575  1.00  0.00     0.015 C 
HETATM   15  C5  UNL     1      10.984  -0.320   1.647  1.00  0.00     0.013 C 
HETATM   16  C4  UNL     1      11.349  -1.581   2.368  1.00  0.00     0.028 C 
HETATM   17  C3  UNL     1      12.144  -2.428   1.442  1.00  0.00    -0.024 C 
HETATM   18  C2  UNL     1      13.015  -2.080   0.523  1.00  0.00    -0.087 C 
HETATM   19  C1  UNL     1      13.572  -3.305  -0.175  1.00  0.00     0.043 C 
HETATM   20  C30 UNL     1      13.556  -0.848   0.045  1.00  0.00     0.034 C 
HETATM   21  C29 UNL     1      12.753   0.428   0.216  1.00  0.00     0.013 C 
ENDBRANCH  13  14
BRANCH  13  22
HETATM   22  C24 UNL     1      11.329   1.997   3.388  1.00  0.00     0.014 C 
HETATM   23  C25 UNL     1      12.378   1.193   4.220  1.00  0.00     0.009 C 
HETATM   24  C26 UNL     1      12.172   1.691   5.615  1.00  0.00     0.001 C 
HETATM   25  C27 UNL     1      12.070   3.204   5.341  1.00  0.00     0.001 C 
HETATM   26  C28 UNL     1      11.112   3.211   4.137  1.00  0.00     0.009 C 
ENDBRANCH  13  22
ENDBRANCH  11  12
ENDBRANCH  10  11
ENDBRANCH   1  10
BRANCH   2  27
HETATM   27  C12 UNL     1      13.570   6.554   2.397  1.00  0.00    -0.043 C 
HETATM   28  C13 UNL     1      13.525   5.978   3.574  1.00  0.00     0.011 C 
HETATM   29  C14 UNL     1      12.698   6.654   4.636  1.00  0.00     0.300 C 
HETATM   30  N1  UNL     1      13.154   8.008   4.717  1.00  0.00     0.087 N 
HETATM   31  C15 UNL     1      12.468   8.716   5.809  1.00  0.00     0.310 C 
HETATM   32  C16 UNL     1      12.912   8.729   3.485  1.00  0.00     0.277 C 
HETATM   33  C17 UNL     1      12.874   7.861   2.252  1.00  0.00     0.069 C 
ENDBRANCH   2  27
BRANCH   9  34
HETATM   34  O6  UNL     1      14.038   4.458  -2.025  1.00  0.00    -0.357 OA
ATOM     35  H6  UNL     1      14.073   4.884  -2.873  1.00  0.00     0.217 HD
ENDBRANCH   9  34
BRANCH   3  36
HETATM   36  O2  UNL     1      16.339   6.871   2.316  1.00  0.00    -0.359 OA
ATOM     37  H2  UNL     1      16.812   7.689   2.213  1.00  0.00     0.217 HD
ENDBRANCH   3  36
BRANCH   7  38
HETATM   38  O5  UNL     1      16.910   4.492  -3.053  1.00  0.00    -0.340 OA
ATOM     39  H5  UNL     1      16.614   4.962  -3.824  1.00  0.00     0.220 HD
ENDBRANCH   7  38
BRANCH   5  40
HETATM   40  O3  UNL     1      18.859   6.562   0.689  1.00  0.00    -0.340 OA
ATOM     41  H3  UNL     1      19.584   6.109   1.105  1.00  0.00     0.220 HD
ENDBRANCH   5  40
TORSDOF 10
ENDMDL
MODEL 4
REMARK VINA RESULT: -10.150419590      5.877      8.384
REMARK  10 active torsions:
REMARK  status: ('A' for Active; 'I' for Inactive)
REMARK    1  A    between atoms: C6_6  and  C7_7 
REMARK    2  A    between atoms: C7_7  and  C24_35 
REMARK    3  A    between atoms: C8_8  and  C9_9 
REMARK    4  A    between atoms: C9_9  and  O1_10 
REMARK    5  A    between atoms: O1_10  and  C10_11 
REMARK    6  A    between atoms: C11_12  and  C12_13 
REMARK    7  A    between atoms: C18_20  and  O2_21 
REMARK    8  A    between atoms: C20_24  and  O3_25 
REMARK    9  A    between atoms: C21_28  and  O5_29 
REMARK   10  A    between atoms: C23_32  and  O6_33 
ROOT
HETATM    1  C10 UNL     1      18.778  -8.243  -2.390  1.00  0.00     0.116 A 
HETATM    2  C11 UNL     1      20.030  -8.087  -2.920  1.00  0.00     0.040 A 
HETATM    3  C18 UNL     1      21.143  -8.126  -2.068  1.00  0.00     0.095 A 
HETATM    4  C19 UNL     1      21.024  -8.316  -0.698  1.00  0.00     0.074 A 
HETATM    5  C20 UNL     1      21.896  -8.396   0.360  1.00  0.00     0.200 A 
HETATM    6  O4  UNL     1      21.197  -8.588   1.437  1.00  0.00    -0.263 OA
HETATM    7  C21 UNL     1      19.921  -8.644   1.176  1.00  0.00     0.200 A 
HETATM    8  C22 UNL     1      19.738  -8.475  -0.186  1.00  0.00     0.076 A 
HETATM    9  C23 UNL     1      18.640  -8.440  -1.014  1.00  0.00     0.116 A 
ENDROOT
BRANCH   1  10
HETATM   10  O1  UNL     1      17.620  -8.211  -3.134  1.00  0.00    -0.344 OA
BRANCH  10  11
HETATM   11  C9  UNL     1      16.872  -7.006  -3.390  1.00  0.00     0.203 C 
BRANCH  11  12
HETATM   12  C8  UNL     1      17.085  -6.378  -4.674  1.00  0.00     0.003 C 
HETATM   13  C7  UNL     1      16.404  -6.012  -5.691  1.00  0.00    -0.073 C 
BRANCH  13  14
HETATM   14  C6  UNL     1      17.114  -5.341  -6.892  1.00  0.00     0.015 C 
HETATM   15  C5  UNL     1      18.202  -4.429  -6.348  1.00  0.00     0.013 C 
HETATM   16  C4  UNL     1      18.107  -3.112  -7.055  1.00  0.00     0.028 C 
HETATM   17  C3  UNL     1      18.656  -3.283  -8.424  1.00  0.00    -0.024 C 
HETATM   18  C2  UNL     1      18.592  -4.315  -9.233  1.00  0.00    -0.087 C 
HETATM   19  C1  UNL     1      19.307  -4.017 -10.536  1.00  0.00     0.043 C 
HETATM   20  C30 UNL     1      18.012  -5.619  -9.179  1.00  0.00     0.034 C 
HETATM   21  C29 UNL     1      17.765  -6.262  -7.827  1.00  0.00     0.013 C 
ENDBRANCH  13  14
BRANCH  13  22
HETATM   22  C24 UNL     1      14.953  -6.135  -5.975  1.00  0.00     0.014 C 
HETATM   23  C25 UNL     1      14.418  -4.685  -6.203  1.00  0.00     0.009 C 
HETATM   24  C26 UNL     1      13.176  -4.894  -7.010  1.00  0.00     0.001 C 
HETATM   25  C27 UNL     1      13.693  -5.934  -8.023  1.00  0.00     0.001 C 
HETATM   26  C28 UNL     1      14.438  -6.899  -7.084  1.00  0.00     0.009 C 
ENDBRANCH  13  22
ENDBRANCH  11  12
ENDBRANCH  10  11
ENDBRANCH   1  10
BRANCH   2  27
HETATM   27  C12 UNL     1      20.313  -8.014  -4.368  1.00  0.00    -0.043 C 
HETATM   28  C13 UNL     1      20.657  -6.907  -4.980  1.00  0.00     0.011 C 
HETATM   29  C14 UNL     1      20.911  -6.995  -6.462  1.00  0.00     0.300 C 
HETATM   30  N1  UNL     1      21.870  -8.038  -6.658  1.00  0.00     0.087 N 
HETATM   31  C15 UNL     1      22.256  -8.122  -8.075  1.00  0.00     0.310 C 
HETATM   32  C16 UNL     1      21.350  -9.327  -6.251  1.00  0.00     0.277 C 
HETATM   33  C17 UNL     1      20.293  -9.262  -5.178  1.00  0.00     0.069 C 
ENDBRANCH   2  27
BRANCH   9  34
HETATM   34  O6  UNL     1      17.407  -8.610  -0.448  1.00  0.00    -0.357 OA
ATOM     35  H6  UNL     1      17.220  -8.277   0.421  1.00  0.00     0.217 HD
ENDBRANCH   9  34
BRANCH   3  36
HETATM   36  O2  UNL     1      22.423  -7.981  -2.545  1.00  0.00    -0.359 OA
ATOM     37  H2  UNL     1      23.167  -7.898  -1.960  1.00  0.00     0.217 HD
ENDBRANCH   3  36
BRANCH   7  38
HETATM   38  O5  UNL     1      18.971  -8.841   2.161  1.00  0.00    -0.340 OA
ATOM     39  H5  UNL     1      18.806  -9.694   2.546  1.00  0.00     0.220 HD
ENDBRANCH   7  38
BRANCH   5  40
HETATM   40  O3  UNL     1      23.266  -8.294   0.333  1.00  0.00    -0.340 OA
ATOM     41  H3  UNL     1      23.802  -7.814  -0.287  1.00  0.00     0.220 HD
ENDBRANCH   5  40
TORSDOF 10
ENDMDL
MODEL 5
REMARK VINA RESULT: -10.130054003      5.756      8.852
REMARK  10 active torsions:
REMARK  status: ('A' for Active; 'I' for Inactive)
REMARK    1  A    between atoms: C6_6  and  C7_7 
REMARK    2  A    between atoms: C7_7  and  C24_35 
REMARK    3  A    between atoms: C8_8  and  C9_9 
REMARK    4  A    between atoms: C9_9  and  O1_10 
REMARK    5  A    between atoms: O1_10  and  C10_11 
REMARK    6  A    between atoms: C11_12  and  C12_13 
REMARK    7  A    between atoms: C18_20  and  O2_21 
REMARK    8  A    between atoms: C20_24  and  O3_25 
REMARK    9  A    between atoms: C21_28  and  O5_29 
REMARK   10  A    between atoms: C23_32  and  O6_33 
ROOT
HETATM    1  C10 UNL     1      19.044  -6.441  -8.541  1.00  0.00     0.116 A 
HETATM    2  C11 UNL     1      19.745  -5.658  -7.663  1.00  0.00     0.040 A 
HETATM    3  C18 UNL     1      20.859  -6.197  -7.005  1.00  0.00     0.095 A 
HETATM    4  C19 UNL     1      21.282  -7.503  -7.209  1.00  0.00     0.074 A 
HETATM    5  C20 UNL     1      22.299  -8.290  -6.727  1.00  0.00     0.200 A 
HETATM    6  O4  UNL     1      22.199  -9.457  -7.289  1.00  0.00    -0.263 OA
HETATM    7  C21 UNL     1      21.190  -9.506  -8.112  1.00  0.00     0.200 A 
HETATM    8  C22 UNL     1      20.553  -8.276  -8.109  1.00  0.00     0.076 A 
HETATM    9  C23 UNL     1      19.460  -7.756  -8.761  1.00  0.00     0.116 A 
ENDROOT
BRANCH   1  10
HETATM   10  O1  UNL     1      17.931  -6.014  -9.230  1.00  0.00    -0.344 OA
BRANCH  10  11
HETATM   11  C9  UNL     1      16.592  -6.095  -8.706  1.00  0.00     0.203 C 
BRANCH  11  12
HETATM   12  C8  UNL     1      16.470  -6.333  -7.286  1.00  0.00     0.003 C 
HETATM   13  C7  UNL     1      15.553  -6.437  -6.403  1.00  0.00    -0.073 C 
BRANCH  13  14
HETATM   14  C6  UNL     1      15.933  -6.714  -4.928  1.00  0.00     0.015 C 
HETATM   15  C5  UNL     1      17.098  -7.690  -4.915  1.00  0.00     0.013 C 
HETATM   16  C4  UNL     1      16.802  -8.761  -3.911  1.00  0.00     0.028 C 
HETATM   17  C3  UNL     1      17.005  -8.190  -2.554  1.00  0.00    -0.024 C 
HETATM   18  C2  UNL     1      16.771  -6.978  -2.109  1.00  0.00    -0.087 C 
HETATM   19  C1  UNL     1      17.139  -6.867  -0.643  1.00  0.00     0.043 C 
HETATM   20  C30 UNL     1      16.253  -5.768  -2.665  1.00  0.00     0.034 C 
HETATM   21  C29 UNL     1      16.359  -5.539  -4.161  1.00  0.00     0.013 C 
ENDBRANCH  13  14
BRANCH  13  22
HETATM   22  C24 UNL     1      14.079  -6.314  -6.524  1.00  0.00     0.014 C 
HETATM   23  C25 UNL     1      13.756  -4.786  -6.525  1.00  0.00     0.009 C 
HETATM   24  C26 UNL     1      12.421  -4.712  -7.196  1.00  0.00     0.001 C 
HETATM   25  C27 UNL     1      12.665  -5.677  -8.372  1.00  0.00     0.001 C 
HETATM   26  C28 UNL     1      13.342  -6.850  -7.641  1.00  0.00     0.009 C 
ENDBRANCH  13  22
ENDBRANCH  11  12
ENDBRANCH  10  11
ENDBRANCH   1  10
BRANCH   2  27
HETATM   27  C12 UNL     1      19.491  -4.218  -7.454  1.00  0.00    -0.043 C 
HETATM   28  C13 UNL     1      20.020  -3.278  -8.199  1.00  0.00     0.011 C 
HETATM   29  C14 UNL     1      19.665  -1.854  -7.858  1.00  0.00     0.300 C 
HETATM   30  N1  UNL     1      18.237  -1.777  -7.830  1.00  0.00     0.087 N 
HETATM   31  C15 UNL     1      17.801  -0.390  -7.607  1.00  0.00     0.310 C 
HETATM   32  C16 UNL     1      17.676  -2.605  -6.782  1.00  0.00     0.277 C 
HETATM   33  C17 UNL     1      18.525  -3.793  -6.405  1.00  0.00     0.069 C 
ENDBRANCH   2  27
BRANCH   9  34
HETATM   34  O6  UNL     1      18.792  -8.566  -9.637  1.00  0.00    -0.357 OA
ATOM     35  H6  UNL     1      18.265  -9.292  -9.326  1.00  0.00     0.217 HD
ENDBRANCH   9  34
BRANCH   3  36
HETATM   36  O2  UNL     1      21.602  -5.456  -6.118  1.00  0.00    -0.359 OA
ATOM     37  H2  UNL     1      22.006  -5.850  -5.354  1.00  0.00     0.217 HD
ENDBRANCH   3  36
BRANCH   7  38
HETATM   38  O5  UNL     1      20.876 -10.644  -8.832  1.00  0.00    -0.340 OA
ATOM     39  H5  UNL     1      20.979 -10.694  -9.775  1.00  0.00     0.220 HD
ENDBRANCH   7  38
BRANCH   5  40
HETATM   40  O3  UNL     1      23.268  -7.951  -5.813  1.00  0.00    -0.340 OA
ATOM     41  H3  UNL     1      23.147  -7.657  -4.918  1.00  0.00     0.220 HD
ENDBRANCH   5  40
TORSDOF 10
ENDMDL
