MODEL 1
REMARK VINA RESULT: -9.317174542      0.000      0.000
REMARK  10 active torsions:
REMARK  status: ('A' for Active; 'I' for Inactive)
REMARK    1  A    between atoms: C2_2  and  C3_3 
REMARK    2  A    between atoms: C3_3  and  O1_4 
REMARK    3  A    between atoms: O1_4  and  C4_5 
REMARK    4  A    between atoms: C6_7  and  O2_8 
REMARK    5  A    between atoms: C9_14  and  C10_15 
REMARK    6  A    between atoms: C10_15  and  C12_17 
REMARK    7  A    between atoms: C13_18  and  C14_19 
REMARK    8  A    between atoms: C14_19  and  O5_20 
REMARK    9  A    between atoms: C27_34  and  O6_35 
REMARK   10  A    between atoms: C28_37  and  O7_38 
ROOT
HETATM    1  C10 UNL     1      17.988  -8.040  -3.991  1.00  0.00     0.064 C 
HETATM    2  C11 UNL     1      18.031  -7.534  -2.515  1.00  0.00     0.021 C 
ENDROOT
BRANCH   1   3
HETATM    3  C9  UNL     1      16.942  -7.083  -4.586  1.00  0.00     0.098 A 
HETATM    4  O4  UNL     1      16.882  -5.860  -4.185  1.00  0.00    -0.276 OA
HETATM    5  C8  UNL     1      16.033  -4.957  -4.635  1.00  0.00     0.302 A 
HETATM    6  C7  UNL     1      15.105  -5.266  -5.601  1.00  0.00     0.086 A 
HETATM    7  O3  UNL     1      16.079  -3.792  -4.169  1.00  0.00    -0.259 OA
HETATM    8  C6  UNL     1      14.162  -4.380  -6.039  1.00  0.00     0.085 A 
HETATM    9  C29 UNL     1      15.132  -6.595  -6.063  1.00  0.00     0.021 A 
HETATM   10  C5  UNL     1      13.213  -4.868  -6.967  1.00  0.00     0.074 A 
HETATM   11  C4  UNL     1      13.216  -6.152  -7.423  1.00  0.00     0.072 A 
HETATM   12  C30 UNL     1      14.199  -7.032  -6.963  1.00  0.00     0.052 A 
HETATM   13  C28 UNL     1      16.069  -7.507  -5.547  1.00  0.00     0.107 A 
BRANCH   8  14
HETATM   14  O2  UNL     1      14.105  -3.094  -5.631  1.00  0.00    -0.360 OA
ATOM     15  H2  UNL     1      14.702  -2.783  -4.961  1.00  0.00     0.217 HD
ENDBRANCH   8  14
BRANCH  11  16
HETATM   16  O1  UNL     1      12.290  -6.649  -8.310  1.00  0.00    -0.351 OA
BRANCH  16  17
HETATM   17  C3  UNL     1      10.980  -7.013  -8.032  1.00  0.00     0.175 C 
BRANCH  17  18
HETATM   18  C2  UNL     1       9.953  -6.296  -8.834  1.00  0.00     0.022 C 
HETATM   19  C1  UNL     1      10.394  -6.296 -10.288  1.00  0.00     0.007 C 
ENDBRANCH  17  18
ENDBRANCH  16  17
ENDBRANCH  11  16
BRANCH  13  20
HETATM   20  O7  UNL     1      16.098  -8.805  -6.006  1.00  0.00    -0.357 OA
ATOM     21  H7  UNL     1      15.434  -9.431  -5.743  1.00  0.00     0.217 HD
ENDBRANCH  13  20
ENDBRANCH   1   3
BRANCH   1  22
HETATM   22  C12 UNL     1      19.324  -7.597  -4.487  1.00  0.00    -0.017 C 
HETATM   23  C13 UNL     1      19.864  -6.904  -5.379  1.00  0.00     0.011 C 
BRANCH  23  24
HETATM   24  C14 UNL     1      19.641  -6.058  -6.531  1.00  0.00     0.110 C 
HETATM   25  C15 UNL     1      18.632  -6.381  -7.551  1.00  0.00     0.027 C 
HETATM   26  C16 UNL     1      18.764  -7.691  -8.266  1.00  0.00     0.014 C 
HETATM   27  C17 UNL     1      18.518  -5.217  -8.536  1.00  0.00    -0.011 C 
HETATM   28  C18 UNL     1      17.730  -5.597  -9.775  1.00  0.00     0.010 C 
HETATM   29  C19 UNL     1      19.854  -4.619  -8.918  1.00  0.00     0.013 C 
HETATM   30  C20 UNL     1      21.022  -5.486  -8.591  1.00  0.00     0.031 C 
HETATM   31  C21 UNL     1      22.307  -4.965  -9.119  1.00  0.00    -0.041 C 
HETATM   32  C27 UNL     1      21.023  -5.803  -7.151  1.00  0.00     0.097 C 
HETATM   33  C22 UNL     1      23.242  -6.153  -9.387  1.00  0.00     0.015 C 
HETATM   34  C23 UNL     1      22.092  -4.306 -10.459  1.00  0.00     0.015 C 
HETATM   35  C24 UNL     1      23.006  -3.972  -8.239  1.00  0.00     0.009 C 
HETATM   36  C25 UNL     1      23.089  -4.422  -6.807  1.00  0.00     0.004 C 
HETATM   37  C26 UNL     1      21.696  -4.772  -6.330  1.00  0.00     0.042 C 
BRANCH  24  38
HETATM   38  O5  UNL     1      19.229  -4.796  -6.006  1.00  0.00    -0.382 OA
ATOM     39  H5  UNL     1      19.768  -4.149  -6.446  1.00  0.00     0.211 HD
ENDBRANCH  24  38
BRANCH  32  40
HETATM   40  O6  UNL     1      21.738  -7.022  -7.006  1.00  0.00    -0.386 OA
ATOM     41  H6  UNL     1      22.656  -6.793  -7.104  1.00  0.00     0.210 HD
ENDBRANCH  32  40
ENDBRANCH  23  24
ENDBRANCH   1  22
TORSDOF 10
ENDMDL
MODEL 2
REMARK VINA RESULT: -9.122906024      1.258      2.152
REMARK  10 active torsions:
REMARK  status: ('A' for Active; 'I' for Inactive)
REMARK    1  A    between atoms: C2_2  and  C3_3 
REMARK    2  A    between atoms: C3_3  and  O1_4 
REMARK    3  A    between atoms: O1_4  and  C4_5 
REMARK    4  A    between atoms: C6_7  and  O2_8 
REMARK    5  A    between atoms: C9_14  and  C10_15 
REMARK    6  A    between atoms: C10_15  and  C12_17 
REMARK    7  A    between atoms: C13_18  and  C14_19 
REMARK    8  A    between atoms: C14_19  and  O5_20 
REMARK    9  A    between atoms: C27_34  and  O6_35 
REMARK   10  A    between atoms: C28_37  and  O7_38 
ROOT
HETATM    1  C10 UNL     1      17.441  -8.410  -4.398  1.00  0.00     0.064 C 
HETATM    2  C11 UNL     1      17.119  -8.365  -2.872  1.00  0.00     0.021 C 
ENDROOT
BRANCH   1   3
HETATM    3  C9  UNL     1      16.475  -7.335  -4.922  1.00  0.00     0.098 A 
HETATM    4  O4  UNL     1      16.511  -6.142  -4.437  1.00  0.00    -0.276 OA
HETATM    5  C8  UNL     1      15.736  -5.145  -4.820  1.00  0.00     0.302 A 
HETATM    6  C7  UNL     1      14.789  -5.313  -5.803  1.00  0.00     0.086 A 
HETATM    7  O3  UNL     1      15.873  -4.023  -4.274  1.00  0.00    -0.259 OA
HETATM    8  C6  UNL     1      13.920  -4.327  -6.174  1.00  0.00     0.085 A 
HETATM    9  C29 UNL     1      14.712  -6.604  -6.356  1.00  0.00     0.021 A 
HETATM   10  C5  UNL     1      12.937  -4.673  -7.132  1.00  0.00     0.074 A 
HETATM   11  C4  UNL     1      12.841  -5.919  -7.675  1.00  0.00     0.072 A 
HETATM   12  C30 UNL     1      13.750  -6.903  -7.281  1.00  0.00     0.052 A 
HETATM   13  C28 UNL     1      15.574  -7.621  -5.907  1.00  0.00     0.107 A 
BRANCH   8  14
HETATM   14  O2  UNL     1      13.964  -3.072  -5.678  1.00  0.00    -0.360 OA
ATOM     15  H2  UNL     1      13.336  -2.423  -5.973  1.00  0.00     0.217 HD
ENDBRANCH   8  14
BRANCH  11  16
HETATM   16  O1  UNL     1      11.880  -6.278  -8.592  1.00  0.00    -0.351 OA
BRANCH  16  17
HETATM   17  C3  UNL     1      10.659  -6.882  -8.327  1.00  0.00     0.175 C 
BRANCH  17  18
HETATM   18  C2  UNL     1       9.505  -6.299  -9.063  1.00  0.00     0.022 C 
HETATM   19  C1  UNL     1       9.761  -6.452 -10.553  1.00  0.00     0.007 C 
ENDBRANCH  17  18
ENDBRANCH  16  17
ENDBRANCH  11  16
BRANCH  13  20
HETATM   20  O7  UNL     1      15.501  -8.882  -6.455  1.00  0.00    -0.357 OA
ATOM     21  H7  UNL     1      14.664  -9.264  -6.693  1.00  0.00     0.217 HD
ENDBRANCH  13  20
ENDBRANCH   1   3
BRANCH   1  22
HETATM   22  C12 UNL     1      18.812  -7.821  -4.421  1.00  0.00    -0.017 C 
HETATM   23  C13 UNL     1      19.700  -7.421  -5.208  1.00  0.00     0.011 C 
BRANCH  23  24
HETATM   24  C14 UNL     1      20.068  -7.231  -6.595  1.00  0.00     0.110 C 
HETATM   25  C15 UNL     1      21.252  -7.875  -7.183  1.00  0.00     0.027 C 
HETATM   26  C16 UNL     1      22.583  -7.574  -6.563  1.00  0.00     0.014 C 
HETATM   27  C17 UNL     1      21.269  -7.622  -8.690  1.00  0.00    -0.011 C 
HETATM   28  C18 UNL     1      22.603  -7.988  -9.312  1.00  0.00     0.010 C 
HETATM   29  C19 UNL     1      20.876  -6.211  -9.069  1.00  0.00     0.013 C 
HETATM   30  C20 UNL     1      20.924  -5.244  -7.935  1.00  0.00     0.031 C 
HETATM   31  C21 UNL     1      20.699  -3.837  -8.351  1.00  0.00    -0.041 C 
HETATM   32  C27 UNL     1      20.057  -5.715  -6.838  1.00  0.00     0.097 C 
HETATM   33  C22 UNL     1      21.442  -2.915  -7.374  1.00  0.00     0.015 C 
HETATM   34  C23 UNL     1      21.322  -3.587  -9.702  1.00  0.00     0.015 C 
HETATM   35  C24 UNL     1      19.262  -3.416  -8.436  1.00  0.00     0.009 C 
HETATM   36  C25 UNL     1      18.468  -3.813  -7.222  1.00  0.00     0.004 C 
HETATM   37  C26 UNL     1      18.646  -5.297  -6.993  1.00  0.00     0.042 C 
BRANCH  24  38
HETATM   38  O5  UNL     1      18.970  -7.738  -7.355  1.00  0.00    -0.382 OA
ATOM     39  H5  UNL     1      18.486  -6.973  -7.645  1.00  0.00     0.211 HD
ENDBRANCH  24  38
BRANCH  32  40
HETATM   40  O6  UNL     1      20.564  -5.133  -5.645  1.00  0.00    -0.386 OA
ATOM     41  H6  UNL     1      20.101  -4.308  -5.546  1.00  0.00     0.210 HD
ENDBRANCH  32  40
ENDBRANCH  23  24
ENDBRANCH   1  22
TORSDOF 10
ENDMDL
MODEL 3
REMARK VINA RESULT: -9.029507075      1.178      1.377
REMARK  10 active torsions:
REMARK  status: ('A' for Active; 'I' for Inactive)
REMARK    1  A    between atoms: C2_2  and  C3_3 
REMARK    2  A    between atoms: C3_3  and  O1_4 
REMARK    3  A    between atoms: O1_4  and  C4_5 
REMARK    4  A    between atoms: C6_7  and  O2_8 
REMARK    5  A    between atoms: C9_14  and  C10_15 
REMARK    6  A    between atoms: C10_15  and  C12_17 
REMARK    7  A    between atoms: C13_18  and  C14_19 
REMARK    8  A    between atoms: C14_19  and  O5_20 
REMARK    9  A    between atoms: C27_34  and  O6_35 
REMARK   10  A    between atoms: C28_37  and  O7_38 
ROOT
HETATM    1  C10 UNL     1      17.584  -8.509  -5.040  1.00  0.00     0.064 C 
HETATM    2  C11 UNL     1      18.118  -7.904  -3.704  1.00  0.00     0.021 C 
ENDROOT
BRANCH   1   3
HETATM    3  C9  UNL     1      16.533  -7.457  -5.427  1.00  0.00     0.098 A 
HETATM    4  O4  UNL     1      16.562  -6.286  -4.891  1.00  0.00    -0.276 OA
HETATM    5  C8  UNL     1      15.717  -5.310  -5.158  1.00  0.00     0.302 A 
HETATM    6  C7  UNL     1      14.694  -5.477  -6.062  1.00  0.00     0.086 A 
HETATM    7  O3  UNL     1      15.854  -4.207  -4.573  1.00  0.00    -0.259 OA
HETATM    8  C6  UNL     1      13.755  -4.515  -6.310  1.00  0.00     0.085 A 
HETATM    9  C29 UNL     1      14.622  -6.744  -6.667  1.00  0.00     0.021 A 
HETATM   10  C5  UNL     1      12.707  -4.863  -7.195  1.00  0.00     0.074 A 
HETATM   11  C4  UNL     1      12.615  -6.087  -7.786  1.00  0.00     0.072 A 
HETATM   12  C30 UNL     1      13.595  -7.046  -7.520  1.00  0.00     0.052 A 
HETATM   13  C28 UNL     1      15.561  -7.740  -6.344  1.00  0.00     0.107 A 
BRANCH   8  14
HETATM   14  O2  UNL     1      13.791  -3.283  -5.760  1.00  0.00    -0.360 OA
ATOM     15  H2  UNL     1      14.480  -2.675  -6.002  1.00  0.00     0.217 HD
ENDBRANCH   8  14
BRANCH  11  16
HETATM   16  O1  UNL     1      11.593  -6.449  -8.633  1.00  0.00    -0.351 OA
BRANCH  16  17
HETATM   17  C3  UNL     1      10.242  -6.527  -8.325  1.00  0.00     0.175 C 
BRANCH  17  18
HETATM   18  C2  UNL     1       9.330  -6.087  -9.414  1.00  0.00     0.022 C 
HETATM   19  C1  UNL     1      10.170  -5.498 -10.534  1.00  0.00     0.007 C 
ENDBRANCH  17  18
ENDBRANCH  16  17
ENDBRANCH  11  16
BRANCH  13  20
HETATM   20  O7  UNL     1      15.492  -8.977  -6.943  1.00  0.00    -0.357 OA
ATOM     21  H7  UNL     1      15.099  -9.083  -7.802  1.00  0.00     0.217 HD
ENDBRANCH  13  20
ENDBRANCH   1   3
BRANCH   1  22
HETATM   22  C12 UNL     1      18.761  -8.309  -5.938  1.00  0.00    -0.017 C 
HETATM   23  C13 UNL     1      19.457  -7.412  -6.464  1.00  0.00     0.011 C 
BRANCH  23  24
HETATM   24  C14 UNL     1      19.657  -5.986  -6.607  1.00  0.00     0.110 C 
HETATM   25  C15 UNL     1      18.551  -5.073  -6.936  1.00  0.00     0.027 C 
HETATM   26  C16 UNL     1      17.809  -5.318  -8.215  1.00  0.00     0.014 C 
HETATM   27  C17 UNL     1      19.043  -3.629  -6.844  1.00  0.00    -0.011 C 
HETATM   28  C18 UNL     1      18.058  -2.653  -7.460  1.00  0.00     0.010 C 
HETATM   29  C19 UNL     1      20.425  -3.425  -7.424  1.00  0.00     0.013 C 
HETATM   30  C20 UNL     1      20.883  -4.539  -8.303  1.00  0.00     0.031 C 
HETATM   31  C21 UNL     1      22.164  -4.252  -8.996  1.00  0.00    -0.041 C 
HETATM   32  C27 UNL     1      20.848  -5.812  -7.560  1.00  0.00     0.097 C 
HETATM   33  C22 UNL     1      22.184  -5.023 -10.324  1.00  0.00     0.015 C 
HETATM   34  C23 UNL     1      22.240  -2.793  -9.371  1.00  0.00     0.015 C 
HETATM   35  C24 UNL     1      23.402  -4.579  -8.214  1.00  0.00     0.009 C 
HETATM   36  C25 UNL     1      23.353  -5.947  -7.594  1.00  0.00     0.004 C 
HETATM   37  C26 UNL     1      22.082  -6.063  -6.782  1.00  0.00     0.042 C 
BRANCH  24  38
HETATM   38  O5  UNL     1      20.126  -5.535  -5.336  1.00  0.00    -0.382 OA
ATOM     39  H5  UNL     1      19.792  -4.651  -5.240  1.00  0.00     0.211 HD
ENDBRANCH  24  38
BRANCH  32  40
HETATM   40  O6  UNL     1      20.717  -6.842  -8.529  1.00  0.00    -0.386 OA
ATOM     41  H6  UNL     1      21.531  -7.331  -8.493  1.00  0.00     0.210 HD
ENDBRANCH  32  40
ENDBRANCH  23  24
ENDBRANCH   1  22
TORSDOF 10
ENDMDL
MODEL 4
REMARK VINA RESULT: -8.970786422      1.307      1.880
REMARK  10 active torsions:
REMARK  status: ('A' for Active; 'I' for Inactive)
REMARK    1  A    between atoms: C2_2  and  C3_3 
REMARK    2  A    between atoms: C3_3  and  O1_4 
REMARK    3  A    between atoms: O1_4  and  C4_5 
REMARK    4  A    between atoms: C6_7  and  O2_8 
REMARK    5  A    between atoms: C9_14  and  C10_15 
REMARK    6  A    between atoms: C10_15  and  C12_17 
REMARK    7  A    between atoms: C13_18  and  C14_19 
REMARK    8  A    between atoms: C14_19  and  O5_20 
REMARK    9  A    between atoms: C27_34  and  O6_35 
REMARK   10  A    between atoms: C28_37  and  O7_38 
ROOT
HETATM    1  C10 UNL     1      17.890  -7.816  -3.715  1.00  0.00     0.064 C 
HETATM    2  C11 UNL     1      17.603  -7.521  -2.209  1.00  0.00     0.021 C 
ENDROOT
BRANCH   1   3
HETATM    3  C9  UNL     1      16.863  -6.890  -4.385  1.00  0.00     0.098 A 
HETATM    4  O4  UNL     1      16.777  -5.655  -4.028  1.00  0.00    -0.276 OA
HETATM    5  C8  UNL     1      15.940  -4.775  -4.544  1.00  0.00     0.302 A 
HETATM    6  C7  UNL     1      15.057  -5.125  -5.537  1.00  0.00     0.086 A 
HETATM    7  O3  UNL     1      15.957  -3.595  -4.115  1.00  0.00    -0.259 OA
HETATM    8  C6  UNL     1      14.126  -4.263  -6.043  1.00  0.00     0.085 A 
HETATM    9  C29 UNL     1      15.114  -6.468  -5.953  1.00  0.00     0.021 A 
HETATM   10  C5  UNL     1      13.221  -4.790  -6.995  1.00  0.00     0.074 A 
HETATM   11  C4  UNL     1      13.254  -6.089  -7.406  1.00  0.00     0.072 A 
HETATM   12  C30 UNL     1      14.223  -6.944  -6.877  1.00  0.00     0.052 A 
HETATM   13  C28 UNL     1      16.035  -7.353  -5.367  1.00  0.00     0.107 A 
BRANCH   8  14
HETATM   14  O2  UNL     1      14.041  -2.965  -5.682  1.00  0.00    -0.360 OA
ATOM     15  H2  UNL     1      14.076  -2.284  -6.344  1.00  0.00     0.217 HD
ENDBRANCH   8  14
BRANCH  11  16
HETATM   16  O1  UNL     1      12.371  -6.623  -8.315  1.00  0.00    -0.351 OA
BRANCH  16  17
HETATM   17  C3  UNL     1      11.057  -7.003  -8.077  1.00  0.00     0.175 C 
BRANCH  17  18
HETATM   18  C2  UNL     1      10.052  -6.341  -8.950  1.00  0.00     0.022 C 
HETATM   19  C1  UNL     1      10.576  -6.347 -10.376  1.00  0.00     0.007 C 
ENDBRANCH  17  18
ENDBRANCH  16  17
ENDBRANCH  11  16
BRANCH  13  20
HETATM   20  O7  UNL     1      16.094  -8.665  -5.781  1.00  0.00    -0.357 OA
ATOM     21  H7  UNL     1      16.697  -9.279  -5.377  1.00  0.00     0.217 HD
ENDBRANCH  13  20
ENDBRANCH   1   3
BRANCH   1  22
HETATM   22  C12 UNL     1      19.232  -7.183  -3.882  1.00  0.00    -0.017 C 
HETATM   23  C13 UNL     1      20.101  -6.931  -4.746  1.00  0.00     0.011 C 
BRANCH  23  24
HETATM   24  C14 UNL     1      20.463  -7.042  -6.143  1.00  0.00     0.110 C 
HETATM   25  C15 UNL     1      21.193  -8.206  -6.669  1.00  0.00     0.027 C 
HETATM   26  C16 UNL     1      22.534  -8.509  -6.073  1.00  0.00     0.014 C 
HETATM   27  C17 UNL     1      21.268  -8.109  -8.193  1.00  0.00    -0.011 C 
HETATM   28  C18 UNL     1      22.258  -9.100  -8.776  1.00  0.00     0.010 C 
HETATM   29  C19 UNL     1      21.558  -6.711  -8.694  1.00  0.00     0.013 C 
HETATM   30  C20 UNL     1      22.089  -5.791  -7.648  1.00  0.00     0.031 C 
HETATM   31  C21 UNL     1      22.524  -4.478  -8.186  1.00  0.00    -0.041 C 
HETATM   32  C27 UNL     1      21.145  -5.718  -6.517  1.00  0.00     0.097 C 
HETATM   33  C22 UNL     1      23.646  -3.931  -7.291  1.00  0.00     0.015 C 
HETATM   34  C23 UNL     1      23.141  -4.652  -9.552  1.00  0.00     0.015 C 
HETATM   35  C24 UNL     1      21.442  -3.447  -8.312  1.00  0.00     0.009 C 
HETATM   36  C25 UNL     1      20.601  -3.333  -7.071  1.00  0.00     0.004 C 
HETATM   37  C26 UNL     1      20.082  -4.708  -6.713  1.00  0.00     0.042 C 
BRANCH  24  38
HETATM   38  O5  UNL     1      19.227  -7.041  -6.860  1.00  0.00    -0.382 OA
ATOM     39  H5  UNL     1      18.700  -6.361  -6.456  1.00  0.00     0.211 HD
ENDBRANCH  24  38
BRANCH  32  40
HETATM   40  O6  UNL     1      21.907  -5.345  -5.378  1.00  0.00    -0.386 OA
ATOM     41  H6  UNL     1      22.259  -4.485  -5.576  1.00  0.00     0.210 HD
ENDBRANCH  32  40
ENDBRANCH  23  24
ENDBRANCH   1  22
TORSDOF 10
ENDMDL
MODEL 5
REMARK VINA RESULT: -8.857684006      2.760      6.418
REMARK  10 active torsions:
REMARK  status: ('A' for Active; 'I' for Inactive)
REMARK    1  A    between atoms: C2_2  and  C3_3 
REMARK    2  A    between atoms: C3_3  and  O1_4 
REMARK    3  A    between atoms: O1_4  and  C4_5 
REMARK    4  A    between atoms: C6_7  and  O2_8 
REMARK    5  A    between atoms: C9_14  and  C10_15 
REMARK    6  A    between atoms: C10_15  and  C12_17 
REMARK    7  A    between atoms: C13_18  and  C14_19 
REMARK    8  A    between atoms: C14_19  and  O5_20 
REMARK    9  A    between atoms: C27_34  and  O6_35 
REMARK   10  A    between atoms: C28_37  and  O7_38 
ROOT
HETATM    1  C10 UNL     1      21.111  -6.154  -5.465  1.00  0.00     0.064 C 
HETATM    2  C11 UNL     1      21.876  -7.471  -5.805  1.00  0.00     0.021 C 
ENDROOT
BRANCH   1   3
HETATM    3  C9  UNL     1      19.659  -6.603  -5.701  1.00  0.00     0.098 A 
HETATM    4  O4  UNL     1      19.359  -7.855  -5.683  1.00  0.00    -0.276 OA
HETATM    5  C8  UNL     1      18.148  -8.346  -5.863  1.00  0.00     0.302 A 
HETATM    6  C7  UNL     1      17.071  -7.524  -6.100  1.00  0.00     0.086 A 
HETATM    7  O3  UNL     1      17.981  -9.589  -5.815  1.00  0.00    -0.259 OA
HETATM    8  C6  UNL     1      15.817  -7.997  -6.365  1.00  0.00     0.085 A 
HETATM    9  C29 UNL     1      17.357  -6.147  -6.133  1.00  0.00     0.021 A 
HETATM   10  C5  UNL     1      14.829  -7.036  -6.683  1.00  0.00     0.074 A 
HETATM   11  C4  UNL     1      15.086  -5.698  -6.727  1.00  0.00     0.072 A 
HETATM   12  C30 UNL     1      16.376  -5.245  -6.443  1.00  0.00     0.052 A 
HETATM   13  C28 UNL     1      18.670  -5.689  -5.925  1.00  0.00     0.107 A 
BRANCH   8  14
HETATM   14  O2  UNL     1      15.496  -9.308  -6.333  1.00  0.00    -0.360 OA
ATOM     15  H2  UNL     1      14.769  -9.631  -6.852  1.00  0.00     0.217 HD
ENDBRANCH   8  14
BRANCH  11  16
HETATM   16  O1  UNL     1      14.142  -4.752  -7.054  1.00  0.00    -0.351 OA
BRANCH  16  17
HETATM   17  C3  UNL     1      12.766  -4.861  -6.910  1.00  0.00     0.175 C 
BRANCH  17  18
HETATM   18  C2  UNL     1      12.040  -5.236  -8.152  1.00  0.00     0.022 C 
HETATM   19  C1  UNL     1      11.348  -6.568  -7.918  1.00  0.00     0.007 C 
ENDBRANCH  17  18
ENDBRANCH  16  17
ENDBRANCH  11  16
BRANCH  13  20
HETATM   20  O7  UNL     1      18.945  -4.340  -5.951  1.00  0.00    -0.357 OA
ATOM     21  H7  UNL     1      18.900  -3.848  -6.763  1.00  0.00     0.217 HD
ENDBRANCH  13  20
ENDBRANCH   1   3
BRANCH   1  22
HETATM   22  C12 UNL     1      21.314  -6.076  -3.988  1.00  0.00    -0.017 C 
HETATM   23  C13 UNL     1      20.891  -6.548  -2.908  1.00  0.00     0.011 C 
BRANCH  23  24
HETATM   24  C14 UNL     1      19.953  -7.461  -2.292  1.00  0.00     0.110 C 
HETATM   25  C15 UNL     1      18.499  -7.327  -2.475  1.00  0.00     0.027 C 
HETATM   26  C16 UNL     1      17.863  -6.040  -2.047  1.00  0.00     0.014 C 
HETATM   27  C17 UNL     1      17.798  -8.532  -1.849  1.00  0.00    -0.011 C 
HETATM   28  C18 UNL     1      16.301  -8.318  -1.729  1.00  0.00     0.010 C 
HETATM   29  C19 UNL     1      18.384  -8.945  -0.517  1.00  0.00     0.013 C 
HETATM   30  C20 UNL     1      19.248  -7.906   0.113  1.00  0.00     0.031 C 
HETATM   31  C21 UNL     1      19.680  -8.256   1.489  1.00  0.00    -0.041 C 
HETATM   32  C27 UNL     1      20.340  -7.537  -0.807  1.00  0.00     0.097 C 
HETATM   33  C22 UNL     1      19.898  -6.956   2.277  1.00  0.00     0.015 C 
HETATM   34  C23 UNL     1      18.577  -8.990   2.211  1.00  0.00     0.015 C 
HETATM   35  C24 UNL     1      20.914  -9.103   1.577  1.00  0.00     0.009 C 
HETATM   36  C25 UNL     1      22.033  -8.590   0.714  1.00  0.00     0.004 C 
HETATM   37  C26 UNL     1      21.516  -8.428  -0.699  1.00  0.00     0.042 C 
BRANCH  24  38
HETATM   38  O5  UNL     1      20.264  -8.748  -2.825  1.00  0.00    -0.382 OA
ATOM     39  H5  UNL     1      19.468  -9.048  -3.248  1.00  0.00     0.211 HD
ENDBRANCH  24  38
BRANCH  32  40
HETATM   40  O6  UNL     1      20.743  -6.223  -0.449  1.00  0.00    -0.386 OA
ATOM     41  H6  UNL     1      21.672  -6.179  -0.643  1.00  0.00     0.210 HD
ENDBRANCH  32  40
ENDBRANCH  23  24
ENDBRANCH   1  22
TORSDOF 10
ENDMDL
