MODEL 1
REMARK VINA RESULT: -7.249906029      0.000      0.000
REMARK  9 active torsions:
REMARK  status: ('A' for Active; 'I' for Inactive)
REMARK    1  A    between atoms: C2_3  and  N2_4 
REMARK    2  A    between atoms: C2_3  and  N3_8 
REMARK    3  A    between atoms: C3_9  and  N4_10 
REMARK    4  A    between atoms: N5_13  and  N6_14 
REMARK    5  A    between atoms: C6_20  and  N7_21 
REMARK    6  A    between atoms: N7_21  and  C7_23 
REMARK    7  A    between atoms: C7_23  and  C8_24 
REMARK    8  A    between atoms: C8_24  and  O2_25 
REMARK    9  A    between atoms: C8_24  and  C9_27 
ROOT
HETATM    1  N1  UNL     1      55.767  54.422  21.210  1.00  0.00    -0.193 NA
HETATM    2  C1  UNL     1      56.191  55.085  22.048  1.00  0.00     0.115 C 
HETATM    3  C2  UNL     1      56.753  55.924  23.105  1.00  0.00     0.413 C 
ENDROOT
BRANCH   3   4
HETATM    4  N2  UNL     1      57.590  55.128  23.987  1.00  0.00    -0.044 N 
ATOM      5  H23 UNL     1      57.898  54.262  23.543  1.00  0.00     0.278 HD
ATOM      6  H22 UNL     1      58.505  55.554  24.133  1.00  0.00     0.278 HD
ATOM      7  H21 UNL     1      57.106  54.953  24.868  1.00  0.00     0.278 HD
ENDBRANCH   3   4
BRANCH   3   8
HETATM    8  N3  UNL     1      57.534  57.000  22.524  1.00  0.00    -0.123 N 
HETATM    9  C3  UNL     1      58.497  56.806  21.607  1.00  0.00     0.706 A 
HETATM   10  N5  UNL     1      59.238  57.765  21.049  1.00  0.00    -0.053 N 
HETATM   11  C4  UNL     1      59.019  59.046  21.421  1.00  0.00     0.299 A 
HETATM   12  O1  UNL     1      59.705  59.967  20.909  1.00  0.00    -0.264 OA
HETATM   13  C5  UNL     1      58.045  59.317  22.360  1.00  0.00     0.123 A 
HETATM   14  C6  UNL     1      57.773  60.602  22.781  1.00  0.00     0.121 A 
HETATM   15  C11 UNL     1      57.303  58.280  22.908  1.00  0.00     0.147 A 
HETATM   16  N8  UNL     1      56.812  60.819  23.701  1.00  0.00    -0.338 N 
HETATM   17  C10 UNL     1      56.089  59.824  24.239  1.00  0.00     0.183 A 
ATOM     18  H8  UNL     1      56.627  61.776  24.001  1.00  0.00     0.168 HD
HETATM   19  N9  UNL     1      56.360  58.574  23.821  1.00  0.00    -0.337 N 
ATOM     20  H9  UNL     1      55.820  57.806  24.219  1.00  0.00     0.168 HD
BRANCH   9  21
HETATM   21  N4  UNL     1      58.721  55.588  21.237  1.00  0.00    -0.232 N 
ATOM     22  H42 UNL     1      58.904  54.901  21.969  1.00  0.00     0.174 HD
ATOM     23  H41 UNL     1      58.700  55.395  20.236  1.00  0.00     0.174 HD
ENDBRANCH   9  21
BRANCH  10  24
HETATM   24  N6  UNL     1      60.231  57.516  20.096  1.00  0.00    -0.321 N 
ATOM     25  H62 UNL     1      60.806  56.682  20.209  1.00  0.00     0.178 HD
ATOM     26  H61 UNL     1      60.409  58.125  19.297  1.00  0.00     0.178 HD
ENDBRANCH  10  24
BRANCH  14  27
HETATM   27  N7  UNL     1      58.459  61.601  22.279  1.00  0.00    -0.372 N 
ATOM     28  H7  UNL     1      59.445  61.724  22.510  1.00  0.00     0.161 HD
BRANCH  27  29
HETATM   29  C7  UNL     1      57.792  62.518  21.399  1.00  0.00     0.164 C 
BRANCH  29  30
HETATM   30  C8  UNL     1      57.923  63.921  21.956  1.00  0.00     0.236 C 
BRANCH  30  31
HETATM   31  O2  UNL     1      58.185  64.849  20.980  1.00  0.00    -0.383 OA
ATOM     32  H2  UNL     1      57.434  65.401  20.793  1.00  0.00     0.210 HD
ENDBRANCH  30  31
BRANCH  30  33
HETATM   33  C9  UNL     1      56.664  64.277  22.655  1.00  0.00     0.204 C 
HETATM   34  O3  UNL     1      56.467  65.463  23.034  1.00  0.00    -0.646 OA
HETATM   35  O4  UNL     1      55.665  63.355  22.922  1.00  0.00    -0.646 OA
ENDBRANCH  30  33
ENDBRANCH  29  30
ENDBRANCH  27  29
ENDBRANCH  14  27
ENDBRANCH   3   8
TORSDOF 9
ENDMDL
MODEL 2
REMARK VINA RESULT: -7.156071218      6.353      8.869
REMARK  9 active torsions:
REMARK  status: ('A' for Active; 'I' for Inactive)
REMARK    1  A    between atoms: C2_3  and  N2_4 
REMARK    2  A    between atoms: C2_3  and  N3_8 
REMARK    3  A    between atoms: C3_9  and  N4_10 
REMARK    4  A    between atoms: N5_13  and  N6_14 
REMARK    5  A    between atoms: C6_20  and  N7_21 
REMARK    6  A    between atoms: N7_21  and  C7_23 
REMARK    7  A    between atoms: C7_23  and  C8_24 
REMARK    8  A    between atoms: C8_24  and  O2_25 
REMARK    9  A    between atoms: C8_24  and  C9_27 
ROOT
HETATM    1  N1  UNL     1      56.910  57.355  22.916  1.00  0.00    -0.193 NA
HETATM    2  C1  UNL     1      56.441  56.351  22.609  1.00  0.00     0.115 C 
HETATM    3  C2  UNL     1      55.866  55.068  22.207  1.00  0.00     0.413 C 
ENDROOT
BRANCH   3   4
HETATM    4  N2  UNL     1      55.720  55.014  20.761  1.00  0.00    -0.044 N 
ATOM      5  H23 UNL     1      54.747  55.116  20.471  1.00  0.00     0.278 HD
ATOM      6  H22 UNL     1      56.099  55.847  20.308  1.00  0.00     0.278 HD
ATOM      7  H21 UNL     1      56.139  54.158  20.397  1.00  0.00     0.278 HD
ENDBRANCH   3   4
BRANCH   3   8
HETATM    8  N3  UNL     1      56.713  53.980  22.657  1.00  0.00    -0.123 N 
HETATM    9  C3  UNL     1      56.265  52.943  23.384  1.00  0.00     0.706 A 
HETATM   10  N5  UNL     1      57.008  51.923  23.817  1.00  0.00    -0.053 N 
HETATM   11  C4  UNL     1      58.325  51.911  23.511  1.00  0.00     0.299 A 
HETATM   12  O1  UNL     1      59.046  50.960  23.908  1.00  0.00    -0.264 OA
HETATM   13  C5  UNL     1      58.852  52.946  22.765  1.00  0.00     0.123 A 
HETATM   14  C6  UNL     1      60.187  52.991  22.419  1.00  0.00     0.121 A 
HETATM   15  C11 UNL     1      58.032  53.981  22.340  1.00  0.00     0.147 A 
HETATM   16  N8  UNL     1      60.657  54.023  21.690  1.00  0.00    -0.338 N 
HETATM   17  C10 UNL     1      59.874  55.030  21.274  1.00  0.00     0.183 A 
ATOM     18  H8  UNL     1      61.647  54.039  21.445  1.00  0.00     0.168 HD
HETATM   19  N9  UNL     1      58.573  54.977  21.616  1.00  0.00    -0.337 N 
ATOM     20  H9  UNL     1      57.963  55.734  21.308  1.00  0.00     0.168 HD
BRANCH   9  21
HETATM   21  N4  UNL     1      55.009  52.936  23.688  1.00  0.00    -0.232 N 
ATOM     22  H42 UNL     1      54.349  52.671  22.956  1.00  0.00     0.174 HD
ATOM     23  H41 UNL     1      54.760  53.195  24.643  1.00  0.00     0.174 HD
ENDBRANCH   9  21
BRANCH  10  24
HETATM   24  N6  UNL     1      56.499  50.863  24.573  1.00  0.00    -0.321 N 
ATOM     25  H62 UNL     1      55.717  51.053  25.200  1.00  0.00     0.178 HD
ATOM     26  H61 UNL     1      56.868  49.913  24.531  1.00  0.00     0.178 HD
ENDBRANCH  10  24
BRANCH  14  27
HETATM   27  N7  UNL     1      60.984  52.025  22.807  1.00  0.00    -0.372 N 
ATOM     28  H7  UNL     1      60.716  51.048  22.688  1.00  0.00     0.161 HD
BRANCH  27  29
HETATM   29  C7  UNL     1      62.243  52.372  23.402  1.00  0.00     0.164 C 
BRANCH  29  30
HETATM   30  C8  UNL     1      62.134  52.228  24.907  1.00  0.00     0.236 C 
BRANCH  30  31
HETATM   31  O2  UNL     1      61.382  51.140  25.275  1.00  0.00    -0.383 OA
ATOM     32  H2  UNL     1      60.719  51.359  25.920  1.00  0.00     0.210 HD
ENDBRANCH  30  31
BRANCH  30  33
HETATM   33  C9  UNL     1      63.499  52.104  25.475  1.00  0.00     0.204 C 
HETATM   34  O3  UNL     1      64.038  50.969  25.579  1.00  0.00    -0.646 OA
HETATM   35  O4  UNL     1      64.234  53.194  25.910  1.00  0.00    -0.646 OA
ENDBRANCH  30  33
ENDBRANCH  29  30
ENDBRANCH  27  29
ENDBRANCH  14  27
ENDBRANCH   3   8
TORSDOF 9
ENDMDL
MODEL 3
REMARK VINA RESULT: -7.092002249      6.807      8.765
REMARK  9 active torsions:
REMARK  status: ('A' for Active; 'I' for Inactive)
REMARK    1  A    between atoms: C2_3  and  N2_4 
REMARK    2  A    between atoms: C2_3  and  N3_8 
REMARK    3  A    between atoms: C3_9  and  N4_10 
REMARK    4  A    between atoms: N5_13  and  N6_14 
REMARK    5  A    between atoms: C6_20  and  N7_21 
REMARK    6  A    between atoms: N7_21  and  C7_23 
REMARK    7  A    between atoms: C7_23  and  C8_24 
REMARK    8  A    between atoms: C8_24  and  O2_25 
REMARK    9  A    between atoms: C8_24  and  C9_27 
ROOT
HETATM    1  N1  UNL     1      55.017  51.246  24.131  1.00  0.00    -0.193 NA
HETATM    2  C1  UNL     1      55.450  52.289  23.910  1.00  0.00     0.115 C 
HETATM    3  C2  UNL     1      56.019  53.608  23.644  1.00  0.00     0.413 C 
ENDROOT
BRANCH   3   4
HETATM    4  N2  UNL     1      55.952  54.434  24.840  1.00  0.00    -0.044 N 
ATOM      5  H23 UNL     1      55.375  55.263  24.699  1.00  0.00     0.278 HD
ATOM      6  H22 UNL     1      55.403  53.992  25.578  1.00  0.00     0.278 HD
ATOM      7  H21 UNL     1      56.893  54.673  25.155  1.00  0.00     0.278 HD
ENDBRANCH   3   4
BRANCH   3   8
HETATM    8  N3  UNL     1      57.398  53.479  23.213  1.00  0.00    -0.123 N 
HETATM    9  C3  UNL     1      57.872  54.009  22.073  1.00  0.00     0.706 A 
HETATM   10  N5  UNL     1      59.130  53.914  21.640  1.00  0.00    -0.053 N 
HETATM   11  C4  UNL     1      60.020  53.232  22.395  1.00  0.00     0.299 A 
HETATM   12  O1  UNL     1      61.213  53.128  22.008  1.00  0.00    -0.264 OA
HETATM   13  C5  UNL     1      59.601  52.661  23.579  1.00  0.00     0.123 A 
HETATM   14  C6  UNL     1      60.460  51.953  24.395  1.00  0.00     0.121 A 
HETATM   15  C11 UNL     1      58.280  52.792  23.982  1.00  0.00     0.147 A 
HETATM   16  N8  UNL     1      60.005  51.413  25.542  1.00  0.00    -0.338 N 
HETATM   17  C10 UNL     1      58.730  51.532  25.942  1.00  0.00     0.183 A 
ATOM     18  H8  UNL     1      60.655  50.892  26.131  1.00  0.00     0.168 HD
HETATM   19  N9  UNL     1      57.899  52.225  25.141  1.00  0.00    -0.337 N 
ATOM     20  H9  UNL     1      56.926  52.325  25.428  1.00  0.00     0.168 HD
BRANCH   9  21
HETATM   21  N4  UNL     1      57.037  54.665  21.337  1.00  0.00    -0.232 N 
ATOM     22  H42 UNL     1      56.056  54.659  21.619  1.00  0.00     0.174 HD
ATOM     23  H41 UNL     1      57.415  55.147  20.521  1.00  0.00     0.174 HD
ENDBRANCH   9  21
BRANCH  10  24
HETATM   24  N6  UNL     1      59.580  54.483  20.445  1.00  0.00    -0.321 N 
ATOM     25  H62 UNL     1      59.643  55.499  20.391  1.00  0.00     0.178 HD
ATOM     26  H61 UNL     1      59.848  53.935  19.626  1.00  0.00     0.178 HD
ENDBRANCH  10  24
BRANCH  14  27
HETATM   27  N7  UNL     1      61.715  51.814  24.039  1.00  0.00    -0.372 N 
ATOM     28  H7  UNL     1      61.978  51.798  23.053  1.00  0.00     0.161 HD
BRANCH  27  29
HETATM   29  C7  UNL     1      62.709  51.686  25.066  1.00  0.00     0.164 C 
BRANCH  29  30
HETATM   30  C8  UNL     1      63.651  52.871  24.992  1.00  0.00     0.236 C 
BRANCH  30  31
HETATM   31  O2  UNL     1      64.336  53.069  26.163  1.00  0.00    -0.383 OA
ATOM     32  H2  UNL     1      64.584  53.978  26.290  1.00  0.00     0.210 HD
ENDBRANCH  30  31
BRANCH  30  33
HETATM   33  C9  UNL     1      64.614  52.648  23.884  1.00  0.00     0.204 C 
HETATM   34  O3  UNL     1      65.553  53.466  23.692  1.00  0.00    -0.646 OA
HETATM   35  O4  UNL     1      64.536  51.562  23.028  1.00  0.00    -0.646 OA
ENDBRANCH  30  33
ENDBRANCH  29  30
ENDBRANCH  27  29
ENDBRANCH  14  27
ENDBRANCH   3   8
TORSDOF 9
ENDMDL
MODEL 4
REMARK VINA RESULT: -6.934475846      4.766      7.929
REMARK  9 active torsions:
REMARK  status: ('A' for Active; 'I' for Inactive)
REMARK    1  A    between atoms: C2_3  and  N2_4 
REMARK    2  A    between atoms: C2_3  and  N3_8 
REMARK    3  A    between atoms: C3_9  and  N4_10 
REMARK    4  A    between atoms: N5_13  and  N6_14 
REMARK    5  A    between atoms: C6_20  and  N7_21 
REMARK    6  A    between atoms: N7_21  and  C7_23 
REMARK    7  A    between atoms: C7_23  and  C8_24 
REMARK    8  A    between atoms: C8_24  and  O2_25 
REMARK    9  A    between atoms: C8_24  and  C9_27 
ROOT
HETATM    1  N1  UNL     1      56.114  59.667  23.057  1.00  0.00    -0.193 NA
HETATM    2  C1  UNL     1      57.164  59.199  23.090  1.00  0.00     0.115 C 
HETATM    3  C2  UNL     1      58.490  58.587  23.146  1.00  0.00     0.413 C 
ENDROOT
BRANCH   3   4
HETATM    4  N2  UNL     1      59.022  58.664  24.497  1.00  0.00    -0.044 N 
ATOM      5  H23 UNL     1      58.281  58.695  25.198  1.00  0.00     0.278 HD
ATOM      6  H22 UNL     1      59.463  57.790  24.784  1.00  0.00     0.278 HD
ATOM      7  H21 UNL     1      59.657  59.458  24.580  1.00  0.00     0.278 HD
ENDBRANCH   3   4
BRANCH   3   8
HETATM    8  N3  UNL     1      58.416  57.200  22.726  1.00  0.00    -0.123 N 
HETATM    9  C3  UNL     1      59.146  56.690  21.720  1.00  0.00     0.706 A 
HETATM   10  N5  UNL     1      59.108  55.423  21.302  1.00  0.00    -0.053 N 
HETATM   11  C4  UNL     1      58.274  54.563  21.929  1.00  0.00     0.299 A 
HETATM   12  O1  UNL     1      58.222  53.364  21.553  1.00  0.00    -0.264 OA
HETATM   13  C5  UNL     1      57.495  55.021  22.972  1.00  0.00     0.123 A 
HETATM   14  C6  UNL     1      56.625  54.194  23.652  1.00  0.00     0.121 A 
HETATM   15  C11 UNL     1      57.575  56.349  23.365  1.00  0.00     0.147 A 
HETATM   16  N8  UNL     1      55.884  54.686  24.665  1.00  0.00    -0.338 N 
HETATM   17  C10 UNL     1      55.951  55.968  25.053  1.00  0.00     0.183 A 
ATOM     18  H8  UNL     1      55.245  54.059  25.154  1.00  0.00     0.168 HD
HETATM   19  N9  UNL     1      56.803  56.767  24.385  1.00  0.00    -0.337 N 
ATOM     20  H9  UNL     1      56.867  57.745  24.667  1.00  0.00     0.168 HD
BRANCH   9  21
HETATM   21  N4  UNL     1      59.949  57.495  21.107  1.00  0.00    -0.232 N 
ATOM     22  H42 UNL     1      59.645  58.462  20.989  1.00  0.00     0.174 HD
ATOM     23  H41 UNL     1      60.836  57.110  20.783  1.00  0.00     0.174 HD
ENDBRANCH   9  21
BRANCH  10  24
HETATM   24  N6  UNL     1      59.887  54.935  20.249  1.00  0.00    -0.321 N 
ATOM     25  H62 UNL     1      60.528  54.166  20.442  1.00  0.00     0.178 HD
ATOM     26  H61 UNL     1      59.848  55.307  19.300  1.00  0.00     0.178 HD
ENDBRANCH  10  24
BRANCH  14  27
HETATM   27  N7  UNL     1      56.530  52.934  23.302  1.00  0.00    -0.372 N 
ATOM     28  H7  UNL     1      56.934  52.605  22.424  1.00  0.00     0.161 HD
BRANCH  27  29
HETATM   29  C7  UNL     1      55.847  52.027  24.179  1.00  0.00     0.164 C 
BRANCH  29  30
HETATM   30  C8  UNL     1      56.868  51.298  25.028  1.00  0.00     0.236 C 
BRANCH  30  31
HETATM   31  O2  UNL     1      56.286  50.443  25.930  1.00  0.00    -0.383 OA
ATOM     32  H2  UNL     1      56.846  49.707  26.147  1.00  0.00     0.210 HD
ENDBRANCH  30  31
BRANCH  30  33
HETATM   33  C9  UNL     1      57.775  50.534  24.135  1.00  0.00     0.204 C 
HETATM   34  O3  UNL     1      57.454  49.376  23.753  1.00  0.00    -0.646 OA
HETATM   35  O4  UNL     1      58.984  51.036  23.684  1.00  0.00    -0.646 OA
ENDBRANCH  30  33
ENDBRANCH  29  30
ENDBRANCH  27  29
ENDBRANCH  14  27
ENDBRANCH   3   8
TORSDOF 9
ENDMDL
MODEL 5
REMARK VINA RESULT: -6.932439868      6.509      8.741
REMARK  9 active torsions:
REMARK  status: ('A' for Active; 'I' for Inactive)
REMARK    1  A    between atoms: C2_3  and  N2_4 
REMARK    2  A    between atoms: C2_3  and  N3_8 
REMARK    3  A    between atoms: C3_9  and  N4_10 
REMARK    4  A    between atoms: N5_13  and  N6_14 
REMARK    5  A    between atoms: C6_20  and  N7_21 
REMARK    6  A    between atoms: N7_21  and  C7_23 
REMARK    7  A    between atoms: C7_23  and  C8_24 
REMARK    8  A    between atoms: C8_24  and  O2_25 
REMARK    9  A    between atoms: C8_24  and  C9_27 
ROOT
HETATM    1  N1  UNL     1      59.777  54.959  20.465  1.00  0.00    -0.193 NA
HETATM    2  C1  UNL     1      59.918  54.963  21.606  1.00  0.00     0.115 C 
HETATM    3  C2  UNL     1      60.073  54.966  23.060  1.00  0.00     0.413 C 
ENDROOT
BRANCH   3   4
HETATM    4  N2  UNL     1      59.517  56.187  23.621  1.00  0.00    -0.044 N 
ATOM      5  H23 UNL     1      58.538  56.075  23.886  1.00  0.00     0.278 HD
ATOM      6  H22 UNL     1      59.900  56.391  24.544  1.00  0.00     0.278 HD
ATOM      7  H21 UNL     1      59.649  56.964  22.972  1.00  0.00     0.278 HD
ENDBRANCH   3   4
BRANCH   3   8
HETATM    8  N3  UNL     1      59.405  53.813  23.634  1.00  0.00    -0.123 N 
HETATM    9  C3  UNL     1      60.030  52.894  24.389  1.00  0.00     0.706 A 
HETATM   10  N5  UNL     1      59.454  51.821  24.936  1.00  0.00    -0.053 N 
HETATM   11  C4  UNL     1      58.133  51.623  24.726  1.00  0.00     0.299 A 
HETATM   12  O1  UNL     1      57.569  50.618  25.230  1.00  0.00    -0.264 OA
HETATM   13  C5  UNL     1      57.430  52.529  23.959  1.00  0.00     0.123 A 
HETATM   14  C6  UNL     1      56.081  52.383  23.709  1.00  0.00     0.121 A 
HETATM   15  C11 UNL     1      58.079  53.628  23.415  1.00  0.00     0.147 A 
HETATM   16  N8  UNL     1      55.435  53.294  22.953  1.00  0.00    -0.338 N 
HETATM   17  C10 UNL     1      56.053  54.360  22.421  1.00  0.00     0.183 A 
ATOM     18  H8  UNL     1      54.438  53.168  22.778  1.00  0.00     0.168 HD
HETATM   19  N9  UNL     1      57.368  54.494  22.672  1.00  0.00    -0.337 N 
ATOM     20  H9  UNL     1      57.853  55.299  22.275  1.00  0.00     0.168 HD
BRANCH   9  21
HETATM   21  N4  UNL     1      61.292  53.065  24.601  1.00  0.00    -0.232 N 
ATOM     22  H42 UNL     1      61.579  53.932  25.058  1.00  0.00     0.174 HD
ATOM     23  H41 UNL     1      61.920  52.321  24.299  1.00  0.00     0.174 HD
ENDBRANCH   9  21
BRANCH  10  24
HETATM   24  N6  UNL     1      60.144  50.889  25.716  1.00  0.00    -0.321 N 
ATOM     25  H62 UNL     1      61.157  50.982  25.792  1.00  0.00     0.178 HD
ATOM     26  H61 UNL     1      59.689  50.121  26.211  1.00  0.00     0.178 HD
ENDBRANCH  10  24
BRANCH  14  27
HETATM   27  N7  UNL     1      55.442  51.353  24.211  1.00  0.00    -0.372 N 
ATOM     28  H7  UNL     1      55.922  50.467  24.365  1.00  0.00     0.161 HD
BRANCH  27  29
HETATM   29  C7  UNL     1      54.052  51.501  24.538  1.00  0.00     0.164 C 
BRANCH  29  30
HETATM   30  C8  UNL     1      53.869  51.268  26.024  1.00  0.00     0.236 C 
BRANCH  30  31
HETATM   31  O2  UNL     1      54.887  50.527  26.568  1.00  0.00    -0.383 OA
ATOM     32  H2  UNL     1      54.914  49.641  26.227  1.00  0.00     0.210 HD
ENDBRANCH  30  31
BRANCH  30  33
HETATM   33  C9  UNL     1      53.791  52.584  26.708  1.00  0.00     0.204 C 
HETATM   34  O3  UNL     1      54.169  53.627  26.111  1.00  0.00    -0.646 OA
HETATM   35  O4  UNL     1      53.314  52.732  27.999  1.00  0.00    -0.646 OA
ENDBRANCH  30  33
ENDBRANCH  29  30
ENDBRANCH  27  29
ENDBRANCH  14  27
ENDBRANCH   3   8
TORSDOF 9
ENDMDL
