MODEL 1
REMARK VINA RESULT: -7.051747968      0.000      0.000
REMARK  8 active torsions:
REMARK  status: ('A' for Active; 'I' for Inactive)
REMARK    1  A    between atoms: N1_2  and  C2_4 
REMARK    2  A    between atoms: C3_12  and  N6_13 
REMARK    3  A    between atoms: N6_13  and  C4_15 
REMARK    4  A    between atoms: N10_22  and  C5_23 
REMARK    5  A    between atoms: C5_23  and  C6_24 
REMARK    6  A    between atoms: C6_24  and  O1_25 
REMARK    7  A    between atoms: C6_24  and  C7_27 
REMARK    8  A    between atoms: C7_27  and  O2_28 
ROOT
HETATM    1  C2  UNL     1      58.150  56.145  21.330  1.00  0.00     0.142 A 
HETATM    2  N2  UNL     1      56.950  56.557  21.760  1.00  0.00    -0.260 N 
ATOM      3  H2  UNL     1      56.448  57.374  21.413  1.00  0.00     0.191 HD
HETATM    4  N3  UNL     1      56.511  55.728  22.713  1.00  0.00    -0.161 N 
HETATM    5  N4  UNL     1      55.390  55.769  23.425  1.00  0.00    -0.205 N 
ATOM      6  H4  UNL     1      54.717  56.515  23.248  1.00  0.00     0.211 HD
HETATM    7  N5  UNL     1      55.127  54.885  24.341  1.00  0.00    -0.115 N 
ATOM      8  H5  UNL     1      54.261  54.933  24.879  1.00  0.00     0.207 HD
HETATM    9  C3  UNL     1      56.028  53.899  24.567  1.00  0.00     0.716 A 
HETATM   10  N10 UNL     1      57.184  53.785  23.887  1.00  0.00    -0.159 N 
HETATM   11  C8  UNL     1      57.405  54.745  22.941  1.00  0.00     0.189 A 
HETATM   12  C9  UNL     1      58.443  54.999  22.075  1.00  0.00     0.137 A 
HETATM   13  C10 UNL     1      59.679  54.264  21.939  1.00  0.00     0.107 C 
HETATM   14  N11 UNL     1      60.701  53.683  21.819  1.00  0.00    -0.191 NA
ENDROOT
BRANCH   1  15
HETATM   15  N1  UNL     1      58.844  56.699  20.436  1.00  0.00    -0.378 N 
HETATM   16  C1  UNL     1      59.833  57.694  20.496  1.00  0.00     0.147 C 
ATOM     17  H1  UNL     1      58.653  56.361  19.493  1.00  0.00     0.160 HD
ENDBRANCH   1  15
BRANCH  10  18
HETATM   18  C5  UNL     1      58.141  52.719  24.070  1.00  0.00     0.183 C 
BRANCH  18  19
HETATM   19  C6  UNL     1      57.838  51.403  23.490  1.00  0.00     0.160 C 
BRANCH  19  20
HETATM   20  O1  UNL     1      58.894  51.089  22.570  1.00  0.00    -0.392 OA
ATOM     21  H1  UNL     1      58.582  51.302  21.697  1.00  0.00     0.210 HD
ENDBRANCH  19  20
BRANCH  19  22
HETATM   22  C7  UNL     1      57.769  50.207  24.413  1.00  0.00     0.197 C 
BRANCH  22  23
HETATM   23  O2  UNL     1      57.736  48.998  23.761  1.00  0.00    -0.398 OA
ATOM     24  H2  UNL     1      57.101  48.955  23.057  1.00  0.00     0.209 HD
ENDBRANCH  22  23
ENDBRANCH  19  22
ENDBRANCH  18  19
ENDBRANCH  10  18
BRANCH   9  25
HETATM   25  N6  UNL     1      55.793  53.044  25.528  1.00  0.00    -0.018 N 
ATOM     26  H6  UNL     1      56.372  53.052  26.367  1.00  0.00     0.203 HD
BRANCH  25  27
HETATM   27  C4  UNL     1      54.748  52.114  25.411  1.00  0.00     0.728 A 
HETATM   28  N7  UNL     1      54.323  51.268  24.437  1.00  0.00    -0.115 N 
HETATM   29  N8  UNL     1      53.364  50.880  25.252  1.00  0.00    -0.214 N 
ATOM     30  H7  UNL     1      54.618  51.035  23.489  1.00  0.00     0.207 HD
HETATM   31  N9  UNL     1      53.760  51.696  26.213  1.00  0.00    -0.115 N 
ATOM     32  H8  UNL     1      52.604  50.204  25.172  1.00  0.00     0.209 HD
ATOM     33  H9  UNL     1      53.447  51.914  27.160  1.00  0.00     0.207 HD
ENDBRANCH  25  27
ENDBRANCH   9  25
TORSDOF 8
ENDMDL
MODEL 2
REMARK VINA RESULT: -7.010376657      2.632      4.558
REMARK  8 active torsions:
REMARK  status: ('A' for Active; 'I' for Inactive)
REMARK    1  A    between atoms: N1_2  and  C2_4 
REMARK    2  A    between atoms: C3_12  and  N6_13 
REMARK    3  A    between atoms: N6_13  and  C4_15 
REMARK    4  A    between atoms: N10_22  and  C5_23 
REMARK    5  A    between atoms: C5_23  and  C6_24 
REMARK    6  A    between atoms: C6_24  and  O1_25 
REMARK    7  A    between atoms: C6_24  and  C7_27 
REMARK    8  A    between atoms: C7_27  and  O2_28 
ROOT
HETATM    1  C2  UNL     1      62.184  52.715  22.866  1.00  0.00     0.142 A 
HETATM    2  N2  UNL     1      61.791  53.343  21.750  1.00  0.00    -0.260 N 
ATOM      3  H2  UNL     1      62.395  53.576  20.962  1.00  0.00     0.191 HD
HETATM    4  N3  UNL     1      60.485  53.616  21.831  1.00  0.00    -0.161 N 
HETATM    5  N4  UNL     1      59.693  54.243  20.968  1.00  0.00    -0.205 N 
ATOM      6  H4  UNL     1      60.084  54.573  20.085  1.00  0.00     0.211 HD
HETATM    7  N5  UNL     1      58.433  54.448  21.217  1.00  0.00    -0.115 N 
ATOM      8  H5  UNL     1      57.840  54.932  20.542  1.00  0.00     0.207 HD
HETATM    9  C3  UNL     1      57.926  54.005  22.392  1.00  0.00     0.716 A 
HETATM   10  N10 UNL     1      58.659  53.358  23.316  1.00  0.00    -0.159 N 
HETATM   11  C8  UNL     1      59.975  53.176  22.999  1.00  0.00     0.189 A 
HETATM   12  C9  UNL     1      61.038  52.608  23.660  1.00  0.00     0.137 A 
HETATM   13  C10 UNL     1      61.044  52.017  24.978  1.00  0.00     0.107 C 
HETATM   14  N11 UNL     1      61.073  51.540  26.059  1.00  0.00    -0.191 NA
ENDROOT
BRANCH   1  15
HETATM   15  N1  UNL     1      63.353  52.316  23.117  1.00  0.00    -0.378 N 
HETATM   16  C1  UNL     1      64.529  53.004  23.454  1.00  0.00     0.147 C 
ATOM     17  H1  UNL     1      63.465  51.303  23.066  1.00  0.00     0.160 HD
ENDBRANCH   1  15
BRANCH  10  18
HETATM   18  C5  UNL     1      58.137  52.831  24.555  1.00  0.00     0.183 C 
BRANCH  18  19
HETATM   19  C6  UNL     1      57.505  51.505  24.537  1.00  0.00     0.160 C 
BRANCH  19  20
HETATM   20  O1  UNL     1      56.113  51.699  24.244  1.00  0.00    -0.392 OA
ATOM     21  H1  UNL     1      55.618  51.162  24.853  1.00  0.00     0.210 HD
ENDBRANCH  19  20
BRANCH  19  22
HETATM   22  C7  UNL     1      57.973  50.498  23.510  1.00  0.00     0.197 C 
BRANCH  22  23
HETATM   23  O2  UNL     1      57.748  49.190  23.865  1.00  0.00    -0.398 OA
ATOM     24  H2  UNL     1      58.152  48.556  23.283  1.00  0.00     0.209 HD
ENDBRANCH  22  23
ENDBRANCH  19  22
ENDBRANCH  18  19
ENDBRANCH  10  18
BRANCH   9  25
HETATM   25  N6  UNL     1      56.674  54.261  22.669  1.00  0.00    -0.018 N 
ATOM     26  H6  UNL     1      56.237  53.831  23.484  1.00  0.00     0.203 HD
BRANCH  25  27
HETATM   27  C4  UNL     1      55.927  55.125  21.852  1.00  0.00     0.728 A 
HETATM   28  N7  UNL     1      55.319  55.013  20.643  1.00  0.00    -0.115 N 
HETATM   29  N8  UNL     1      54.937  56.267  20.766  1.00  0.00    -0.214 N 
ATOM     30  H7  UNL     1      55.208  54.278  19.945  1.00  0.00     0.207 HD
HETATM   31  N9  UNL     1      55.522  56.399  21.944  1.00  0.00    -0.115 N 
ATOM     32  H8  UNL     1      54.395  56.897  20.176  1.00  0.00     0.209 HD
ATOM     33  H9  UNL     1      55.622  57.148  22.629  1.00  0.00     0.207 HD
ENDBRANCH  25  27
ENDBRANCH   9  25
TORSDOF 8
ENDMDL
MODEL 3
REMARK VINA RESULT: -6.965038582      4.767      6.758
REMARK  8 active torsions:
REMARK  status: ('A' for Active; 'I' for Inactive)
REMARK    1  A    between atoms: N1_2  and  C2_4 
REMARK    2  A    between atoms: C3_12  and  N6_13 
REMARK    3  A    between atoms: N6_13  and  C4_15 
REMARK    4  A    between atoms: N10_22  and  C5_23 
REMARK    5  A    between atoms: C5_23  and  C6_24 
REMARK    6  A    between atoms: C6_24  and  O1_25 
REMARK    7  A    between atoms: C6_24  and  C7_27 
REMARK    8  A    between atoms: C7_27  and  O2_28 
ROOT
HETATM    1  C2  UNL     1      58.578  62.008  22.040  1.00  0.00     0.142 A 
HETATM    2  N2  UNL     1      59.444  61.064  21.649  1.00  0.00    -0.260 N 
ATOM      3  H2  UNL     1      60.347  61.238  21.208  1.00  0.00     0.191 HD
HETATM    4  N3  UNL     1      58.940  59.857  21.928  1.00  0.00    -0.161 N 
HETATM    5  N4  UNL     1      59.447  58.650  21.693  1.00  0.00    -0.205 N 
ATOM      6  H4  UNL     1      60.363  58.574  21.252  1.00  0.00     0.211 HD
HETATM    7  N5  UNL     1      58.806  57.565  22.012  1.00  0.00    -0.115 N 
ATOM      8  H5  UNL     1      59.210  56.647  21.825  1.00  0.00     0.207 HD
HETATM    9  C3  UNL     1      57.590  57.679  22.599  1.00  0.00     0.716 A 
HETATM   10  N10 UNL     1      57.011  58.862  22.873  1.00  0.00    -0.159 N 
HETATM   11  C8  UNL     1      57.731  59.966  22.512  1.00  0.00     0.189 A 
HETATM   12  C9  UNL     1      57.491  61.318  22.587  1.00  0.00     0.137 A 
HETATM   13  C10 UNL     1      56.313  61.979  23.097  1.00  0.00     0.107 C 
HETATM   14  N11 UNL     1      55.353  62.539  23.499  1.00  0.00    -0.191 NA
ENDROOT
BRANCH   1  15
HETATM   15  N1  UNL     1      58.740  63.252  21.926  1.00  0.00    -0.378 N 
HETATM   16  C1  UNL     1      57.960  64.250  21.320  1.00  0.00     0.147 C 
ATOM     17  H1  UNL     1      59.598  63.600  22.355  1.00  0.00     0.160 HD
ENDBRANCH   1  15
BRANCH  10  18
HETATM   18  C5  UNL     1      55.740  59.017  23.541  1.00  0.00     0.183 C 
BRANCH  18  19
HETATM   19  C6  UNL     1      55.691  58.834  24.998  1.00  0.00     0.160 C 
BRANCH  19  20
HETATM   20  O1  UNL     1      55.072  60.003  25.556  1.00  0.00    -0.392 OA
ATOM     21  H1  UNL     1      55.054  59.891  26.499  1.00  0.00     0.210 HD
ENDBRANCH  19  20
BRANCH  19  22
HETATM   22  C7  UNL     1      54.890  57.678  25.553  1.00  0.00     0.197 C 
BRANCH  22  23
HETATM   23  O2  UNL     1      54.328  56.873  24.591  1.00  0.00    -0.398 OA
ATOM     24  H2  UNL     1      54.349  55.947  24.800  1.00  0.00     0.209 HD
ENDBRANCH  22  23
ENDBRANCH  19  22
ENDBRANCH  18  19
ENDBRANCH  10  18
BRANCH   9  25
HETATM   25  N6  UNL     1      56.919  56.589  22.866  1.00  0.00    -0.018 N 
ATOM     26  H6  UNL     1      56.907  56.223  23.818  1.00  0.00     0.203 HD
BRANCH  25  27
HETATM   27  C4  UNL     1      56.216  55.920  21.852  1.00  0.00     0.728 A 
HETATM   28  N7  UNL     1      55.143  56.216  21.074  1.00  0.00    -0.115 N 
HETATM   29  N8  UNL     1      55.281  55.036  20.507  1.00  0.00    -0.214 N 
ATOM     30  H7  UNL     1      54.508  57.008  20.974  1.00  0.00     0.207 HD
HETATM   31  N9  UNL     1      56.328  54.726  21.254  1.00  0.00    -0.115 N 
ATOM     32  H8  UNL     1      54.774  54.547  19.770  1.00  0.00     0.209 HD
ATOM     33  H9  UNL     1      56.951  53.924  21.339  1.00  0.00     0.207 HD
ENDBRANCH  25  27
ENDBRANCH   9  25
TORSDOF 8
ENDMDL
MODEL 4
REMARK VINA RESULT: -6.952577441      1.861      5.885
REMARK  8 active torsions:
REMARK  status: ('A' for Active; 'I' for Inactive)
REMARK    1  A    between atoms: N1_2  and  C2_4 
REMARK    2  A    between atoms: C3_12  and  N6_13 
REMARK    3  A    between atoms: N6_13  and  C4_15 
REMARK    4  A    between atoms: N10_22  and  C5_23 
REMARK    5  A    between atoms: C5_23  and  C6_24 
REMARK    6  A    between atoms: C6_24  and  O1_25 
REMARK    7  A    between atoms: C6_24  and  C7_27 
REMARK    8  A    between atoms: C7_27  and  O2_28 
ROOT
HETATM    1  C2  UNL     1      55.353  52.223  24.399  1.00  0.00     0.142 A 
HETATM    2  N2  UNL     1      55.026  53.486  24.095  1.00  0.00    -0.260 N 
ATOM      3  H2  UNL     1      54.166  53.956  24.376  1.00  0.00     0.191 HD
HETATM    4  N3  UNL     1      56.004  54.033  23.365  1.00  0.00    -0.161 N 
HETATM    5  N4  UNL     1      56.088  55.249  22.833  1.00  0.00    -0.205 N 
ATOM      6  H4  UNL     1      55.327  55.911  22.987  1.00  0.00     0.211 HD
HETATM    7  N5  UNL     1      57.112  55.616  22.122  1.00  0.00    -0.115 N 
ATOM      8  H5  UNL     1      57.160  56.553  21.720  1.00  0.00     0.207 HD
HETATM    9  C3  UNL     1      58.115  54.727  21.925  1.00  0.00     0.716 A 
HETATM   10  N10 UNL     1      58.108  53.481  22.432  1.00  0.00    -0.159 N 
HETATM   11  C8  UNL     1      57.005  53.153  23.167  1.00  0.00     0.189 A 
HETATM   12  C9  UNL     1      56.604  52.007  23.813  1.00  0.00     0.137 A 
HETATM   13  C10 UNL     1      57.298  50.742  23.878  1.00  0.00     0.107 C 
HETATM   14  N11 UNL     1      57.844  49.696  23.935  1.00  0.00    -0.191 NA
ENDROOT
BRANCH   1  15
HETATM   15  N1  UNL     1      54.655  51.422  25.076  1.00  0.00    -0.378 N 
HETATM   16  C1  UNL     1      53.266  51.281  25.228  1.00  0.00     0.147 C 
ATOM     17  H1  UNL     1      55.201  50.749  25.616  1.00  0.00     0.160 HD
ENDBRANCH   1  15
BRANCH  10  18
HETATM   18  C5  UNL     1      59.183  52.528  22.281  1.00  0.00     0.183 C 
BRANCH  18  19
HETATM   19  C6  UNL     1      60.365  52.669  23.143  1.00  0.00     0.160 C 
BRANCH  19  20
HETATM   20  O1  UNL     1      60.512  51.441  23.872  1.00  0.00    -0.392 OA
ATOM     21  H1  UNL     1      61.421  51.379  24.142  1.00  0.00     0.210 HD
ENDBRANCH  19  20
BRANCH  19  22
HETATM   22  C7  UNL     1      61.712  52.887  22.489  1.00  0.00     0.197 C 
BRANCH  22  23
HETATM   23  O2  UNL     1      61.640  53.410  21.220  1.00  0.00    -0.398 OA
ATOM     24  H2  UNL     1      62.455  53.360  20.735  1.00  0.00     0.209 HD
ENDBRANCH  22  23
ENDBRANCH  19  22
ENDBRANCH  18  19
ENDBRANCH  10  18
BRANCH   9  25
HETATM   25  N6  UNL     1      59.119  55.075  21.162  1.00  0.00    -0.018 N 
ATOM     26  H6  UNL     1      59.666  54.357  20.686  1.00  0.00     0.203 HD
BRANCH  25  27
HETATM   27  C4  UNL     1      59.448  56.429  20.993  1.00  0.00     0.728 A 
HETATM   28  N7  UNL     1      59.788  57.444  21.829  1.00  0.00    -0.115 N 
HETATM   29  N8  UNL     1      59.884  58.225  20.774  1.00  0.00    -0.214 N 
ATOM     30  H7  UNL     1      59.913  57.552  22.836  1.00  0.00     0.207 HD
HETATM   31  N9  UNL     1      59.555  57.252  19.942  1.00  0.00    -0.115 N 
ATOM     32  H8  UNL     1      60.123  59.208  20.647  1.00  0.00     0.209 HD
ATOM     33  H9  UNL     1      59.434  57.166  18.932  1.00  0.00     0.207 HD
ENDBRANCH  25  27
ENDBRANCH   9  25
TORSDOF 8
ENDMDL
MODEL 5
REMARK VINA RESULT: -6.761520696      2.175      3.210
REMARK  8 active torsions:
REMARK  status: ('A' for Active; 'I' for Inactive)
REMARK    1  A    between atoms: N1_2  and  C2_4 
REMARK    2  A    between atoms: C3_12  and  N6_13 
REMARK    3  A    between atoms: N6_13  and  C4_15 
REMARK    4  A    between atoms: N10_22  and  C5_23 
REMARK    5  A    between atoms: C5_23  and  C6_24 
REMARK    6  A    between atoms: C6_24  and  O1_25 
REMARK    7  A    between atoms: C6_24  and  C7_27 
REMARK    8  A    between atoms: C7_27  and  O2_28 
ROOT
HETATM    1  C2  UNL     1      56.307  57.612  23.306  1.00  0.00     0.142 A 
HETATM    2  N2  UNL     1      55.491  57.110  24.242  1.00  0.00    -0.260 N 
ATOM      3  H2  UNL     1      54.917  57.660  24.880  1.00  0.00     0.191 HD
HETATM    4  N3  UNL     1      55.546  55.774  24.208  1.00  0.00    -0.161 N 
HETATM    5  N4  UNL     1      54.923  54.879  24.967  1.00  0.00    -0.205 N 
ATOM      6  H4  UNL     1      54.280  55.203  25.690  1.00  0.00     0.211 HD
HETATM    7  N5  UNL     1      55.110  53.601  24.814  1.00  0.00    -0.115 N 
ATOM      8  H5  UNL     1      54.623  52.928  25.406  1.00  0.00     0.207 HD
HETATM    9  C3  UNL     1      55.965  53.184  23.850  1.00  0.00     0.716 A 
HETATM   10  N10 UNL     1      56.631  54.025  23.038  1.00  0.00    -0.159 N 
HETATM   11  C8  UNL     1      56.396  55.354  23.250  1.00  0.00     0.189 A 
HETATM   12  C9  UNL     1      56.883  56.504  22.676  1.00  0.00     0.137 A 
HETATM   13  C10 UNL     1      57.861  56.618  21.619  1.00  0.00     0.107 C 
HETATM   14  N11 UNL     1      58.668  56.733  20.764  1.00  0.00    -0.191 NA
ENDROOT
BRANCH   1  15
HETATM   15  N1  UNL     1      56.494  58.835  23.067  1.00  0.00    -0.378 N 
HETATM   16  C1  UNL     1      56.097  59.997  23.749  1.00  0.00     0.147 C 
ATOM     17  H1  UNL     1      57.034  59.015  22.221  1.00  0.00     0.160 HD
ENDBRANCH   1  15
BRANCH  10  18
HETATM   18  C5  UNL     1      57.511  53.609  21.971  1.00  0.00     0.183 C 
BRANCH  18  19
HETATM   19  C6  UNL     1      58.852  53.122  22.324  1.00  0.00     0.160 C 
BRANCH  19  20
HETATM   20  O1  UNL     1      58.888  51.718  22.025  1.00  0.00    -0.392 OA
ATOM     21  H1  UNL     1      59.636  51.351  22.482  1.00  0.00     0.210 HD
ENDBRANCH  19  20
BRANCH  19  22
HETATM   22  C7  UNL     1      60.044  53.698  21.592  1.00  0.00     0.197 C 
BRANCH  22  23
HETATM   23  O2  UNL     1      59.829  53.911  20.252  1.00  0.00    -0.398 OA
ATOM     24  H2  UNL     1      59.472  54.768  20.049  1.00  0.00     0.209 HD
ENDBRANCH  22  23
ENDBRANCH  19  22
ENDBRANCH  18  19
ENDBRANCH  10  18
BRANCH   9  25
HETATM   25  N6  UNL     1      56.199  51.902  23.733  1.00  0.00    -0.018 N 
ATOM     26  H6  UNL     1      55.912  51.410  22.887  1.00  0.00     0.203 HD
BRANCH  25  27
HETATM   27  C4  UNL     1      56.842  51.200  24.765  1.00  0.00     0.728 A 
HETATM   28  N7  UNL     1      58.126  50.842  25.025  1.00  0.00    -0.115 N 
HETATM   29  N8  UNL     1      57.698  50.269  26.130  1.00  0.00    -0.214 N 
ATOM     30  H7  UNL     1      59.027  50.964  24.564  1.00  0.00     0.207 HD
HETATM   31  N9  UNL     1      56.441  50.606  25.897  1.00  0.00    -0.115 N 
ATOM     32  H8  UNL     1      58.161  49.758  26.882  1.00  0.00     0.209 HD
ATOM     33  H9  UNL     1      55.549  50.472  26.374  1.00  0.00     0.207 HD
ENDBRANCH  25  27
ENDBRANCH   9  25
TORSDOF 8
ENDMDL
