MODEL 1
REMARK VINA RESULT: -7.859913869      0.000      0.000
REMARK  6 active torsions:
REMARK  status: ('A' for Active; 'I' for Inactive)
REMARK       I    between atoms: C2_2  and  N1_4 
REMARK    1  A    between atoms: N1_4  and  C3_6 
REMARK    2  A    between atoms: C4_13  and  O2_14 
REMARK    3  A    between atoms: C5_16  and  C6_17 
REMARK    4  A    between atoms: C6_17  and  N5_18 
REMARK    5  A    between atoms: N5_18  and  N6_20 
REMARK    6  A    between atoms: C8_29  and  C9_30 
ROOT
HETATM    1  C3  UNL     1      56.385  51.564  25.071  1.00  0.00     0.139 A 
HETATM    2  N2  UNL     1      56.639  50.537  25.901  1.00  0.00    -0.270 N 
ATOM      3  H2  UNL     1      55.890  49.951  26.269  1.00  0.00     0.190 HD
HETATM    4  N3  UNL     1      57.907  50.319  26.219  1.00  0.00    -0.239 N 
ATOM      5  H3  UNL     1      58.127  49.546  26.846  1.00  0.00     0.208 HD
HETATM    6  N4  UNL     1      58.904  51.064  25.755  1.00  0.00    -0.265 N 
ATOM      7  H4  UNL     1      59.858  50.841  26.041  1.00  0.00     0.190 HD
HETATM    8  C4  UNL     1      58.703  52.104  24.920  1.00  0.00     0.171 A 
HETATM    9  C5  UNL     1      57.390  52.364  24.565  1.00  0.00     0.078 A 
ENDROOT
BRANCH   9  10
HETATM   10  C6  UNL     1      57.119  53.478  23.665  1.00  0.00     0.128 C 
BRANCH  10  11
HETATM   11  N5  UNL     1      57.569  53.481  22.460  1.00  0.00    -0.291 N 
ATOM     12  H5  UNL     1      57.647  52.612  21.931  1.00  0.00     0.188 HD
BRANCH  11  13
HETATM   13  N6  UNL     1      57.949  54.700  21.889  1.00  0.00    -0.187 N 
HETATM   14  N7  UNL     1      59.027  54.687  21.033  1.00  0.00    -0.221 N 
HETATM   15  N8  UNL     1      59.392  55.914  20.544  1.00  0.00    -0.258 N 
ATOM     16  H7  UNL     1      59.518  53.829  20.781  1.00  0.00     0.210 HD
HETATM   17  C7  UNL     1      58.953  57.116  21.141  1.00  0.00     0.206 C 
ATOM     18  H8  UNL     1      59.998  55.960  19.725  1.00  0.00     0.191 HD
HETATM   19  N9  UNL     1      59.615  58.339  20.893  1.00  0.00    -0.062 NA
HETATM   20  N10 UNL     1      57.930  57.101  21.927  1.00  0.00    -0.332 N 
HETATM   21  C8  UNL     1      57.209  55.876  22.221  1.00  0.00     0.318 C 
ATOM     22  H10 UNL     1      57.618  57.973  22.355  1.00  0.00     0.164 HD
BRANCH  21  23
HETATM   23  C9  UNL     1      55.906  55.962  21.521  1.00  0.00     0.277 C 
HETATM   24  N11 UNL     1      54.988  57.012  21.665  1.00  0.00    -0.058 NA
HETATM   25  O3  UNL     1      55.611  55.019  20.743  1.00  0.00    -0.272 OA
ENDBRANCH  21  23
ENDBRANCH  11  13
ENDBRANCH  10  11
ENDBRANCH   9  10
BRANCH   1  26
HETATM   26  N1  UNL     1      55.174  51.801  24.745  1.00  0.00    -0.311 N 
HETATM   27  C2  UNL     1      54.052  51.577  25.549  1.00  0.00     0.219 C 
HETATM   28  C1  UNL     1      53.593  52.511  26.616  1.00  0.00     0.117 C 
HETATM   29  O1  UNL     1      53.369  50.529  25.380  1.00  0.00    -0.274 OA
ATOM     30  H1  UNL     1      55.011  52.188  23.815  1.00  0.00     0.170 HD
ENDBRANCH   1  26
BRANCH   8  31
HETATM   31  O2  UNL     1      59.769  52.862  24.455  1.00  0.00    -0.344 OA
ATOM     32  H2  UNL     1      60.450  52.469  23.922  1.00  0.00     0.219 HD
ENDBRANCH   8  31
TORSDOF 6
ENDMDL
MODEL 2
REMARK VINA RESULT: -7.855996588      1.671      1.750
REMARK  6 active torsions:
REMARK  status: ('A' for Active; 'I' for Inactive)
REMARK       I    between atoms: C2_2  and  N1_4 
REMARK    1  A    between atoms: N1_4  and  C3_6 
REMARK    2  A    between atoms: C4_13  and  O2_14 
REMARK    3  A    between atoms: C5_16  and  C6_17 
REMARK    4  A    between atoms: C6_17  and  N5_18 
REMARK    5  A    between atoms: N5_18  and  N6_20 
REMARK    6  A    between atoms: C8_29  and  C9_30 
ROOT
HETATM    1  C3  UNL     1      56.907  52.060  25.626  1.00  0.00     0.139 A 
HETATM    2  N2  UNL     1      56.665  50.882  26.227  1.00  0.00    -0.270 N 
ATOM      3  H2  UNL     1      56.165  50.829  27.115  1.00  0.00     0.190 HD
HETATM    4  N3  UNL     1      57.104  49.792  25.615  1.00  0.00    -0.239 N 
ATOM      5  H3  UNL     1      56.933  48.885  26.051  1.00  0.00     0.208 HD
HETATM    6  N4  UNL     1      57.757  49.828  24.459  1.00  0.00    -0.265 N 
ATOM      7  H4  UNL     1      58.068  48.950  24.043  1.00  0.00     0.190 HD
HETATM    8  C4  UNL     1      58.024  50.982  23.815  1.00  0.00     0.171 A 
HETATM    9  C5  UNL     1      57.582  52.144  24.424  1.00  0.00     0.078 A 
ENDROOT
BRANCH   9  10
HETATM   10  C6  UNL     1      57.847  53.419  23.769  1.00  0.00     0.128 C 
BRANCH  10  11
HETATM   11  N5  UNL     1      57.634  53.573  22.508  1.00  0.00    -0.291 N 
ATOM     12  H5  UNL     1      57.206  52.828  21.958  1.00  0.00     0.188 HD
BRANCH  11  13
HETATM   13  N6  UNL     1      58.001  54.782  21.910  1.00  0.00    -0.187 N 
HETATM   14  N7  UNL     1      59.063  54.756  21.034  1.00  0.00    -0.221 N 
HETATM   15  N8  UNL     1      59.416  55.974  20.517  1.00  0.00    -0.258 N 
ATOM     16  H7  UNL     1      59.550  53.894  20.788  1.00  0.00     0.210 HD
HETATM   17  C7  UNL     1      58.988  57.186  21.102  1.00  0.00     0.206 C 
ATOM     18  H8  UNL     1      60.007  56.007  19.686  1.00  0.00     0.191 HD
HETATM   19  N9  UNL     1      59.644  58.405  20.820  1.00  0.00    -0.062 NA
HETATM   20  N10 UNL     1      57.980  57.183  21.907  1.00  0.00    -0.332 N 
HETATM   21  C8  UNL     1      57.266  55.963  22.235  1.00  0.00     0.318 C 
ATOM     22  H10 UNL     1      57.676  58.062  22.325  1.00  0.00     0.164 HD
BRANCH  21  23
HETATM   23  C9  UNL     1      55.950  56.036  21.560  1.00  0.00     0.277 C 
HETATM   24  N11 UNL     1      55.015  57.065  21.736  1.00  0.00    -0.058 NA
HETATM   25  O3  UNL     1      55.660  55.100  20.770  1.00  0.00    -0.272 OA
ENDBRANCH  21  23
ENDBRANCH  11  13
ENDBRANCH  10  11
ENDBRANCH   9  10
BRANCH   1  26
HETATM   26  N1  UNL     1      56.498  53.129  26.189  1.00  0.00    -0.311 N 
HETATM   27  C2  UNL     1      56.208  53.278  27.549  1.00  0.00     0.219 C 
HETATM   28  C1  UNL     1      57.239  53.521  28.598  1.00  0.00     0.117 C 
HETATM   29  O1  UNL     1      55.009  53.207  27.937  1.00  0.00    -0.274 OA
ATOM     30  H1  UNL     1      56.371  53.948  25.594  1.00  0.00     0.170 HD
ENDBRANCH   1  26
BRANCH   8  31
HETATM   31  O2  UNL     1      58.710  50.983  22.608  1.00  0.00    -0.344 OA
ATOM     32  H2  UNL     1      58.335  51.387  21.835  1.00  0.00     0.219 HD
ENDBRANCH   8  31
TORSDOF 6
ENDMDL
MODEL 3
REMARK VINA RESULT: -7.830952073      1.271      1.362
REMARK  6 active torsions:
REMARK  status: ('A' for Active; 'I' for Inactive)
REMARK       I    between atoms: C2_2  and  N1_4 
REMARK    1  A    between atoms: N1_4  and  C3_6 
REMARK    2  A    between atoms: C4_13  and  O2_14 
REMARK    3  A    between atoms: C5_16  and  C6_17 
REMARK    4  A    between atoms: C6_17  and  N5_18 
REMARK    5  A    between atoms: N5_18  and  N6_20 
REMARK    6  A    between atoms: C8_29  and  C9_30 
ROOT
HETATM    1  C3  UNL     1      55.896  51.615  25.349  1.00  0.00     0.139 A 
HETATM    2  N2  UNL     1      56.078  50.532  26.125  1.00  0.00    -0.270 N 
ATOM      3  H2  UNL     1      55.506  50.368  26.954  1.00  0.00     0.190 HD
HETATM    4  N3  UNL     1      57.033  49.687  25.765  1.00  0.00    -0.239 N 
ATOM      5  H3  UNL     1      57.191  48.857  26.337  1.00  0.00     0.208 HD
HETATM    6  N4  UNL     1      57.793  49.873  24.691  1.00  0.00    -0.265 N 
ATOM      7  H4  UNL     1      58.511  49.182  24.472  1.00  0.00     0.190 HD
HETATM    8  C4  UNL     1      57.650  50.941  23.880  1.00  0.00     0.171 A 
HETATM    9  C5  UNL     1      56.663  51.848  24.224  1.00  0.00     0.078 A 
ENDROOT
BRANCH   9  10
HETATM   10  C6  UNL     1      56.469  53.020  23.380  1.00  0.00     0.128 C 
BRANCH  10  11
HETATM   11  N5  UNL     1      57.065  54.131  23.641  1.00  0.00    -0.291 N 
ATOM     12  H5  UNL     1      57.117  54.481  24.598  1.00  0.00     0.188 HD
BRANCH  11  13
HETATM   13  N6  UNL     1      57.642  54.845  22.587  1.00  0.00    -0.187 N 
HETATM   14  N7  UNL     1      58.687  54.249  21.917  1.00  0.00    -0.221 N 
HETATM   15  N8  UNL     1      59.252  55.012  20.930  1.00  0.00    -0.258 N 
ATOM     16  H7  UNL     1      59.015  53.309  22.139  1.00  0.00     0.210 HD
HETATM   17  C7  UNL     1      59.041  56.406  20.851  1.00  0.00     0.206 C 
ATOM     18  H8  UNL     1      59.842  54.560  20.231  1.00  0.00     0.191 HD
HETATM   19  N9  UNL     1      59.903  57.234  20.098  1.00  0.00    -0.062 NA
HETATM   20  N10 UNL     1      58.045  56.936  21.477  1.00  0.00    -0.332 N 
HETATM   21  C8  UNL     1      57.126  56.138  22.267  1.00  0.00     0.318 C 
ATOM     22  H10 UNL     1      57.899  57.944  21.415  1.00  0.00     0.164 HD
BRANCH  21  23
HETATM   23  C9  UNL     1      55.846  56.088  21.523  1.00  0.00     0.277 C 
HETATM   24  N11 UNL     1      54.851  57.074  21.573  1.00  0.00    -0.058 NA
HETATM   25  O3  UNL     1      55.648  55.082  20.794  1.00  0.00    -0.272 OA
ENDBRANCH  21  23
ENDBRANCH  11  13
ENDBRANCH  10  11
ENDBRANCH   9  10
BRANCH   1  26
HETATM   26  N1  UNL     1      54.985  52.449  25.667  1.00  0.00    -0.311 N 
HETATM   27  C2  UNL     1      54.496  52.674  26.959  1.00  0.00     0.219 C 
HETATM   28  C1  UNL     1      55.172  53.541  27.965  1.00  0.00     0.117 C 
HETATM   29  O1  UNL     1      53.421  52.120  27.318  1.00  0.00    -0.274 OA
ATOM     30  H1  UNL     1      54.576  53.001  24.913  1.00  0.00     0.170 HD
ENDBRANCH   1  26
BRANCH   8  31
HETATM   31  O2  UNL     1      58.463  51.104  22.767  1.00  0.00    -0.344 OA
ATOM     32  H2  UNL     1      58.092  51.322  21.920  1.00  0.00     0.219 HD
ENDBRANCH   8  31
TORSDOF 6
ENDMDL
MODEL 4
REMARK VINA RESULT: -7.820961224      2.090      6.448
REMARK  6 active torsions:
REMARK  status: ('A' for Active; 'I' for Inactive)
REMARK       I    between atoms: C2_2  and  N1_4 
REMARK    1  A    between atoms: N1_4  and  C3_6 
REMARK    2  A    between atoms: C4_13  and  O2_14 
REMARK    3  A    between atoms: C5_16  and  C6_17 
REMARK    4  A    between atoms: C6_17  and  N5_18 
REMARK    5  A    between atoms: N5_18  and  N6_20 
REMARK    6  A    between atoms: C8_29  and  C9_30 
ROOT
HETATM    1  C3  UNL     1      56.821  55.126  22.361  1.00  0.00     0.139 A 
HETATM    2  N2  UNL     1      56.364  55.375  21.121  1.00  0.00    -0.270 N 
ATOM      3  H2  UNL     1      56.841  55.015  20.294  1.00  0.00     0.190 HD
HETATM    4  N3  UNL     1      55.267  56.112  21.021  1.00  0.00    -0.239 N 
ATOM      5  H3  UNL     1      54.900  56.316  20.091  1.00  0.00     0.208 HD
HETATM    6  N4  UNL     1      54.625  56.596  22.078  1.00  0.00    -0.265 N 
ATOM      7  H4  UNL     1      53.786  57.156  21.929  1.00  0.00     0.190 HD
HETATM    8  C4  UNL     1      55.041  56.373  23.342  1.00  0.00     0.171 A 
HETATM    9  C5  UNL     1      56.186  55.608  23.488  1.00  0.00     0.078 A 
ENDROOT
BRANCH   9  10
HETATM   10  C6  UNL     1      56.677  55.339  24.833  1.00  0.00     0.128 C 
BRANCH  10  11
HETATM   11  N5  UNL     1      56.144  54.422  25.563  1.00  0.00    -0.291 N 
ATOM     12  H5  UNL     1      55.478  54.663  26.297  1.00  0.00     0.188 HD
BRANCH  11  13
HETATM   13  N6  UNL     1      56.495  53.089  25.327  1.00  0.00    -0.187 N 
HETATM   14  N7  UNL     1      57.830  52.764  25.411  1.00  0.00    -0.221 N 
HETATM   15  N8  UNL     1      58.127  51.460  25.118  1.00  0.00    -0.258 N 
ATOM     16  H7  UNL     1      58.545  53.444  25.672  1.00  0.00     0.210 HD
HETATM   17  C7  UNL     1      57.218  50.621  24.436  1.00  0.00     0.206 C 
ATOM     18  H8  UNL     1      59.032  51.082  25.402  1.00  0.00     0.191 HD
HETATM   19  N9  UNL     1      57.651  49.435  23.805  1.00  0.00    -0.062 NA
HETATM   20  N10 UNL     1      55.969  50.944  24.386  1.00  0.00    -0.332 N 
HETATM   21  C8  UNL     1      55.465  52.150  25.014  1.00  0.00     0.318 C 
ATOM     22  H10 UNL     1      55.318  50.333  23.892  1.00  0.00     0.164 HD
BRANCH  21  23
HETATM   23  C9  UNL     1      54.682  51.727  26.199  1.00  0.00     0.277 C 
HETATM   24  N11 UNL     1      54.508  52.495  27.359  1.00  0.00    -0.058 NA
HETATM   25  O3  UNL     1      54.137  50.594  26.149  1.00  0.00    -0.272 OA
ENDBRANCH  21  23
ENDBRANCH  11  13
ENDBRANCH  10  11
ENDBRANCH   9  10
BRANCH   1  26
HETATM   26  N1  UNL     1      57.876  54.419  22.492  1.00  0.00    -0.311 N 
HETATM   27  C2  UNL     1      58.872  54.248  21.525  1.00  0.00     0.219 C 
HETATM   28  C1  UNL     1      59.966  55.228  21.274  1.00  0.00     0.117 C 
HETATM   29  O1  UNL     1      58.865  53.208  20.809  1.00  0.00    -0.274 OA
ATOM     30  H1  UNL     1      58.004  53.937  23.383  1.00  0.00     0.170 HD
ENDBRANCH   1  26
BRANCH   8  31
HETATM   31  O2  UNL     1      54.345  56.895  24.424  1.00  0.00    -0.344 OA
ATOM     32  H2  UNL     1      54.638  57.689  24.854  1.00  0.00     0.219 HD
ENDBRANCH   8  31
TORSDOF 6
ENDMDL
MODEL 5
REMARK VINA RESULT: -7.741778040      2.286      6.773
REMARK  6 active torsions:
REMARK  status: ('A' for Active; 'I' for Inactive)
REMARK       I    between atoms: C2_2  and  N1_4 
REMARK    1  A    between atoms: N1_4  and  C3_6 
REMARK    2  A    between atoms: C4_13  and  O2_14 
REMARK    3  A    between atoms: C5_16  and  C6_17 
REMARK    4  A    between atoms: C6_17  and  N5_18 
REMARK    5  A    between atoms: N5_18  and  N6_20 
REMARK    6  A    between atoms: C8_29  and  C9_30 
ROOT
HETATM    1  C3  UNL     1      58.673  57.081  22.652  1.00  0.00     0.139 A 
HETATM    2  N2  UNL     1      59.473  57.659  21.738  1.00  0.00    -0.270 N 
ATOM      3  H2  UNL     1      59.772  58.630  21.829  1.00  0.00     0.190 HD
HETATM    4  N3  UNL     1      59.855  56.911  20.713  1.00  0.00    -0.239 N 
ATOM      5  H3  UNL     1      60.461  57.326  20.006  1.00  0.00     0.208 HD
HETATM    6  N4  UNL     1      59.483  55.644  20.567  1.00  0.00    -0.265 N 
ATOM      7  H4  UNL     1      59.814  55.126  19.753  1.00  0.00     0.190 HD
HETATM    8  C4  UNL     1      58.684  55.018  21.455  1.00  0.00     0.171 A 
HETATM    9  C5  UNL     1      58.262  55.767  22.540  1.00  0.00     0.078 A 
ENDROOT
BRANCH   9  10
HETATM   10  C6  UNL     1      57.397  55.137  23.529  1.00  0.00     0.128 C 
BRANCH  10  11
HETATM   11  N5  UNL     1      57.729  54.026  24.088  1.00  0.00    -0.291 N 
ATOM     12  H5  UNL     1      58.701  53.837  24.334  1.00  0.00     0.188 HD
BRANCH  11  13
HETATM   13  N6  UNL     1      56.730  53.084  24.353  1.00  0.00    -0.187 N 
HETATM   14  N7  UNL     1      55.428  53.457  24.103  1.00  0.00    -0.221 N 
HETATM   15  N8  UNL     1      54.485  52.519  24.430  1.00  0.00    -0.258 N 
ATOM     16  H7  UNL     1      55.185  54.364  23.705  1.00  0.00     0.210 HD
HETATM   17  C7  UNL     1      54.778  51.431  25.283  1.00  0.00     0.206 C 
ATOM     18  H8  UNL     1      53.544  52.609  24.047  1.00  0.00     0.191 HD
HETATM   19  N9  UNL     1      53.748  50.704  25.918  1.00  0.00    -0.062 NA
HETATM   20  N10 UNL     1      56.007  51.094  25.486  1.00  0.00    -0.332 N 
HETATM   21  C8  UNL     1      57.108  51.804  24.862  1.00  0.00     0.318 C 
ATOM     22  H10 UNL     1      56.210  50.307  26.102  1.00  0.00     0.164 HD
BRANCH  21  23
HETATM   23  C9  UNL     1      57.670  50.906  23.826  1.00  0.00     0.277 C 
HETATM   24  N11 UNL     1      57.564  49.509  23.835  1.00  0.00    -0.058 NA
HETATM   25  O3  UNL     1      58.284  51.449  22.871  1.00  0.00    -0.272 OA
ENDBRANCH  21  23
ENDBRANCH  11  13
ENDBRANCH  10  11
ENDBRANCH   9  10
BRANCH   1  26
HETATM   26  N1  UNL     1      58.287  57.773  23.651  1.00  0.00    -0.311 N 
HETATM   27  C2  UNL     1      57.437  58.884  23.598  1.00  0.00     0.219 C 
HETATM   28  C1  UNL     1      55.952  58.792  23.515  1.00  0.00     0.117 C 
HETATM   29  O1  UNL     1      57.934  60.044  23.620  1.00  0.00    -0.274 OA
ATOM     30  H1  UNL     1      58.628  57.492  24.571  1.00  0.00     0.170 HD
ENDBRANCH   1  26
BRANCH   8  31
HETATM   31  O2  UNL     1      58.315  53.693  21.270  1.00  0.00    -0.344 OA
ATOM     32  H2  UNL     1      57.485  53.367  21.600  1.00  0.00     0.219 HD
ENDBRANCH   8  31
TORSDOF 6
ENDMDL
