MODEL 1
REMARK VINA RESULT: -7.117572684      0.000      0.000
REMARK  7 active torsions:
REMARK  status: ('A' for Active; 'I' for Inactive)
REMARK    1  A    between atoms: N1_2  and  S1_4 
REMARK    2  A    between atoms: S1_4  and  O3_7 
REMARK    3  A    between atoms: O3_7  and  C2_8 
REMARK    4  A    between atoms: C2_8  and  C3_10 
REMARK    5  A    between atoms: C3_10  and  N2_11 
REMARK    6  A    between atoms: C3_10  and  C4_15 
REMARK    7  A    between atoms: C5_21  and  N6_22 
REMARK       I    between atoms: N8_27  and  C6_28 
ROOT
HETATM    1  C4  UNL     1      58.990  57.838  22.401  1.00  0.00     0.116 A 
HETATM    2  N3  UNL     1      58.024  57.627  21.441  1.00  0.00    -0.283 N 
ATOM      3  H3  UNL     1      57.363  58.333  21.116  1.00  0.00     0.188 HD
HETATM    4  N4  UNL     1      58.072  56.401  21.007  1.00  0.00    -0.219 N 
ATOM      5  H4  UNL     1      57.470  55.986  20.297  1.00  0.00     0.209 HD
HETATM    6  N5  UNL     1      59.048  55.796  21.661  1.00  0.00    -0.050 N 
HETATM    7  C5  UNL     1      59.645  54.598  21.728  1.00  0.00     0.715 A 
HETATM    8  N7  UNL     1      60.602  54.714  22.636  1.00  0.00    -0.120 N 
ATOM      9  H7  UNL     1      61.238  53.967  22.915  1.00  0.00     0.206 HD
HETATM   10  N8  UNL     1      60.610  55.967  23.135  1.00  0.00    -0.192 N 
HETATM   11  C6  UNL     1      61.554  56.359  24.113  1.00  0.00     0.209 C 
HETATM   12  N9  UNL     1      62.617  56.980  23.745  1.00  0.00    -0.372 N 
ATOM     13  H91 UNL     1      63.298  57.262  24.450  1.00  0.00     0.158 HD
ATOM     14  H92 UNL     1      62.797  57.233  22.773  1.00  0.00     0.158 HD
HETATM   15  N10 UNL     1      61.302  56.007  25.465  1.00  0.00    -0.062 NA
HETATM   16  C7  UNL     1      59.643  56.667  22.539  1.00  0.00     0.198 A 
ENDROOT
BRANCH   1  17
HETATM   17  C3  UNL     1      59.173  59.111  23.113  1.00  0.00     0.338 C 
BRANCH  17  18
HETATM   18  C2  UNL     1      59.252  60.229  22.082  1.00  0.00     0.311 C 
HETATM   19  O4  UNL     1      59.637  59.971  20.924  1.00  0.00    -0.261 OA
BRANCH  18  20
HETATM   20  O3  UNL     1      58.909  61.517  22.399  1.00  0.00    -0.178 OA
BRANCH  20  21
HETATM   21  S1  UNL     1      57.495  62.284  21.860  1.00  0.00     0.364 S 
HETATM   22  O1  UNL     1      57.427  62.393  20.373  1.00  0.00    -0.175 OA
HETATM   23  O2  UNL     1      56.329  61.410  22.292  1.00  0.00    -0.175 OA
BRANCH  21  24
HETATM   24  N1  UNL     1      57.282  63.828  22.541  1.00  0.00    -0.301 N 
HETATM   25  C1  UNL     1      58.016  64.872  21.899  1.00  0.00     0.161 C 
ATOM     26  H1  UNL     1      56.676  63.997  23.344  1.00  0.00     0.173 HD
ENDBRANCH  21  24
ENDBRANCH  20  21
ENDBRANCH  18  20
ENDBRANCH  17  18
BRANCH  17  27
HETATM   27  N2  UNL     1      58.130  59.509  24.001  1.00  0.00    -0.060 N 
ATOM     28  H23 UNL     1      58.460  59.823  24.914  1.00  0.00     0.275 HD
ATOM     29  H22 UNL     1      57.671  60.381  23.738  1.00  0.00     0.275 HD
ATOM     30  H21 UNL     1      57.502  58.705  24.041  1.00  0.00     0.275 HD
ENDBRANCH  17  27
ENDBRANCH   1  17
BRANCH   7  31
HETATM   31  N6  UNL     1      59.341  53.561  21.047  1.00  0.00    -0.231 N 
ATOM     32  H62 UNL     1      59.348  52.589  21.357  1.00  0.00     0.174 HD
ATOM     33  H61 UNL     1      59.039  53.545  20.073  1.00  0.00     0.174 HD
ENDBRANCH   7  31
TORSDOF 7
ENDMDL
MODEL 2
REMARK VINA RESULT: -7.113299038      6.446      8.277
REMARK  7 active torsions:
REMARK  status: ('A' for Active; 'I' for Inactive)
REMARK    1  A    between atoms: N1_2  and  S1_4 
REMARK    2  A    between atoms: S1_4  and  O3_7 
REMARK    3  A    between atoms: O3_7  and  C2_8 
REMARK    4  A    between atoms: C2_8  and  C3_10 
REMARK    5  A    between atoms: C3_10  and  N2_11 
REMARK    6  A    between atoms: C3_10  and  C4_15 
REMARK    7  A    between atoms: C5_21  and  N6_22 
REMARK       I    between atoms: N8_27  and  C6_28 
ROOT
HETATM    1  C4  UNL     1      59.262  53.116  22.908  1.00  0.00     0.116 A 
HETATM    2  N3  UNL     1      59.768  53.891  21.887  1.00  0.00    -0.283 N 
ATOM      3  H3  UNL     1      60.756  53.950  21.638  1.00  0.00     0.188 HD
HETATM    4  N4  UNL     1      58.812  54.536  21.286  1.00  0.00    -0.219 N 
ATOM      5  H4  UNL     1      58.914  55.176  20.499  1.00  0.00     0.209 HD
HETATM    6  N5  UNL     1      57.683  54.206  21.888  1.00  0.00    -0.050 N 
HETATM    7  C5  UNL     1      56.370  54.461  21.811  1.00  0.00     0.715 A 
HETATM    8  N7  UNL     1      55.799  53.744  22.766  1.00  0.00    -0.120 N 
ATOM      9  H7  UNL     1      54.798  53.723  22.963  1.00  0.00     0.206 HD
HETATM   10  N8  UNL     1      56.736  53.046  23.437  1.00  0.00    -0.192 N 
HETATM   11  C6  UNL     1      56.383  52.182  24.501  1.00  0.00     0.209 C 
HETATM   12  N9  UNL     1      56.255  50.925  24.270  1.00  0.00    -0.372 N 
ATOM     13  H91 UNL     1      56.001  50.302  25.038  1.00  0.00     0.158 HD
ATOM     14  H92 UNL     1      56.428  50.513  23.353  1.00  0.00     0.158 HD
HETATM   15  N10 UNL     1      56.143  52.755  25.777  1.00  0.00    -0.062 NA
HETATM   16  C7  UNL     1      57.929  53.319  22.906  1.00  0.00     0.198 A 
ENDROOT
BRANCH   1  17
HETATM   17  C3  UNL     1      60.091  52.293  23.801  1.00  0.00     0.338 C 
BRANCH  17  18
HETATM   18  C2  UNL     1      61.537  52.385  23.332  1.00  0.00     0.311 C 
HETATM   19  O4  UNL     1      61.933  51.638  22.414  1.00  0.00    -0.261 OA
BRANCH  18  20
HETATM   20  O3  UNL     1      62.415  53.270  23.897  1.00  0.00    -0.178 OA
BRANCH  20  21
HETATM   21  S1  UNL     1      63.823  52.814  24.727  1.00  0.00     0.364 S 
HETATM   22  O1  UNL     1      65.070  53.263  24.041  1.00  0.00    -0.175 OA
HETATM   23  O2  UNL     1      63.785  53.515  26.075  1.00  0.00    -0.175 OA
BRANCH  21  24
HETATM   24  N1  UNL     1      63.913  51.137  25.002  1.00  0.00    -0.301 N 
HETATM   25  C1  UNL     1      63.304  50.698  26.217  1.00  0.00     0.161 C 
ATOM     26  H1  UNL     1      64.366  50.496  24.351  1.00  0.00     0.173 HD
ENDBRANCH  21  24
ENDBRANCH  20  21
ENDBRANCH  18  20
ENDBRANCH  17  18
BRANCH  17  27
HETATM   27  N2  UNL     1      60.130  52.672  25.175  1.00  0.00    -0.060 N 
ATOM     28  H23 UNL     1      60.636  53.540  25.352  1.00  0.00     0.275 HD
ATOM     29  H22 UNL     1      59.232  52.984  25.546  1.00  0.00     0.275 HD
ATOM     30  H21 UNL     1      60.519  51.860  25.657  1.00  0.00     0.275 HD
ENDBRANCH  17  27
ENDBRANCH   1  17
BRANCH   7  31
HETATM   31  N6  UNL     1      55.798  55.242  20.977  1.00  0.00    -0.231 N 
ATOM     32  H62 UNL     1      56.243  55.867  20.304  1.00  0.00     0.174 HD
ATOM     33  H61 UNL     1      54.793  55.364  20.854  1.00  0.00     0.174 HD
ENDBRANCH   7  31
TORSDOF 7
ENDMDL
MODEL 3
REMARK VINA RESULT: -7.014335877      4.887      6.854
REMARK  7 active torsions:
REMARK  status: ('A' for Active; 'I' for Inactive)
REMARK    1  A    between atoms: N1_2  and  S1_4 
REMARK    2  A    between atoms: S1_4  and  O3_7 
REMARK    3  A    between atoms: O3_7  and  C2_8 
REMARK    4  A    between atoms: C2_8  and  C3_10 
REMARK    5  A    between atoms: C3_10  and  N2_11 
REMARK    6  A    between atoms: C3_10  and  C4_15 
REMARK    7  A    between atoms: C5_21  and  N6_22 
REMARK       I    between atoms: N8_27  and  C6_28 
ROOT
HETATM    1  C4  UNL     1      60.985  52.163  24.043  1.00  0.00     0.116 A 
HETATM    2  N3  UNL     1      59.900  51.741  24.779  1.00  0.00    -0.283 N 
ATOM      3  H3  UNL     1      58.926  51.927  24.538  1.00  0.00     0.188 HD
HETATM    4  N4  UNL     1      60.289  51.073  25.825  1.00  0.00    -0.219 N 
ATOM      5  H4  UNL     1      59.689  50.650  26.532  1.00  0.00     0.209 HD
HETATM    6  N5  UNL     1      61.610  51.044  25.798  1.00  0.00    -0.050 N 
HETATM    7  C5  UNL     1      62.638  50.557  26.506  1.00  0.00     0.715 A 
HETATM    8  N7  UNL     1      63.735  50.916  25.859  1.00  0.00    -0.120 N 
ATOM      9  H7  UNL     1      64.686  50.694  26.150  1.00  0.00     0.206 HD
HETATM   10  N8  UNL     1      63.406  51.621  24.757  1.00  0.00    -0.192 N 
HETATM   11  C6  UNL     1      64.401  52.109  23.877  1.00  0.00     0.209 C 
HETATM   12  N9  UNL     1      64.683  51.439  22.817  1.00  0.00    -0.372 N 
ATOM     13  H91 UNL     1      65.400  51.791  22.183  1.00  0.00     0.158 HD
ATOM     14  H92 UNL     1      64.196  50.579  22.564  1.00  0.00     0.158 HD
HETATM   15  N10 UNL     1      65.078  53.305  24.229  1.00  0.00    -0.062 NA
HETATM   16  C7  UNL     1      62.077  51.716  24.695  1.00  0.00     0.198 A 
ENDROOT
BRANCH   1  17
HETATM   17  C3  UNL     1      60.882  52.973  22.821  1.00  0.00     0.338 C 
BRANCH  17  18
HETATM   18  C2  UNL     1      59.416  53.038  22.412  1.00  0.00     0.311 C 
HETATM   19  O4  UNL     1      58.955  52.174  21.639  1.00  0.00    -0.261 OA
BRANCH  18  20
HETATM   20  O3  UNL     1      58.590  54.027  22.874  1.00  0.00    -0.178 OA
BRANCH  20  21
HETATM   21  S1  UNL     1      58.055  55.336  21.936  1.00  0.00     0.364 S 
HETATM   22  O1  UNL     1      58.002  56.614  22.703  1.00  0.00    -0.175 OA
HETATM   23  O2  UNL     1      59.079  55.529  20.828  1.00  0.00    -0.175 OA
BRANCH  21  24
HETATM   24  N1  UNL     1      56.540  55.056  21.214  1.00  0.00    -0.301 N 
HETATM   25  C1  UNL     1      55.565  56.071  21.459  1.00  0.00     0.161 C 
ATOM     26  H1  UNL     1      56.343  54.229  20.651  1.00  0.00     0.173 HD
ENDBRANCH  21  24
ENDBRANCH  20  21
ENDBRANCH  18  20
ENDBRANCH  17  18
BRANCH  17  27
HETATM   27  N2  UNL     1      61.293  54.336  22.913  1.00  0.00    -0.060 N 
ATOM     28  H23 UNL     1      62.197  54.526  22.481  1.00  0.00     0.275 HD
ATOM     29  H22 UNL     1      60.750  54.974  22.331  1.00  0.00     0.275 HD
ATOM     30  H21 UNL     1      61.256  54.551  23.910  1.00  0.00     0.275 HD
ENDBRANCH  17  27
ENDBRANCH   1  17
BRANCH   7  31
HETATM   31  N6  UNL     1      62.559  49.882  27.589  1.00  0.00    -0.231 N 
ATOM     32  H62 UNL     1      63.194  49.153  27.914  1.00  0.00     0.174 HD
ATOM     33  H61 UNL     1      61.837  49.971  28.304  1.00  0.00     0.174 HD
ENDBRANCH   7  31
TORSDOF 7
ENDMDL
MODEL 4
REMARK VINA RESULT: -7.013736181      5.673      7.781
REMARK  7 active torsions:
REMARK  status: ('A' for Active; 'I' for Inactive)
REMARK    1  A    between atoms: N1_2  and  S1_4 
REMARK    2  A    between atoms: S1_4  and  O3_7 
REMARK    3  A    between atoms: O3_7  and  C2_8 
REMARK    4  A    between atoms: C2_8  and  C3_10 
REMARK    5  A    between atoms: C3_10  and  N2_11 
REMARK    6  A    between atoms: C3_10  and  C4_15 
REMARK    7  A    between atoms: C5_21  and  N6_22 
REMARK       I    between atoms: N8_27  and  C6_28 
ROOT
HETATM    1  C4  UNL     1      57.314  52.912  24.269  1.00  0.00     0.116 A 
HETATM    2  N3  UNL     1      58.028  54.091  24.265  1.00  0.00    -0.283 N 
ATOM      3  H3  UNL     1      58.974  54.196  23.897  1.00  0.00     0.188 HD
HETATM    4  N4  UNL     1      57.328  55.050  24.798  1.00  0.00    -0.219 N 
ATOM      5  H4  UNL     1      57.621  56.019  24.916  1.00  0.00     0.209 HD
HETATM    6  N5  UNL     1      56.167  54.531  25.155  1.00  0.00    -0.050 N 
HETATM    7  C5  UNL     1      55.012  54.903  25.725  1.00  0.00     0.715 A 
HETATM    8  N7  UNL     1      54.255  53.818  25.764  1.00  0.00    -0.120 N 
ATOM      9  H7  UNL     1      53.310  53.777  26.144  1.00  0.00     0.206 HD
HETATM   10  N8  UNL     1      54.921  52.775  25.228  1.00  0.00    -0.192 N 
HETATM   11  C6  UNL     1      54.323  51.496  25.133  1.00  0.00     0.209 C 
HETATM   12  N9  UNL     1      53.779  51.140  24.025  1.00  0.00    -0.372 N 
ATOM     13  H91 UNL     1      53.348  50.218  23.957  1.00  0.00     0.158 HD
ATOM     14  H92 UNL     1      53.785  51.731  23.194  1.00  0.00     0.158 HD
HETATM   15  N10 UNL     1      54.315  50.674  26.290  1.00  0.00    -0.062 NA
HETATM   16  C7  UNL     1      56.125  53.196  24.838  1.00  0.00     0.198 A 
ENDROOT
BRANCH   1  17
HETATM   17  C3  UNL     1      57.840  51.633  23.769  1.00  0.00     0.338 C 
BRANCH  17  18
HETATM   18  C2  UNL     1      59.111  51.915  22.979  1.00  0.00     0.311 C 
HETATM   19  O4  UNL     1      60.222  51.698  23.505  1.00  0.00    -0.261 OA
BRANCH  18  20
HETATM   20  O3  UNL     1      59.063  52.402  21.701  1.00  0.00    -0.178 OA
BRANCH  20  21
HETATM   21  S1  UNL     1      59.635  53.933  21.245  1.00  0.00     0.364 S 
HETATM   22  O1  UNL     1      60.113  53.975  19.832  1.00  0.00    -0.175 OA
HETATM   23  O2  UNL     1      58.456  54.888  21.339  1.00  0.00    -0.175 OA
BRANCH  21  24
HETATM   24  N1  UNL     1      60.867  54.509  22.267  1.00  0.00    -0.301 N 
HETATM   25  C1  UNL     1      60.670  55.838  22.752  1.00  0.00     0.161 C 
ATOM     26  H1  UNL     1      61.683  53.949  22.514  1.00  0.00     0.173 HD
ENDBRANCH  21  24
ENDBRANCH  20  21
ENDBRANCH  18  20
ENDBRANCH  17  18
BRANCH  17  27
HETATM   27  N2  UNL     1      58.226  50.669  24.746  1.00  0.00    -0.060 N 
ATOM     28  H23 UNL     1      57.536  49.933  24.899  1.00  0.00     0.275 HD
ATOM     29  H22 UNL     1      58.984  50.054  24.446  1.00  0.00     0.275 HD
ATOM     30  H21 UNL     1      58.441  51.216  25.580  1.00  0.00     0.275 HD
ENDBRANCH  17  27
ENDBRANCH   1  17
BRANCH   7  31
HETATM   31  N6  UNL     1      54.716  56.074  26.141  1.00  0.00    -0.231 N 
ATOM     32  H62 UNL     1      54.859  56.456  27.076  1.00  0.00     0.174 HD
ATOM     33  H61 UNL     1      54.284  56.818  25.593  1.00  0.00     0.174 HD
ENDBRANCH   7  31
TORSDOF 7
ENDMDL
MODEL 5
REMARK VINA RESULT: -6.950943663      5.135      6.935
REMARK  7 active torsions:
REMARK  status: ('A' for Active; 'I' for Inactive)
REMARK    1  A    between atoms: N1_2  and  S1_4 
REMARK    2  A    between atoms: S1_4  and  O3_7 
REMARK    3  A    between atoms: O3_7  and  C2_8 
REMARK    4  A    between atoms: C2_8  and  C3_10 
REMARK    5  A    between atoms: C3_10  and  N2_11 
REMARK    6  A    between atoms: C3_10  and  C4_15 
REMARK    7  A    between atoms: C5_21  and  N6_22 
REMARK       I    between atoms: N8_27  and  C6_28 
ROOT
HETATM    1  C4  UNL     1      60.903  52.338  23.990  1.00  0.00     0.116 A 
HETATM    2  N3  UNL     1      59.810  51.954  24.736  1.00  0.00    -0.283 N 
ATOM      3  H3  UNL     1      58.843  52.193  24.517  1.00  0.00     0.188 HD
HETATM    4  N4  UNL     1      60.184  51.244  25.761  1.00  0.00    -0.219 N 
ATOM      5  H4  UNL     1      59.575  50.836  26.470  1.00  0.00     0.209 HD
HETATM    6  N5  UNL     1      61.501  51.151  25.710  1.00  0.00    -0.050 N 
HETATM    7  C5  UNL     1      62.515  50.598  26.389  1.00  0.00     0.715 A 
HETATM    8  N7  UNL     1      63.617  50.918  25.730  1.00  0.00    -0.120 N 
ATOM      9  H7  UNL     1      64.561  50.642  26.000  1.00  0.00     0.206 HD
HETATM   10  N8  UNL     1      63.306  51.661  24.649  1.00  0.00    -0.192 N 
HETATM   11  C6  UNL     1      64.308  52.119  23.762  1.00  0.00     0.209 C 
HETATM   12  N9  UNL     1      64.539  51.460  22.684  1.00  0.00    -0.372 N 
ATOM     13  H91 UNL     1      65.262  51.790  22.045  1.00  0.00     0.158 HD
ATOM     14  H92 UNL     1      64.006  50.630  22.422  1.00  0.00     0.158 HD
HETATM   15  N10 UNL     1      65.050  53.273  24.128  1.00  0.00    -0.062 NA
HETATM   16  C7  UNL     1      61.982  51.823  24.613  1.00  0.00     0.198 A 
ENDROOT
BRANCH   1  17
HETATM   17  C3  UNL     1      60.819  53.179  22.787  1.00  0.00     0.338 C 
BRANCH  17  18
HETATM   18  C2  UNL     1      59.508  52.869  22.076  1.00  0.00     0.311 C 
HETATM   19  O4  UNL     1      59.092  51.693  22.042  1.00  0.00    -0.261 OA
BRANCH  18  20
HETATM   20  O3  UNL     1      58.775  53.854  21.472  1.00  0.00    -0.178 OA
BRANCH  20  21
HETATM   21  S1  UNL     1      57.356  54.518  22.124  1.00  0.00     0.364 S 
HETATM   22  O1  UNL     1      56.263  53.513  22.275  1.00  0.00    -0.175 OA
HETATM   23  O2  UNL     1      57.701  55.007  23.521  1.00  0.00    -0.175 OA
BRANCH  21  24
HETATM   24  N1  UNL     1      56.774  55.842  21.228  1.00  0.00    -0.301 N 
HETATM   25  C1  UNL     1      55.462  56.277  21.588  1.00  0.00     0.161 C 
ATOM     26  H1  UNL     1      57.319  56.289  20.491  1.00  0.00     0.173 HD
ENDBRANCH  21  24
ENDBRANCH  20  21
ENDBRANCH  18  20
ENDBRANCH  17  18
BRANCH  17  27
HETATM   27  N2  UNL     1      60.798  54.591  22.988  1.00  0.00    -0.060 N 
ATOM     28  H23 UNL     1      60.486  54.873  23.917  1.00  0.00     0.275 HD
ATOM     29  H22 UNL     1      61.724  55.016  23.044  1.00  0.00     0.275 HD
ATOM     30  H21 UNL     1      60.221  54.952  22.228  1.00  0.00     0.275 HD
ENDBRANCH  17  27
ENDBRANCH   1  17
BRANCH   7  31
HETATM   31  N6  UNL     1      62.420  49.905  27.458  1.00  0.00    -0.231 N 
ATOM     32  H62 UNL     1      62.812  48.980  27.636  1.00  0.00     0.174 HD
ATOM     33  H61 UNL     1      61.931  50.174  28.312  1.00  0.00     0.174 HD
ENDBRANCH   7  31
TORSDOF 7
ENDMDL
