MODEL 1
REMARK VINA RESULT: -6.901320423      0.000      0.000
REMARK  10 active torsions:
REMARK  status: ('A' for Active; 'I' for Inactive)
REMARK    1  A    between atoms: C2_2  and  C4_4 
REMARK    2  A    between atoms: C4_4  and  N1_5 
REMARK    3  A    between atoms: N1_5  and  C5_7 
REMARK    4  A    between atoms: C6_10  and  N3_11 
REMARK    5  A    between atoms: C7_17  and  C8_18 
REMARK    6  A    between atoms: C8_18  and  O1_19 
REMARK    7  A    between atoms: C8_18  and  O2_21 
REMARK    8  A    between atoms: C9_25  and  N7_26 
REMARK    9  A    between atoms: N7_26  and  O3_28 
REMARK   10  A    between atoms: O3_28  and  C10_29 
ROOT
HETATM    1  C5  UNL     1      58.115  52.799  23.236  1.00  0.00     0.731 A 
HETATM    2  N2  UNL     1      58.576  51.539  23.209  1.00  0.00    -0.017 N 
ATOM      3  H2  UNL     1      59.469  51.250  22.813  1.00  0.00     0.203 HD
HETATM    4  C6  UNL     1      57.681  50.715  23.784  1.00  0.00     0.728 A 
HETATM    5  N4  UNL     1      56.652  51.492  24.170  1.00  0.00     0.018 N 
HETATM    6  N5  UNL     1      55.511  51.169  24.788  1.00  0.00    -0.246 N 
ATOM      7  H5  UNL     1      55.332  50.195  25.033  1.00  0.00     0.191 HD
HETATM    8  C7  UNL     1      54.595  52.105  25.092  1.00  0.00     0.169 A 
HETATM    9  N6  UNL     1      54.868  53.370  24.755  1.00  0.00    -0.170 N 
ATOM     10  H6  UNL     1      54.190  54.099  24.974  1.00  0.00     0.186 HD
HETATM   11  C9  UNL     1      56.017  53.707  24.132  1.00  0.00     0.742 A 
HETATM   12  N9  UNL     1      56.913  52.748  23.841  1.00  0.00     0.129 N 
ENDROOT
BRANCH   1  13
HETATM   13  N1  UNL     1      58.659  53.860  22.797  1.00  0.00    -0.223 N 
ATOM     14  H1  UNL     1      58.239  54.363  22.016  1.00  0.00     0.177 HD
BRANCH  13  15
HETATM   15  C4  UNL     1      59.871  54.351  23.406  1.00  0.00     0.142 C 
BRANCH  15  16
HETATM   16  C2  UNL     1      60.946  54.331  22.333  1.00  0.00    -0.004 C 
HETATM   17  C1  UNL     1      60.227  54.392  21.001  1.00  0.00     0.011 C 
HETATM   18  C3  UNL     1      61.805  53.119  22.481  1.00  0.00     0.011 C 
ENDBRANCH  15  16
ENDBRANCH  13  15
ENDBRANCH   1  13
BRANCH   4  19
HETATM   19  N3  UNL     1      57.731  49.444  23.963  1.00  0.00    -0.231 N 
ATOM     20  H32 UNL     1      58.433  48.974  24.533  1.00  0.00     0.174 HD
ATOM     21  H31 UNL     1      57.124  48.710  23.598  1.00  0.00     0.174 HD
ENDBRANCH   4  19
BRANCH  11  22
HETATM   22  N7  UNL     1      56.284  54.932  23.804  1.00  0.00    -0.084 N 
ATOM     23  H7  UNL     1      57.038  55.427  24.279  1.00  0.00     0.214 HD
BRANCH  22  24
HETATM   24  O3  UNL     1      55.563  55.571  22.824  1.00  0.00    -0.168 OA
BRANCH  24  25
HETATM   25  C10 UNL     1      56.020  55.545  21.514  1.00  0.00     0.395 C 
HETATM   26  N8  UNL     1      57.192  56.224  21.083  1.00  0.00    -0.031 NA
HETATM   27  O4  UNL     1      55.349  54.883  20.678  1.00  0.00    -0.240 OA
ENDBRANCH  24  25
ENDBRANCH  22  24
ENDBRANCH  11  22
BRANCH   8  28
HETATM   28  C8  UNL     1      53.315  51.764  25.782  1.00  0.00     0.325 C 
BRANCH  28  29
HETATM   29  O1  UNL     1      53.331  52.256  27.063  1.00  0.00    -0.365 OA
ATOM     30  H1  UNL     1      52.968  51.612  27.660  1.00  0.00     0.213 HD
ENDBRANCH  28  29
BRANCH  28  31
HETATM   31  O2  UNL     1      53.163  50.386  25.721  1.00  0.00    -0.365 OA
ATOM     32  H2  UNL     1      53.446  50.031  26.555  1.00  0.00     0.213 HD
ENDBRANCH  28  31
ENDBRANCH   8  28
TORSDOF 10
ENDMDL
MODEL 2
REMARK VINA RESULT: -6.889599659      6.053      9.384
REMARK  10 active torsions:
REMARK  status: ('A' for Active; 'I' for Inactive)
REMARK    1  A    between atoms: C2_2  and  C4_4 
REMARK    2  A    between atoms: C4_4  and  N1_5 
REMARK    3  A    between atoms: N1_5  and  C5_7 
REMARK    4  A    between atoms: C6_10  and  N3_11 
REMARK    5  A    between atoms: C7_17  and  C8_18 
REMARK    6  A    between atoms: C8_18  and  O1_19 
REMARK    7  A    between atoms: C8_18  and  O2_21 
REMARK    8  A    between atoms: C9_25  and  N7_26 
REMARK    9  A    between atoms: N7_26  and  O3_28 
REMARK   10  A    between atoms: O3_28  and  C10_29 
ROOT
HETATM    1  C5  UNL     1      57.290  59.791  23.775  1.00  0.00     0.731 A 
HETATM    2  N2  UNL     1      56.184  60.055  24.487  1.00  0.00    -0.017 N 
ATOM      3  H2  UNL     1      55.705  59.390  25.094  1.00  0.00     0.203 HD
HETATM    4  C6  UNL     1      55.802  61.328  24.282  1.00  0.00     0.728 A 
HETATM    5  N4  UNL     1      56.697  61.852  23.423  1.00  0.00     0.018 N 
HETATM    6  N5  UNL     1      56.773  63.080  22.899  1.00  0.00    -0.246 N 
ATOM      7  H5  UNL     1      56.072  63.777  23.150  1.00  0.00     0.191 HD
HETATM    8  C7  UNL     1      57.759  63.413  22.048  1.00  0.00     0.169 A 
HETATM    9  N6  UNL     1      58.659  62.471  21.745  1.00  0.00    -0.170 N 
ATOM     10  H6  UNL     1      59.417  62.698  21.101  1.00  0.00     0.186 HD
HETATM   11  C9  UNL     1      58.592  61.230  22.269  1.00  0.00     0.742 A 
HETATM   12  N9  UNL     1      57.594  60.927  23.119  1.00  0.00     0.129 N 
ENDROOT
BRANCH   1  13
HETATM   13  N1  UNL     1      57.955  58.712  23.698  1.00  0.00    -0.223 N 
ATOM     14  H1  UNL     1      58.941  58.737  23.438  1.00  0.00     0.177 HD
BRANCH  13  15
HETATM   15  C4  UNL     1      57.314  57.451  23.980  1.00  0.00     0.142 C 
BRANCH  15  16
HETATM   16  C2  UNL     1      56.642  56.997  22.696  1.00  0.00    -0.004 C 
HETATM   17  C1  UNL     1      55.164  56.870  23.004  1.00  0.00     0.011 C 
HETATM   18  C3  UNL     1      57.252  55.723  22.212  1.00  0.00     0.011 C 
ENDBRANCH  15  16
ENDBRANCH  13  15
ENDBRANCH   1  13
BRANCH   4  19
HETATM   19  N3  UNL     1      54.805  61.976  24.767  1.00  0.00    -0.231 N 
ATOM     20  H32 UNL     1      54.390  62.799  24.330  1.00  0.00     0.174 HD
ATOM     21  H31 UNL     1      54.272  61.810  25.620  1.00  0.00     0.174 HD
ENDBRANCH   4  19
BRANCH  11  22
HETATM   22  N7  UNL     1      59.463  60.315  21.978  1.00  0.00    -0.084 N 
ATOM     23  H7  UNL     1      60.260  60.165  22.595  1.00  0.00     0.214 HD
BRANCH  22  24
HETATM   24  O3  UNL     1      59.325  59.546  20.848  1.00  0.00    -0.168 OA
BRANCH  24  25
HETATM   25  C10 UNL     1      59.687  58.207  20.885  1.00  0.00     0.395 C 
HETATM   26  N8  UNL     1      60.424  57.627  21.953  1.00  0.00    -0.031 NA
HETATM   27  O4  UNL     1      59.336  57.483  19.914  1.00  0.00    -0.240 OA
ENDBRANCH  24  25
ENDBRANCH  22  24
ENDBRANCH  11  22
BRANCH   8  28
HETATM   28  C8  UNL     1      57.862  64.779  21.452  1.00  0.00     0.325 C 
BRANCH  28  29
HETATM   29  O1  UNL     1      57.930  64.686  20.084  1.00  0.00    -0.365 OA
ATOM     30  H1  UNL     1      58.656  64.126  19.835  1.00  0.00     0.213 HD
ENDBRANCH  28  29
BRANCH  28  31
HETATM   31  O2  UNL     1      58.965  65.399  22.019  1.00  0.00    -0.365 OA
ATOM     32  H2  UNL     1      59.530  64.717  22.363  1.00  0.00     0.213 HD
ENDBRANCH  28  31
ENDBRANCH   8  28
TORSDOF 10
ENDMDL
MODEL 3
REMARK VINA RESULT: -6.847074197      0.982      1.343
REMARK  10 active torsions:
REMARK  status: ('A' for Active; 'I' for Inactive)
REMARK    1  A    between atoms: C2_2  and  C4_4 
REMARK    2  A    between atoms: C4_4  and  N1_5 
REMARK    3  A    between atoms: N1_5  and  C5_7 
REMARK    4  A    between atoms: C6_10  and  N3_11 
REMARK    5  A    between atoms: C7_17  and  C8_18 
REMARK    6  A    between atoms: C8_18  and  O1_19 
REMARK    7  A    between atoms: C8_18  and  O2_21 
REMARK    8  A    between atoms: C9_25  and  N7_26 
REMARK    9  A    between atoms: N7_26  and  O3_28 
REMARK   10  A    between atoms: O3_28  and  C10_29 
ROOT
HETATM    1  C5  UNL     1      57.912  52.698  23.208  1.00  0.00     0.731 A 
HETATM    2  N2  UNL     1      58.427  51.461  23.279  1.00  0.00    -0.017 N 
ATOM      3  H2  UNL     1      59.335  51.181  22.907  1.00  0.00     0.203 HD
HETATM    4  C6  UNL     1      57.567  50.644  23.914  1.00  0.00     0.728 A 
HETATM    5  N4  UNL     1      56.503  51.402  24.238  1.00  0.00     0.018 N 
HETATM    6  N5  UNL     1      55.375  51.076  24.878  1.00  0.00    -0.246 N 
ATOM      7  H5  UNL     1      55.237  50.117  25.197  1.00  0.00     0.191 HD
HETATM    8  C7  UNL     1      54.417  51.992  25.108  1.00  0.00     0.169 A 
HETATM    9  N6  UNL     1      54.636  53.238  24.676  1.00  0.00    -0.170 N 
ATOM     10  H6  UNL     1      53.925  53.951  24.837  1.00  0.00     0.186 HD
HETATM   11  C9  UNL     1      55.771  53.577  24.030  1.00  0.00     0.742 A 
HETATM   12  N9  UNL     1      56.710  52.639  23.814  1.00  0.00     0.129 N 
ENDROOT
BRANCH   1  13
HETATM   13  N1  UNL     1      58.410  53.744  22.691  1.00  0.00    -0.223 N 
ATOM     14  H1  UNL     1      58.266  54.652  23.134  1.00  0.00     0.177 HD
BRANCH  13  15
HETATM   15  C4  UNL     1      59.180  53.648  21.475  1.00  0.00     0.142 C 
BRANCH  15  16
HETATM   16  C2  UNL     1      60.439  54.472  21.680  1.00  0.00    -0.004 C 
HETATM   17  C1  UNL     1      61.488  53.526  22.230  1.00  0.00     0.011 C 
HETATM   18  C3  UNL     1      60.162  55.629  22.582  1.00  0.00     0.011 C 
ENDBRANCH  15  16
ENDBRANCH  13  15
ENDBRANCH   1  13
BRANCH   4  19
HETATM   19  N3  UNL     1      57.672  49.394  24.190  1.00  0.00    -0.231 N 
ATOM     20  H32 UNL     1      57.348  48.971  25.059  1.00  0.00     0.174 HD
ATOM     21  H31 UNL     1      58.068  48.635  23.636  1.00  0.00     0.174 HD
ENDBRANCH   4  19
BRANCH  11  22
HETATM   22  N7  UNL     1      55.985  54.784  23.609  1.00  0.00    -0.084 N 
ATOM     23  H7  UNL     1      56.409  55.468  24.236  1.00  0.00     0.214 HD
BRANCH  22  24
HETATM   24  O3  UNL     1      55.649  55.154  22.330  1.00  0.00    -0.168 OA
BRANCH  24  25
HETATM   25  C10 UNL     1      56.130  56.349  21.815  1.00  0.00     0.395 C 
HETATM   26  N8  UNL     1      55.630  57.623  22.202  1.00  0.00    -0.031 NA
HETATM   27  O4  UNL     1      57.056  56.285  20.963  1.00  0.00    -0.240 OA
ENDBRANCH  24  25
ENDBRANCH  22  24
ENDBRANCH  11  22
BRANCH   8  28
HETATM   28  C8  UNL     1      53.150  51.648  25.821  1.00  0.00     0.325 C 
BRANCH  28  29
HETATM   29  O1  UNL     1      52.073  52.100  25.099  1.00  0.00    -0.365 OA
ATOM     30  H1  UNL     1      51.415  52.449  25.688  1.00  0.00     0.213 HD
ENDBRANCH  28  29
BRANCH  28  31
HETATM   31  O2  UNL     1      53.227  52.191  27.095  1.00  0.00    -0.365 OA
ATOM     32  H2  UNL     1      52.609  51.723  27.643  1.00  0.00     0.213 HD
ENDBRANCH  28  31
ENDBRANCH   8  28
TORSDOF 10
ENDMDL
MODEL 4
REMARK VINA RESULT: -6.670584221      3.433      4.582
REMARK  10 active torsions:
REMARK  status: ('A' for Active; 'I' for Inactive)
REMARK    1  A    between atoms: C2_2  and  C4_4 
REMARK    2  A    between atoms: C4_4  and  N1_5 
REMARK    3  A    between atoms: N1_5  and  C5_7 
REMARK    4  A    between atoms: C6_10  and  N3_11 
REMARK    5  A    between atoms: C7_17  and  C8_18 
REMARK    6  A    between atoms: C8_18  and  O1_19 
REMARK    7  A    between atoms: C8_18  and  O2_21 
REMARK    8  A    between atoms: C9_25  and  N7_26 
REMARK    9  A    between atoms: N7_26  and  O3_28 
REMARK   10  A    between atoms: O3_28  and  C10_29 
ROOT
HETATM    1  C5  UNL     1      62.588  52.771  25.067  1.00  0.00     0.731 A 
HETATM    2  N2  UNL     1      63.073  51.975  26.033  1.00  0.00    -0.017 N 
ATOM      3  H2  UNL     1      64.007  52.046  26.436  1.00  0.00     0.203 HD
HETATM    4  C6  UNL     1      62.143  51.070  26.387  1.00  0.00     0.728 A 
HETATM    5  N4  UNL     1      61.066  51.321  25.620  1.00  0.00     0.018 N 
HETATM    6  N5  UNL     1      59.877  50.712  25.577  1.00  0.00    -0.246 N 
ATOM      7  H5  UNL     1      59.693  49.925  26.200  1.00  0.00     0.191 HD
HETATM    8  C7  UNL     1      58.917  51.119  24.727  1.00  0.00     0.169 A 
HETATM    9  N6  UNL     1      59.197  52.154  23.928  1.00  0.00    -0.170 N 
ATOM     10  H6  UNL     1      58.486  52.482  23.274  1.00  0.00     0.186 HD
HETATM   11  C9  UNL     1      60.394  52.776  23.964  1.00  0.00     0.742 A 
HETATM   12  N9  UNL     1      61.333  52.346  24.825  1.00  0.00     0.129 N 
ENDROOT
BRANCH   1  13
HETATM   13  N1  UNL     1      63.151  53.740  24.470  1.00  0.00    -0.223 N 
ATOM     14  H1  UNL     1      62.855  54.698  24.660  1.00  0.00     0.177 HD
BRANCH  13  15
HETATM   15  C4  UNL     1      64.208  53.485  23.523  1.00  0.00     0.142 C 
BRANCH  15  16
HETATM   16  C2  UNL     1      63.832  52.223  22.767  1.00  0.00    -0.004 C 
HETATM   17  C1  UNL     1      65.006  51.275  22.898  1.00  0.00     0.011 C 
HETATM   18  C3  UNL     1      63.496  52.548  21.348  1.00  0.00     0.011 C 
ENDBRANCH  15  16
ENDBRANCH  13  15
ENDBRANCH   1  13
BRANCH   4  19
HETATM   19  N3  UNL     1      62.200  50.134  27.265  1.00  0.00    -0.231 N 
ATOM     20  H32 UNL     1      62.886  50.097  28.018  1.00  0.00     0.174 HD
ATOM     21  H31 UNL     1      61.615  49.306  27.375  1.00  0.00     0.174 HD
ENDBRANCH   4  19
BRANCH  11  22
HETATM   22  N7  UNL     1      60.667  53.779  23.191  1.00  0.00    -0.084 N 
ATOM     23  H7  UNL     1      61.601  54.188  23.209  1.00  0.00     0.214 HD
BRANCH  22  24
HETATM   24  O3  UNL     1      59.715  54.299  22.348  1.00  0.00    -0.168 OA
BRANCH  24  25
HETATM   25  C10 UNL     1      59.605  53.807  21.055  1.00  0.00     0.395 C 
HETATM   26  N8  UNL     1      60.361  54.311  19.962  1.00  0.00    -0.031 NA
HETATM   27  O4  UNL     1      58.790  52.866  20.859  1.00  0.00    -0.240 OA
ENDBRANCH  24  25
ENDBRANCH  22  24
ENDBRANCH  11  22
BRANCH   8  28
HETATM   28  C8  UNL     1      57.582  50.451  24.664  1.00  0.00     0.325 C 
BRANCH  28  29
HETATM   29  O1  UNL     1      57.158  50.138  25.931  1.00  0.00    -0.365 OA
ATOM     30  H1  UNL     1      56.962  50.935  26.411  1.00  0.00     0.213 HD
ENDBRANCH  28  29
BRANCH  28  31
HETATM   31  O2  UNL     1      57.707  49.346  23.835  1.00  0.00    -0.365 OA
ATOM     32  H2  UNL     1      57.831  48.586  24.390  1.00  0.00     0.213 HD
ENDBRANCH  28  31
ENDBRANCH   8  28
TORSDOF 10
ENDMDL
MODEL 5
REMARK VINA RESULT: -6.647890843      3.018      6.504
REMARK  10 active torsions:
REMARK  status: ('A' for Active; 'I' for Inactive)
REMARK    1  A    between atoms: C2_2  and  C4_4 
REMARK    2  A    between atoms: C4_4  and  N1_5 
REMARK    3  A    between atoms: N1_5  and  C5_7 
REMARK    4  A    between atoms: C6_10  and  N3_11 
REMARK    5  A    between atoms: C7_17  and  C8_18 
REMARK    6  A    between atoms: C8_18  and  O1_19 
REMARK    7  A    between atoms: C8_18  and  O2_21 
REMARK    8  A    between atoms: C9_25  and  N7_26 
REMARK    9  A    between atoms: N7_26  and  O3_28 
REMARK   10  A    between atoms: O3_28  and  C10_29 
ROOT
HETATM    1  C5  UNL     1      56.596  53.692  23.229  1.00  0.00     0.731 A 
HETATM    2  N2  UNL     1      55.548  53.891  22.415  1.00  0.00    -0.017 N 
ATOM      3  H2  UNL     1      54.664  53.385  22.462  1.00  0.00     0.203 HD
HETATM    4  C6  UNL     1      55.838  54.859  21.527  1.00  0.00     0.728 A 
HETATM    5  N4  UNL     1      57.093  55.259  21.807  1.00  0.00     0.018 N 
HETATM    6  N5  UNL     1      57.851  56.193  21.224  1.00  0.00    -0.246 N 
ATOM      7  H5  UNL     1      57.478  56.723  20.436  1.00  0.00     0.191 HD
HETATM    8  C7  UNL     1      59.098  56.448  21.659  1.00  0.00     0.169 A 
HETATM    9  N6  UNL     1      59.550  55.733  22.694  1.00  0.00    -0.170 N 
ATOM     10  H6  UNL     1      60.493  55.906  23.043  1.00  0.00     0.186 HD
HETATM   11  C9  UNL     1      58.793  54.789  23.290  1.00  0.00     0.742 A 
HETATM   12  N9  UNL     1      57.549  54.557  22.833  1.00  0.00     0.129 N 
ENDROOT
BRANCH   1  13
HETATM   13  N1  UNL     1      56.718  52.872  24.191  1.00  0.00    -0.223 N 
ATOM     14  H1  UNL     1      57.387  53.058  24.939  1.00  0.00     0.177 HD
BRANCH  13  15
HETATM   15  C4  UNL     1      55.911  51.678  24.225  1.00  0.00     0.142 C 
BRANCH  15  16
HETATM   16  C2  UNL     1      54.788  51.928  25.216  1.00  0.00    -0.004 C 
HETATM   17  C1  UNL     1      55.203  51.263  26.514  1.00  0.00     0.011 C 
HETATM   18  C3  UNL     1      53.495  51.411  24.679  1.00  0.00     0.011 C 
ENDBRANCH  15  16
ENDBRANCH  13  15
ENDBRANCH   1  13
BRANCH   4  19
HETATM   19  N3  UNL     1      55.120  55.351  20.583  1.00  0.00    -0.231 N 
ATOM     20  H32 UNL     1      55.125  56.334  20.313  1.00  0.00     0.174 HD
ATOM     21  H31 UNL     1      54.454  54.891  19.962  1.00  0.00     0.174 HD
ENDBRANCH   4  19
BRANCH  11  22
HETATM   22  N7  UNL     1      59.228  54.094  24.294  1.00  0.00    -0.084 N 
ATOM     23  H7  UNL     1      58.727  54.123  25.181  1.00  0.00     0.214 HD
BRANCH  22  24
HETATM   24  O3  UNL     1      60.357  53.320  24.177  1.00  0.00    -0.168 OA
BRANCH  24  25
HETATM   25  C10 UNL     1      60.296  52.124  23.476  1.00  0.00     0.395 C 
HETATM   26  N8  UNL     1      61.203  51.782  22.436  1.00  0.00    -0.031 NA
HETATM   27  O4  UNL     1      59.384  51.313  23.789  1.00  0.00    -0.240 OA
ENDBRANCH  24  25
ENDBRANCH  22  24
ENDBRANCH  11  22
BRANCH   8  28
HETATM   28  C8  UNL     1      59.961  57.487  21.021  1.00  0.00     0.325 C 
BRANCH  28  29
HETATM   29  O1  UNL     1      59.905  58.649  21.749  1.00  0.00    -0.365 OA
ATOM     30  H1  UNL     1      58.999  58.885  21.909  1.00  0.00     0.213 HD
ENDBRANCH  28  29
BRANCH  28  31
HETATM   31  O2  UNL     1      59.534  57.636  19.709  1.00  0.00    -0.365 OA
ATOM     32  H2  UNL     1      59.975  56.974  19.189  1.00  0.00     0.213 HD
ENDBRANCH  28  31
ENDBRANCH   8  28
TORSDOF 10
ENDMDL
