MODEL 1
REMARK VINA RESULT: -7.936730240      0.000      0.000
REMARK  11 active torsions:
REMARK  status: ('A' for Active; 'I' for Inactive)
REMARK    1  A    between atoms: C2_2  and  C3_3 
REMARK    2  A    between atoms: C3_3  and  N1_4 
REMARK    3  A    between atoms: C3_3  and  C15_27 
REMARK    4  A    between atoms: N1_4  and  C4_6 
REMARK    5  A    between atoms: C4_6  and  N2_8 
REMARK    6  A    between atoms: N2_8  and  N3_10 
REMARK    7  A    between atoms: N3_10  and  C5_12 
REMARK    8  A    between atoms: C5_12  and  O1_13 
REMARK    9  A    between atoms: C5_12  and  C6_15 
REMARK   10  A    between atoms: C6_15  and  N4_16 
REMARK   11  A    between atoms: C6_15  and  C9_21 
REMARK       I    between atoms: N4_16  and  C7_18 
ROOT
HETATM    1  C5  UNL     1      15.041  14.906  17.985  1.00  0.00     0.183 C 
ENDROOT
BRANCH   1   2
HETATM    2  N3  UNL     1      13.721  14.628  17.626  1.00  0.00    -0.276 N 
ATOM      3  H3  UNL     1      13.200  14.037  18.273  1.00  0.00     0.189 HD
BRANCH   2   4
HETATM    4  N2  UNL     1      13.036  15.048  16.515  1.00  0.00    -0.274 N 
ATOM      5  H2  UNL     1      13.431  14.904  15.585  1.00  0.00     0.189 HD
BRANCH   4   6
HETATM    6  C4  UNL     1      11.742  15.700  16.669  1.00  0.00     0.187 C 
HETATM    7  S1  UNL     1      11.143  16.349  15.271  1.00  0.00    -0.040 SA
BRANCH   6   8
HETATM    8  N1  UNL     1      11.082  15.743  17.889  1.00  0.00    -0.351 N 
ATOM      9  H1  UNL     1      11.509  16.332  18.604  1.00  0.00     0.162 HD
BRANCH   8  10
HETATM   10  C3  UNL     1       9.882  15.070  18.274  1.00  0.00     0.184 C 
BRANCH  10  11
HETATM   11  C2  UNL     1      10.014  13.584  18.224  1.00  0.00     0.032 C 
HETATM   12  C1  UNL     1       9.327  13.042  16.987  1.00  0.00     0.007 C 
ENDBRANCH  10  11
BRANCH  10  13
HETATM   13  C15 UNL     1       9.439  15.552  19.618  1.00  0.00     0.196 C 
HETATM   14  O3  UNL     1       8.520  14.960  20.203  1.00  0.00    -0.646 OA
HETATM   15  O4  UNL     1      10.064  16.621  20.171  1.00  0.00    -0.646 OA
ENDBRANCH  10  13
ENDBRANCH   8  10
ENDBRANCH   6   8
ENDBRANCH   4   6
ENDBRANCH   2   4
ENDBRANCH   1   2
BRANCH   1  16
HETATM   16  O1  UNL     1      15.758  13.851  18.290  1.00  0.00    -0.344 OA
ATOM     17  H1  UNL     1      16.136  13.867  19.161  1.00  0.00     0.219 HD
ENDBRANCH   1  16
BRANCH   1  18
HETATM   18  C6  UNL     1      15.717  16.199  18.083  1.00  0.00     0.098 C 
BRANCH  18  19
HETATM   19  N4  UNL     1      16.315  16.606  16.836  1.00  0.00    -0.323 N 
HETATM   20  C7  UNL     1      15.742  17.233  15.748  1.00  0.00     0.218 C 
HETATM   21  C8  UNL     1      16.661  17.533  14.553  1.00  0.00     0.117 C 
HETATM   22  O2  UNL     1      14.567  17.570  15.664  1.00  0.00    -0.274 OA
ATOM     23  H4  UNL     1      17.310  16.401  16.743  1.00  0.00     0.169 HD
ENDBRANCH  18  19
BRANCH  18  24
HETATM   24  C9  UNL     1      16.489  16.449  19.288  1.00  0.00    -0.005 A 
HETATM   25  C10 UNL     1      16.090  16.382  20.598  1.00  0.00     0.014 A 
HETATM   26  C11 UNL     1      16.923  16.613  21.693  1.00  0.00     0.001 A 
HETATM   27  C12 UNL     1      18.236  16.930  21.534  1.00  0.00     0.000 A 
HETATM   28  C13 UNL     1      18.672  17.014  20.220  1.00  0.00     0.001 A 
HETATM   29  C14 UNL     1      17.868  16.794  19.152  1.00  0.00     0.014 A 
ENDBRANCH  18  24
ENDBRANCH   1  18
TORSDOF 11
ENDMDL
MODEL 2
REMARK VINA RESULT: -7.555190571      2.302      3.097
REMARK  11 active torsions:
REMARK  status: ('A' for Active; 'I' for Inactive)
REMARK    1  A    between atoms: C2_2  and  C3_3 
REMARK    2  A    between atoms: C3_3  and  N1_4 
REMARK    3  A    between atoms: C3_3  and  C15_27 
REMARK    4  A    between atoms: N1_4  and  C4_6 
REMARK    5  A    between atoms: C4_6  and  N2_8 
REMARK    6  A    between atoms: N2_8  and  N3_10 
REMARK    7  A    between atoms: N3_10  and  C5_12 
REMARK    8  A    between atoms: C5_12  and  O1_13 
REMARK    9  A    between atoms: C5_12  and  C6_15 
REMARK   10  A    between atoms: C6_15  and  N4_16 
REMARK   11  A    between atoms: C6_15  and  C9_21 
REMARK       I    between atoms: N4_16  and  C7_18 
ROOT
HETATM    1  C5  UNL     1      14.865  14.975  18.312  1.00  0.00     0.183 C 
ENDROOT
BRANCH   1   2
HETATM    2  N3  UNL     1      13.506  14.663  18.350  1.00  0.00    -0.276 N 
ATOM      3  H3  UNL     1      13.039  14.817  19.243  1.00  0.00     0.189 HD
BRANCH   2   4
HETATM    4  N2  UNL     1      12.717  14.174  17.340  1.00  0.00    -0.274 N 
ATOM      5  H2  UNL     1      12.916  13.261  16.931  1.00  0.00     0.189 HD
BRANCH   4   6
HETATM    6  C4  UNL     1      11.595  14.966  16.853  1.00  0.00     0.187 C 
HETATM    7  S1  UNL     1      10.314  15.034  17.897  1.00  0.00    -0.040 SA
BRANCH   6   8
HETATM    8  N1  UNL     1      11.630  15.613  15.626  1.00  0.00    -0.351 N 
ATOM      9  H1  UNL     1      12.049  15.087  14.858  1.00  0.00     0.162 HD
BRANCH   8  10
HETATM   10  C3  UNL     1      11.156  16.920  15.298  1.00  0.00     0.184 C 
BRANCH  10  11
HETATM   11  C2  UNL     1      12.234  17.810  14.775  1.00  0.00     0.032 C 
HETATM   12  C1  UNL     1      12.523  18.915  15.770  1.00  0.00     0.007 C 
ENDBRANCH  10  11
BRANCH  10  13
HETATM   13  C15 UNL     1      10.002  16.818  14.351  1.00  0.00     0.196 C 
HETATM   14  O3  UNL     1       9.280  15.811  14.380  1.00  0.00    -0.646 OA
HETATM   15  O4  UNL     1       9.766  17.840  13.492  1.00  0.00    -0.646 OA
ENDBRANCH  10  13
ENDBRANCH   8  10
ENDBRANCH   6   8
ENDBRANCH   4   6
ENDBRANCH   2   4
ENDBRANCH   1   2
BRANCH   1  16
HETATM   16  O1  UNL     1      15.662  13.936  18.223  1.00  0.00    -0.344 OA
ATOM     17  H1  UNL     1      16.201  13.785  18.991  1.00  0.00     0.219 HD
ENDBRANCH   1  16
BRANCH   1  18
HETATM   18  C6  UNL     1      15.513  16.284  18.374  1.00  0.00     0.098 C 
BRANCH  18  19
HETATM   19  N4  UNL     1      15.877  16.784  17.071  1.00  0.00    -0.323 N 
HETATM   20  C7  UNL     1      15.473  16.361  15.822  1.00  0.00     0.218 C 
HETATM   21  C8  UNL     1      16.054  17.110  14.612  1.00  0.00     0.117 C 
HETATM   22  O2  UNL     1      14.689  15.446  15.604  1.00  0.00    -0.274 OA
ATOM     23  H4  UNL     1      16.531  17.567  17.074  1.00  0.00     0.169 HD
ENDBRANCH  18  19
BRANCH  18  24
HETATM   24  C9  UNL     1      16.473  16.494  19.444  1.00  0.00    -0.005 A 
HETATM   25  C10 UNL     1      16.288  16.403  20.799  1.00  0.00     0.014 A 
HETATM   26  C11 UNL     1      17.290  16.596  21.751  1.00  0.00     0.001 A 
HETATM   27  C12 UNL     1      18.566  16.895  21.390  1.00  0.00     0.000 A 
HETATM   28  C13 UNL     1      18.788  17.002  20.025  1.00  0.00     0.001 A 
HETATM   29  C14 UNL     1      17.819  16.820  19.095  1.00  0.00     0.014 A 
ENDBRANCH  18  24
ENDBRANCH   1  18
TORSDOF 11
ENDMDL
MODEL 3
REMARK VINA RESULT: -7.507823506      1.326      1.871
REMARK  11 active torsions:
REMARK  status: ('A' for Active; 'I' for Inactive)
REMARK    1  A    between atoms: C2_2  and  C3_3 
REMARK    2  A    between atoms: C3_3  and  N1_4 
REMARK    3  A    between atoms: C3_3  and  C15_27 
REMARK    4  A    between atoms: N1_4  and  C4_6 
REMARK    5  A    between atoms: C4_6  and  N2_8 
REMARK    6  A    between atoms: N2_8  and  N3_10 
REMARK    7  A    between atoms: N3_10  and  C5_12 
REMARK    8  A    between atoms: C5_12  and  O1_13 
REMARK    9  A    between atoms: C5_12  and  C6_15 
REMARK   10  A    between atoms: C6_15  and  N4_16 
REMARK   11  A    between atoms: C6_15  and  C9_21 
REMARK       I    between atoms: N4_16  and  C7_18 
ROOT
HETATM    1  C5  UNL     1      15.380  15.139  17.755  1.00  0.00     0.183 C 
ENDROOT
BRANCH   1   2
HETATM    2  N3  UNL     1      14.213  14.923  17.021  1.00  0.00    -0.276 N 
ATOM      3  H3  UNL     1      14.314  14.953  16.007  1.00  0.00     0.189 HD
BRANCH   2   4
HETATM    4  N2  UNL     1      12.948  14.677  17.490  1.00  0.00    -0.274 N 
ATOM      5  H2  UNL     1      12.616  13.718  17.589  1.00  0.00     0.189 HD
BRANCH   4   6
HETATM    6  C4  UNL     1      12.080  15.794  17.846  1.00  0.00     0.187 C 
HETATM    7  S1  UNL     1      12.260  17.122  16.878  1.00  0.00    -0.040 SA
BRANCH   6   8
HETATM    8  N1  UNL     1      11.178  15.717  18.897  1.00  0.00    -0.351 N 
ATOM      9  H1  UNL     1      11.379  16.314  19.700  1.00  0.00     0.162 HD
BRANCH   8  10
HETATM   10  C3  UNL     1      10.004  14.909  19.003  1.00  0.00     0.184 C 
BRANCH  10  11
HETATM   11  C2  UNL     1       8.935  15.551  19.823  1.00  0.00     0.032 C 
HETATM   12  C1  UNL     1       9.541  16.582  20.753  1.00  0.00     0.007 C 
ENDBRANCH  10  11
BRANCH  10  13
HETATM   13  C15 UNL     1       9.520  14.537  17.637  1.00  0.00     0.196 C 
HETATM   14  O3  UNL     1       9.155  15.429  16.859  1.00  0.00    -0.646 OA
HETATM   15  O4  UNL     1       9.505  13.229  17.281  1.00  0.00    -0.646 OA
ENDBRANCH  10  13
ENDBRANCH   8  10
ENDBRANCH   6   8
ENDBRANCH   4   6
ENDBRANCH   2   4
ENDBRANCH   1   2
BRANCH   1  16
HETATM   16  O1  UNL     1      15.905  14.055  18.277  1.00  0.00    -0.344 OA
ATOM     17  H1  UNL     1      16.316  14.184  19.124  1.00  0.00     0.219 HD
ENDBRANCH   1  16
BRANCH   1  18
HETATM   18  C6  UNL     1      16.077  16.394  18.031  1.00  0.00     0.098 C 
BRANCH  18  19
HETATM   19  N4  UNL     1      16.869  16.845  16.914  1.00  0.00    -0.323 N 
HETATM   20  C7  UNL     1      16.466  17.368  15.703  1.00  0.00     0.218 C 
HETATM   21  C8  UNL     1      17.572  17.754  14.708  1.00  0.00     0.117 C 
HETATM   22  O2  UNL     1      15.303  17.551  15.364  1.00  0.00    -0.274 OA
ATOM     23  H4  UNL     1      17.879  16.765  17.037  1.00  0.00     0.169 HD
ENDBRANCH  18  19
BRANCH  18  24
HETATM   24  C9  UNL     1      16.668  16.543  19.351  1.00  0.00    -0.005 A 
HETATM   25  C10 UNL     1      16.072  16.426  20.580  1.00  0.00     0.014 A 
HETATM   26  C11 UNL     1      16.738  16.559  21.799  1.00  0.00     0.001 A 
HETATM   27  C12 UNL     1      18.071  16.821  21.857  1.00  0.00     0.000 A 
HETATM   28  C13 UNL     1      18.705  16.952  20.630  1.00  0.00     0.001 A 
HETATM   29  C14 UNL     1      18.064  16.828  19.442  1.00  0.00     0.014 A 
ENDBRANCH  18  24
ENDBRANCH   1  18
TORSDOF 11
ENDMDL
MODEL 4
REMARK VINA RESULT: -7.473241184      2.206      2.859
REMARK  11 active torsions:
REMARK  status: ('A' for Active; 'I' for Inactive)
REMARK    1  A    between atoms: C2_2  and  C3_3 
REMARK    2  A    between atoms: C3_3  and  N1_4 
REMARK    3  A    between atoms: C3_3  and  C15_27 
REMARK    4  A    between atoms: N1_4  and  C4_6 
REMARK    5  A    between atoms: C4_6  and  N2_8 
REMARK    6  A    between atoms: N2_8  and  N3_10 
REMARK    7  A    between atoms: N3_10  and  C5_12 
REMARK    8  A    between atoms: C5_12  and  O1_13 
REMARK    9  A    between atoms: C5_12  and  C6_15 
REMARK   10  A    between atoms: C6_15  and  N4_16 
REMARK   11  A    between atoms: C6_15  and  C9_21 
REMARK       I    between atoms: N4_16  and  C7_18 
ROOT
HETATM    1  C5  UNL     1      15.107  15.136  18.396  1.00  0.00     0.183 C 
ENDROOT
BRANCH   1   2
HETATM    2  N3  UNL     1      13.738  15.039  18.644  1.00  0.00    -0.276 N 
ATOM      3  H3  UNL     1      13.359  14.093  18.688  1.00  0.00     0.189 HD
BRANCH   2   4
HETATM    4  N2  UNL     1      12.835  16.054  18.838  1.00  0.00    -0.274 N 
ATOM      5  H2  UNL     1      12.975  16.727  19.591  1.00  0.00     0.189 HD
BRANCH   4   6
HETATM    6  C4  UNL     1      11.676  16.164  17.962  1.00  0.00     0.187 C 
HETATM    7  S1  UNL     1      10.334  15.372  18.515  1.00  0.00    -0.040 SA
BRANCH   6   8
HETATM    8  N1  UNL     1      11.715  16.893  16.781  1.00  0.00    -0.351 N 
ATOM      9  H1  UNL     1      11.724  17.908  16.885  1.00  0.00     0.162 HD
BRANCH   8  10
HETATM   10  C3  UNL     1      11.743  16.406  15.438  1.00  0.00     0.184 C 
BRANCH  10  11
HETATM   11  C2  UNL     1      12.151  14.973  15.353  1.00  0.00     0.032 C 
HETATM   12  C1  UNL     1      13.407  14.839  14.517  1.00  0.00     0.007 C 
ENDBRANCH  10  11
BRANCH  10  13
HETATM   13  C15 UNL     1      10.424  16.656  14.779  1.00  0.00     0.196 C 
HETATM   14  O3  UNL     1       9.463  15.920  15.044  1.00  0.00    -0.646 OA
HETATM   15  O4  UNL     1      10.310  17.694  13.914  1.00  0.00    -0.646 OA
ENDBRANCH  10  13
ENDBRANCH   8  10
ENDBRANCH   6   8
ENDBRANCH   4   6
ENDBRANCH   2   4
ENDBRANCH   1   2
BRANCH   1  16
HETATM   16  O1  UNL     1      15.712  13.985  18.215  1.00  0.00    -0.344 OA
ATOM     17  H1  UNL     1      15.130  13.256  18.038  1.00  0.00     0.219 HD
ENDBRANCH   1  16
BRANCH   1  18
HETATM   18  C6  UNL     1      15.950  16.328  18.328  1.00  0.00     0.098 C 
BRANCH  18  19
HETATM   19  N4  UNL     1      16.468  16.565  17.004  1.00  0.00    -0.323 N 
HETATM   20  C7  UNL     1      15.876  17.191  15.926  1.00  0.00     0.218 C 
HETATM   21  C8  UNL     1      16.701  17.282  14.633  1.00  0.00     0.117 C 
HETATM   22  O2  UNL     1      14.753  17.680  15.922  1.00  0.00    -0.274 OA
ATOM     23  H4  UNL     1      17.413  16.219  16.838  1.00  0.00     0.169 HD
ENDBRANCH  18  19
BRANCH  18  24
HETATM   24  C9  UNL     1      16.865  16.552  19.435  1.00  0.00    -0.005 A 
HETATM   25  C10 UNL     1      18.188  16.909  19.402  1.00  0.00     0.014 A 
HETATM   26  C11 UNL     1      18.978  17.131  20.530  1.00  0.00     0.001 A 
HETATM   27  C12 UNL     1      18.474  17.006  21.787  1.00  0.00     0.000 A 
HETATM   28  C13 UNL     1      17.138  16.638  21.858  1.00  0.00     0.001 A 
HETATM   29  C14 UNL     1      16.366  16.418  20.766  1.00  0.00     0.014 A 
ENDBRANCH  18  24
ENDBRANCH   1  18
TORSDOF 11
ENDMDL
MODEL 5
REMARK VINA RESULT: -7.430691971      1.817      3.521
REMARK  11 active torsions:
REMARK  status: ('A' for Active; 'I' for Inactive)
REMARK    1  A    between atoms: C2_2  and  C3_3 
REMARK    2  A    between atoms: C3_3  and  N1_4 
REMARK    3  A    between atoms: C3_3  and  C15_27 
REMARK    4  A    between atoms: N1_4  and  C4_6 
REMARK    5  A    between atoms: C4_6  and  N2_8 
REMARK    6  A    between atoms: N2_8  and  N3_10 
REMARK    7  A    between atoms: N3_10  and  C5_12 
REMARK    8  A    between atoms: C5_12  and  O1_13 
REMARK    9  A    between atoms: C5_12  and  C6_15 
REMARK   10  A    between atoms: C6_15  and  N4_16 
REMARK   11  A    between atoms: C6_15  and  C9_21 
REMARK       I    between atoms: N4_16  and  C7_18 
ROOT
HETATM    1  C5  UNL     1      15.260  14.845  19.074  1.00  0.00     0.183 C 
ENDROOT
BRANCH   1   2
HETATM    2  N3  UNL     1      13.899  15.152  19.091  1.00  0.00    -0.276 N 
ATOM      3  H3  UNL     1      13.276  14.395  19.370  1.00  0.00     0.189 HD
BRANCH   2   4
HETATM    4  N2  UNL     1      13.292  16.342  18.779  1.00  0.00    -0.274 N 
ATOM      5  H2  UNL     1      13.803  17.219  18.879  1.00  0.00     0.189 HD
BRANCH   4   6
HETATM    6  C4  UNL     1      11.914  16.346  18.305  1.00  0.00     0.187 C 
HETATM    7  S1  UNL     1      11.752  16.743  16.708  1.00  0.00    -0.040 SA
BRANCH   6   8
HETATM    8  N1  UNL     1      10.850  16.024  19.136  1.00  0.00    -0.351 N 
ATOM      9  H1  UNL     1      10.899  16.396  20.085  1.00  0.00     0.162 HD
BRANCH   8  10
HETATM   10  C3  UNL     1       9.695  15.239  18.835  1.00  0.00     0.184 C 
BRANCH  10  11
HETATM   11  C2  UNL     1      10.033  13.832  18.471  1.00  0.00     0.032 C 
HETATM   12  C1  UNL     1       9.391  13.469  17.148  1.00  0.00     0.007 C 
ENDBRANCH  10  11
BRANCH  10  13
HETATM   13  C15 UNL     1       8.725  15.309  19.971  1.00  0.00     0.196 C 
HETATM   14  O3  UNL     1       8.183  16.390  20.242  1.00  0.00    -0.646 OA
HETATM   15  O4  UNL     1       8.453  14.180  20.672  1.00  0.00    -0.646 OA
ENDBRANCH  10  13
ENDBRANCH   8  10
ENDBRANCH   6   8
ENDBRANCH   4   6
ENDBRANCH   2   4
ENDBRANCH   1   2
BRANCH   1  16
HETATM   16  O1  UNL     1      15.545  13.651  18.610  1.00  0.00    -0.344 OA
ATOM     17  H1  UNL     1      16.120  13.138  19.165  1.00  0.00     0.219 HD
ENDBRANCH   1  16
BRANCH   1  18
HETATM   18  C6  UNL     1      16.394  15.656  19.514  1.00  0.00     0.098 C 
BRANCH  18  19
HETATM   19  N4  UNL     1      16.137  16.339  20.757  1.00  0.00    -0.323 N 
HETATM   20  C7  UNL     1      16.999  16.639  21.791  1.00  0.00     0.218 C 
HETATM   21  C8  UNL     1      16.407  17.383  22.999  1.00  0.00     0.117 C 
HETATM   22  O2  UNL     1      18.193  16.364  21.819  1.00  0.00    -0.274 OA
ATOM     23  H4  UNL     1      15.174  16.647  20.893  1.00  0.00     0.169 HD
ENDBRANCH  18  19
BRANCH  18  24
HETATM   24  C9  UNL     1      17.102  16.408  18.492  1.00  0.00    -0.005 A 
HETATM   25  C10 UNL     1      18.370  16.929  18.526  1.00  0.00     0.014 A 
HETATM   26  C11 UNL     1      18.975  17.615  17.473  1.00  0.00     0.001 A 
HETATM   27  C12 UNL     1      18.328  17.821  16.294  1.00  0.00     0.000 A 
HETATM   28  C13 UNL     1      17.039  17.313  16.227  1.00  0.00     0.001 A 
HETATM   29  C14 UNL     1      16.444  16.649  17.247  1.00  0.00     0.014 A 
ENDBRANCH  18  24
ENDBRANCH   1  18
TORSDOF 11
ENDMDL
