MODEL 1
REMARK VINA RESULT: -6.822344858      0.000      0.000
REMARK  8 active torsions:
REMARK  status: ('A' for Active; 'I' for Inactive)
REMARK    1  A    between atoms: C2_2  and  N1_5 
REMARK    2  A    between atoms: N1_5  and  C5_7 
REMARK    3  A    between atoms: C5_7  and  C6_11 
REMARK    4  A    between atoms: C6_11  and  N3_14 
REMARK    5  A    between atoms: N3_14  and  S1_16 
REMARK    6  A    between atoms: S1_16  and  N4_19 
REMARK       I    between atoms: C9_21  and  N6_23 
REMARK    7  A    between atoms: N6_23  and  C10_25 
REMARK    8  A    between atoms: C10_25  and  C11_26 
ROOT
HETATM    1  N3  UNL     1      12.811  17.047  16.585  1.00  0.00    -0.286 N 
ATOM      2  H3  UNL     1      13.412  17.796  16.928  1.00  0.00     0.175 HD
ENDROOT
BRANCH   1   3
HETATM    3  C6  UNL     1      12.388  16.967  15.206  1.00  0.00     0.092 C 
HETATM    4  C7  UNL     1      11.226  16.001  15.052  1.00  0.00     0.047 C 
HETATM    5  C8  UNL     1      11.945  18.320  14.709  1.00  0.00     0.047 C 
BRANCH   3   6
HETATM    6  C5  UNL     1      13.522  16.442  14.422  1.00  0.00     0.100 C 
HETATM    7  N2  UNL     1      13.916  15.239  14.605  1.00  0.00    -0.387 N 
ATOM      8  H22 UNL     1      14.700  14.876  14.063  1.00  0.00     0.157 HD
ATOM      9  H21 UNL     1      13.435  14.661  15.294  1.00  0.00     0.157 HD
BRANCH   6  10
HETATM   10  N1  UNL     1      14.186  17.241  13.470  1.00  0.00    -0.370 N 
ATOM     11  H1  UNL     1      13.662  17.539  12.647  1.00  0.00     0.161 HD
BRANCH  10  12
HETATM   12  C2  UNL     1      15.558  17.663  13.588  1.00  0.00     0.020 C 
HETATM   13  C1  UNL     1      15.950  17.979  15.028  1.00  0.00     0.037 C 
HETATM   14  C3  UNL     1      16.525  16.622  13.083  1.00  0.00     0.037 C 
HETATM   15  C4  UNL     1      15.738  18.921  12.771  1.00  0.00     0.037 C 
ENDBRANCH  10  12
ENDBRANCH   6  10
ENDBRANCH   3   6
ENDBRANCH   1   3
BRANCH   1  16
HETATM   16  S1  UNL     1      12.240  15.812  17.595  1.00  0.00     0.322 S 
HETATM   17  O1  UNL     1      10.902  16.151  18.223  1.00  0.00    -0.182 OA
HETATM   18  O2  UNL     1      12.166  14.517  16.887  1.00  0.00    -0.182 OA
BRANCH  16  19
HETATM   19  N4  UNL     1      13.353  15.617  18.928  1.00  0.00    -0.241 N 
HETATM   20  C9  UNL     1      14.595  15.442  18.707  1.00  0.00     0.199 C 
HETATM   21  N5  UNL     1      15.078  15.404  17.387  1.00  0.00    -0.063 NA
HETATM   22  N6  UNL     1      15.489  15.285  19.787  1.00  0.00    -0.358 N 
ATOM     23  H6  UNL     1      15.343  14.560  20.489  1.00  0.00     0.162 HD
ATOM     24  H4  UNL     1      13.007  15.644  19.887  1.00  0.00     0.183 HD
BRANCH  22  25
HETATM   25  C10 UNL     1      16.632  16.194  19.870  1.00  0.00     0.187 C 
BRANCH  25  26
HETATM   26  C11 UNL     1      16.860  16.553  21.292  1.00  0.00     0.070 A 
HETATM   27  C12 UNL     1      18.060  16.954  21.803  1.00  0.00     0.036 A 
HETATM   28  C13 UNL     1      17.875  17.196  23.148  1.00  0.00     0.027 A 
HETATM   29  C14 UNL     1      16.547  16.926  23.393  1.00  0.00     0.142 A 
HETATM   30  O3  UNL     1      15.989  16.548  22.262  1.00  0.00    -0.325 OA
ENDBRANCH  25  26
ENDBRANCH  22  25
ENDBRANCH  16  19
ENDBRANCH   1  16
TORSDOF 8
ENDMDL
MODEL 2
REMARK VINA RESULT: -6.572967925      0.928      1.298
REMARK  8 active torsions:
REMARK  status: ('A' for Active; 'I' for Inactive)
REMARK    1  A    between atoms: C2_2  and  N1_5 
REMARK    2  A    between atoms: N1_5  and  C5_7 
REMARK    3  A    between atoms: C5_7  and  C6_11 
REMARK    4  A    between atoms: C6_11  and  N3_14 
REMARK    5  A    between atoms: N3_14  and  S1_16 
REMARK    6  A    between atoms: S1_16  and  N4_19 
REMARK       I    between atoms: C9_21  and  N6_23 
REMARK    7  A    between atoms: N6_23  and  C10_25 
REMARK    8  A    between atoms: C10_25  and  C11_26 
ROOT
HETATM    1  N3  UNL     1      12.304  16.623  16.833  1.00  0.00    -0.286 N 
ATOM      2  H3  UNL     1      12.742  17.462  17.212  1.00  0.00     0.175 HD
ENDROOT
BRANCH   1   3
HETATM    3  C6  UNL     1      11.853  16.539  15.463  1.00  0.00     0.092 C 
HETATM    4  C7  UNL     1      12.504  15.367  14.749  1.00  0.00     0.047 C 
HETATM    5  C8  UNL     1      10.358  16.352  15.410  1.00  0.00     0.047 C 
BRANCH   3   6
HETATM    6  C5  UNL     1      12.272  17.777  14.780  1.00  0.00     0.100 C 
HETATM    7  N2  UNL     1      11.865  18.909  15.213  1.00  0.00    -0.387 N 
ATOM      8  H22 UNL     1      12.155  19.765  14.740  1.00  0.00     0.157 HD
ATOM      9  H21 UNL     1      11.255  18.936  16.029  1.00  0.00     0.157 HD
BRANCH   6  10
HETATM   10  N1  UNL     1      13.117  17.740  13.652  1.00  0.00    -0.370 N 
ATOM     11  H1  UNL     1      12.718  17.428  12.766  1.00  0.00     0.161 HD
BRANCH  10  12
HETATM   12  C2  UNL     1      14.508  18.115  13.674  1.00  0.00     0.020 C 
HETATM   13  C1  UNL     1      15.041  18.298  15.091  1.00  0.00     0.037 C 
HETATM   14  C3  UNL     1      15.389  17.096  12.996  1.00  0.00     0.037 C 
HETATM   15  C4  UNL     1      14.653  19.433  12.948  1.00  0.00     0.037 C 
ENDBRANCH  10  12
ENDBRANCH   6  10
ENDBRANCH   3   6
ENDBRANCH   1   3
BRANCH   1  16
HETATM   16  S1  UNL     1      12.056  15.231  17.768  1.00  0.00     0.322 S 
HETATM   17  O1  UNL     1      10.754  15.281  18.544  1.00  0.00    -0.182 OA
HETATM   18  O2  UNL     1      12.124  14.003  16.949  1.00  0.00    -0.182 OA
BRANCH  16  19
HETATM   19  N4  UNL     1      13.320  15.130  18.970  1.00  0.00    -0.241 N 
HETATM   20  C9  UNL     1      14.543  15.204  18.623  1.00  0.00     0.199 C 
HETATM   21  N5  UNL     1      14.884  15.369  17.269  1.00  0.00    -0.063 NA
HETATM   22  N6  UNL     1      15.560  15.122  19.598  1.00  0.00    -0.358 N 
ATOM     23  H6  UNL     1      15.617  14.324  20.231  1.00  0.00     0.162 HD
ATOM     24  H4  UNL     1      13.077  15.009  19.954  1.00  0.00     0.183 HD
BRANCH  22  25
HETATM   25  C10 UNL     1      16.530  16.214  19.674  1.00  0.00     0.187 C 
BRANCH  25  26
HETATM   26  C11 UNL     1      16.784  16.534  21.101  1.00  0.00     0.070 A 
HETATM   27  C12 UNL     1      17.999  16.895  21.605  1.00  0.00     0.036 A 
HETATM   28  C13 UNL     1      17.838  17.110  22.957  1.00  0.00     0.027 A 
HETATM   29  C14 UNL     1      16.508  16.865  23.214  1.00  0.00     0.142 A 
HETATM   30  O3  UNL     1      15.925  16.527  22.082  1.00  0.00    -0.325 OA
ENDBRANCH  25  26
ENDBRANCH  22  25
ENDBRANCH  16  19
ENDBRANCH   1  16
TORSDOF 8
ENDMDL
MODEL 3
REMARK VINA RESULT: -6.565533826      2.561      4.382
REMARK  8 active torsions:
REMARK  status: ('A' for Active; 'I' for Inactive)
REMARK    1  A    between atoms: C2_2  and  N1_5 
REMARK    2  A    between atoms: N1_5  and  C5_7 
REMARK    3  A    between atoms: C5_7  and  C6_11 
REMARK    4  A    between atoms: C6_11  and  N3_14 
REMARK    5  A    between atoms: N3_14  and  S1_16 
REMARK    6  A    between atoms: S1_16  and  N4_19 
REMARK       I    between atoms: C9_21  and  N6_23 
REMARK    7  A    between atoms: N6_23  and  C10_25 
REMARK    8  A    between atoms: C10_25  and  C11_26 
ROOT
HETATM    1  N3  UNL     1      12.965  15.665  15.281  1.00  0.00    -0.286 N 
ATOM      2  H3  UNL     1      12.761  14.676  15.421  1.00  0.00     0.175 HD
ENDROOT
BRANCH   1   3
HETATM    3  C6  UNL     1      12.003  16.702  15.579  1.00  0.00     0.092 C 
HETATM    4  C7  UNL     1      12.664  18.070  15.579  1.00  0.00     0.047 C 
HETATM    5  C8  UNL     1      10.900  16.711  14.551  1.00  0.00     0.047 C 
BRANCH   3   6
HETATM    6  C5  UNL     1      11.482  16.449  16.936  1.00  0.00     0.100 C 
HETATM    7  N2  UNL     1      12.143  16.853  17.953  1.00  0.00    -0.387 N 
ATOM      8  H22 UNL     1      11.783  16.678  18.891  1.00  0.00     0.157 HD
ATOM      9  H21 UNL     1      13.024  17.345  17.807  1.00  0.00     0.157 HD
BRANCH   6  10
HETATM   10  N1  UNL     1      10.265  15.769  17.137  1.00  0.00    -0.370 N 
ATOM     11  H1  UNL     1       9.419  16.171  16.732  1.00  0.00     0.161 HD
BRANCH  10  12
HETATM   12  C2  UNL     1      10.141  14.541  17.880  1.00  0.00     0.020 C 
HETATM   13  C1  UNL     1       9.380  13.467  17.110  1.00  0.00     0.037 C 
HETATM   14  C3  UNL     1      11.481  13.956  18.252  1.00  0.00     0.037 C 
HETATM   15  C4  UNL     1       9.376  14.832  19.151  1.00  0.00     0.037 C 
ENDBRANCH  10  12
ENDBRANCH   6  10
ENDBRANCH   3   6
ENDBRANCH   1   3
BRANCH   1  16
HETATM   16  S1  UNL     1      14.455  16.205  14.682  1.00  0.00     0.322 S 
HETATM   17  O1  UNL     1      15.329  15.066  14.194  1.00  0.00    -0.182 OA
HETATM   18  O2  UNL     1      14.283  17.218  13.620  1.00  0.00    -0.182 OA
BRANCH  16  19
HETATM   19  N4  UNL     1      15.343  16.959  15.984  1.00  0.00    -0.241 N 
HETATM   20  C9  UNL     1      15.456  16.373  17.109  1.00  0.00     0.199 C 
HETATM   21  N5  UNL     1      14.865  15.112  17.310  1.00  0.00    -0.063 NA
HETATM   22  N6  UNL     1      16.174  16.986  18.158  1.00  0.00    -0.358 N 
ATOM     23  H6  UNL     1      15.931  17.921  18.483  1.00  0.00     0.162 HD
ATOM     24  H4  UNL     1      15.773  17.874  15.844  1.00  0.00     0.183 HD
BRANCH  22  25
HETATM   25  C10 UNL     1      17.278  16.241  18.763  1.00  0.00     0.187 C 
BRANCH  25  26
HETATM   26  C11 UNL     1      17.314  16.531  20.218  1.00  0.00     0.070 A 
HETATM   27  C12 UNL     1      18.401  17.023  20.879  1.00  0.00     0.036 A 
HETATM   28  C13 UNL     1      18.050  17.158  22.205  1.00  0.00     0.027 A 
HETATM   29  C14 UNL     1      16.743  16.734  22.287  1.00  0.00     0.142 A 
HETATM   30  O3  UNL     1      16.352  16.372  21.084  1.00  0.00    -0.325 OA
ENDBRANCH  25  26
ENDBRANCH  22  25
ENDBRANCH  16  19
ENDBRANCH   1  16
TORSDOF 8
ENDMDL
MODEL 4
REMARK VINA RESULT: -6.553565932      1.957      2.422
REMARK  8 active torsions:
REMARK  status: ('A' for Active; 'I' for Inactive)
REMARK    1  A    between atoms: C2_2  and  N1_5 
REMARK    2  A    between atoms: N1_5  and  C5_7 
REMARK    3  A    between atoms: C5_7  and  C6_11 
REMARK    4  A    between atoms: C6_11  and  N3_14 
REMARK    5  A    between atoms: N3_14  and  S1_16 
REMARK    6  A    between atoms: S1_16  and  N4_19 
REMARK       I    between atoms: C9_21  and  N6_23 
REMARK    7  A    between atoms: N6_23  and  C10_25 
REMARK    8  A    between atoms: C10_25  and  C11_26 
ROOT
HETATM    1  N3  UNL     1      11.062  16.878  16.490  1.00  0.00    -0.286 N 
ATOM      2  H3  UNL     1      11.128  17.799  16.922  1.00  0.00     0.175 HD
ENDROOT
BRANCH   1   3
HETATM    3  C6  UNL     1      11.318  16.666  15.083  1.00  0.00     0.092 C 
HETATM    4  C7  UNL     1      12.008  15.332  14.855  1.00  0.00     0.047 C 
HETATM    5  C8  UNL     1      10.027  16.669  14.305  1.00  0.00     0.047 C 
BRANCH   3   6
HETATM    6  C5  UNL     1      12.231  17.733  14.631  1.00  0.00     0.100 C 
HETATM    7  N2  UNL     1      11.938  18.419  13.593  1.00  0.00    -0.387 N 
ATOM      8  H22 UNL     1      12.569  19.156  13.280  1.00  0.00     0.157 HD
ATOM      9  H21 UNL     1      11.073  18.216  13.093  1.00  0.00     0.157 HD
BRANCH   6  10
HETATM   10  N1  UNL     1      13.427  18.014  15.321  1.00  0.00    -0.370 N 
ATOM     11  H1  UNL     1      13.357  18.331  16.288  1.00  0.00     0.161 HD
BRANCH  10  12
HETATM   12  C2  UNL     1      14.741  17.882  14.745  1.00  0.00     0.020 C 
HETATM   13  C1  UNL     1      15.724  17.195  15.686  1.00  0.00     0.037 C 
HETATM   14  C3  UNL     1      14.728  17.091  13.460  1.00  0.00     0.037 C 
HETATM   15  C4  UNL     1      15.269  19.267  14.451  1.00  0.00     0.037 C 
ENDBRANCH  10  12
ENDBRANCH   6  10
ENDBRANCH   3   6
ENDBRANCH   1   3
BRANCH   1  16
HETATM   16  S1  UNL     1      10.643  15.493  17.371  1.00  0.00     0.322 S 
HETATM   17  O1  UNL     1      10.212  15.818  18.788  1.00  0.00    -0.182 OA
HETATM   18  O2  UNL     1       9.602  14.701  16.682  1.00  0.00    -0.182 OA
BRANCH  16  19
HETATM   19  N4  UNL     1      12.056  14.477  17.526  1.00  0.00    -0.241 N 
HETATM   20  C9  UNL     1      13.161  14.971  17.924  1.00  0.00     0.199 C 
HETATM   21  N5  UNL     1      13.250  16.338  18.241  1.00  0.00    -0.063 NA
HETATM   22  N6  UNL     1      14.299  14.146  18.047  1.00  0.00    -0.358 N 
ATOM     23  H6  UNL     1      14.639  13.598  17.256  1.00  0.00     0.162 HD
ATOM     24  H4  UNL     1      11.996  13.485  17.296  1.00  0.00     0.183 HD
BRANCH  22  25
HETATM   25  C10 UNL     1      14.977  14.100  19.342  1.00  0.00     0.187 C 
BRANCH  25  26
HETATM   26  C11 UNL     1      15.989  15.184  19.395  1.00  0.00     0.070 A 
HETATM   27  C12 UNL     1      16.247  15.943  20.499  1.00  0.00     0.036 A 
HETATM   28  C13 UNL     1      17.241  16.837  20.161  1.00  0.00     0.027 A 
HETATM   29  C14 UNL     1      17.544  16.573  18.845  1.00  0.00     0.142 A 
HETATM   30  O3  UNL     1      16.775  15.586  18.435  1.00  0.00    -0.325 OA
ENDBRANCH  25  26
ENDBRANCH  22  25
ENDBRANCH  16  19
ENDBRANCH   1  16
TORSDOF 8
ENDMDL
MODEL 5
REMARK VINA RESULT: -6.496086539      0.878      1.537
REMARK  8 active torsions:
REMARK  status: ('A' for Active; 'I' for Inactive)
REMARK    1  A    between atoms: C2_2  and  N1_5 
REMARK    2  A    between atoms: N1_5  and  C5_7 
REMARK    3  A    between atoms: C5_7  and  C6_11 
REMARK    4  A    between atoms: C6_11  and  N3_14 
REMARK    5  A    between atoms: N3_14  and  S1_16 
REMARK    6  A    between atoms: S1_16  and  N4_19 
REMARK       I    between atoms: C9_21  and  N6_23 
REMARK    7  A    between atoms: N6_23  and  C10_25 
REMARK    8  A    between atoms: C10_25  and  C11_26 
ROOT
HETATM    1  N3  UNL     1      12.888  16.982  16.533  1.00  0.00    -0.286 N 
ATOM      2  H3  UNL     1      13.451  17.782  16.819  1.00  0.00     0.175 HD
ENDROOT
BRANCH   1   3
HETATM    3  C6  UNL     1      12.523  16.747  15.154  1.00  0.00     0.092 C 
HETATM    4  C7  UNL     1      13.036  15.397  14.682  1.00  0.00     0.047 C 
HETATM    5  C8  UNL     1      11.024  16.766  14.994  1.00  0.00     0.047 C 
BRANCH   3   6
HETATM    6  C5  UNL     1      13.173  17.790  14.338  1.00  0.00     0.100 C 
HETATM    7  N2  UNL     1      12.843  19.016  14.497  1.00  0.00    -0.387 N 
ATOM      8  H22 UNL     1      13.291  19.737  13.932  1.00  0.00     0.157 HD
ATOM      9  H21 UNL     1      12.132  19.251  15.189  1.00  0.00     0.157 HD
BRANCH   6  10
HETATM   10  N1  UNL     1      14.154  17.465  13.381  1.00  0.00    -0.370 N 
ATOM     11  H1  UNL     1      13.852  17.000  12.525  1.00  0.00     0.161 HD
BRANCH  10  12
HETATM   12  C2  UNL     1      15.558  17.749  13.538  1.00  0.00     0.020 C 
HETATM   13  C1  UNL     1      16.005  18.955  12.718  1.00  0.00     0.037 C 
HETATM   14  C3  UNL     1      15.933  18.023  14.973  1.00  0.00     0.037 C 
HETATM   15  C4  UNL     1      16.339  16.546  13.060  1.00  0.00     0.037 C 
ENDBRANCH  10  12
ENDBRANCH   6  10
ENDBRANCH   3   6
ENDBRANCH   1   3
BRANCH   1  16
HETATM   16  S1  UNL     1      12.315  15.837  17.643  1.00  0.00     0.322 S 
HETATM   17  O1  UNL     1      11.004  16.256  18.280  1.00  0.00    -0.182 OA
HETATM   18  O2  UNL     1      12.188  14.498  17.031  1.00  0.00    -0.182 OA
BRANCH  16  19
HETATM   19  N4  UNL     1      13.460  15.706  18.956  1.00  0.00    -0.241 N 
HETATM   20  C9  UNL     1      14.695  15.507  18.714  1.00  0.00     0.199 C 
HETATM   21  N5  UNL     1      15.144  15.392  17.386  1.00  0.00    -0.063 NA
HETATM   22  N6  UNL     1      15.615  15.402  19.778  1.00  0.00    -0.358 N 
ATOM     23  H6  UNL     1      15.481  14.718  20.522  1.00  0.00     0.162 HD
ATOM     24  H4  UNL     1      13.139  15.788  19.920  1.00  0.00     0.183 HD
BRANCH  22  25
HETATM   25  C10 UNL     1      16.767  16.303  19.782  1.00  0.00     0.187 C 
BRANCH  25  26
HETATM   26  C11 UNL     1      17.119  16.629  21.186  1.00  0.00     0.070 A 
HETATM   27  C12 UNL     1      16.227  16.653  22.219  1.00  0.00     0.036 A 
HETATM   28  C13 UNL     1      16.925  16.994  23.358  1.00  0.00     0.027 A 
HETATM   29  C14 UNL     1      18.231  17.162  22.956  1.00  0.00     0.142 A 
HETATM   30  O3  UNL     1      18.295  16.935  21.660  1.00  0.00    -0.325 OA
ENDBRANCH  25  26
ENDBRANCH  22  25
ENDBRANCH  16  19
ENDBRANCH   1  16
TORSDOF 8
ENDMDL
