MODEL 1
REMARK VINA RESULT: -8.141263128      0.000      0.000
REMARK  9 active torsions:
REMARK  status: ('A' for Active; 'I' for Inactive)
REMARK    1  A    between atoms: C2_2  and  C3_3 
REMARK    2  A    between atoms: C6_8  and  O3_9 
REMARK    3  A    between atoms: C7_11  and  N1_12 
REMARK    4  A    between atoms: N1_12  and  C8_14 
REMARK    5  A    between atoms: C8_14  and  N2_16 
REMARK    6  A    between atoms: N2_16  and  C9_18 
REMARK    7  A    between atoms: C9_18  and  C10_19 
REMARK    8  A    between atoms: C9_18  and  C17_26 
REMARK    9  A    between atoms: C10_19  and  C11_20 
ROOT
HETATM    1  C8  UNL     1      14.203  14.195  18.413  1.00  0.00     0.168 C 
HETATM    2  S1  UNL     1      14.014  13.063  19.562  1.00  0.00    -0.041 SA
ENDROOT
BRANCH   1   3
HETATM    3  N1  UNL     1      13.071  14.899  17.947  1.00  0.00    -0.358 N 
ATOM      4  H1  UNL     1      12.986  15.871  18.243  1.00  0.00     0.162 HD
BRANCH   3   5
HETATM    5  C7  UNL     1      12.028  14.394  17.104  1.00  0.00     0.138 C 
HETATM    6  C2  UNL     1      10.712  15.006  17.434  1.00  0.00     0.085 C 
HETATM    7  C1  UNL     1       9.631  13.928  17.506  1.00  0.00     0.033 C 
HETATM    8  C4  UNL     1      10.371  15.860  16.230  1.00  0.00    -0.006 C 
HETATM    9  C5  UNL     1      11.226  15.659  15.269  1.00  0.00     0.004 C 
HETATM   10  C6  UNL     1      12.235  14.675  15.660  1.00  0.00     0.165 C 
BRANCH   6  11
HETATM   11  C3  UNL     1      10.671  15.863  18.627  1.00  0.00     0.187 C 
HETATM   12  O1  UNL     1       9.710  15.799  19.440  1.00  0.00    -0.647 OA
HETATM   13  O2  UNL     1      11.675  16.768  18.900  1.00  0.00    -0.647 OA
ENDBRANCH   6  11
BRANCH  10  14
HETATM   14  O3  UNL     1      13.539  15.099  15.375  1.00  0.00    -0.390 OA
ATOM     15  H3  UNL     1      13.976  14.541  14.742  1.00  0.00     0.210 HD
ENDBRANCH  10  14
ENDBRANCH   3   5
ENDBRANCH   1   3
BRANCH   1  16
HETATM   16  N2  UNL     1      15.507  14.444  17.887  1.00  0.00    -0.352 N 
ATOM     17  H2  UNL     1      15.908  13.813  17.193  1.00  0.00     0.162 HD
BRANCH  16  18
HETATM   18  C9  UNL     1      16.274  15.618  18.351  1.00  0.00     0.189 C 
BRANCH  18  19
HETATM   19  C10 UNL     1      15.617  16.051  19.620  1.00  0.00     0.074 C 
BRANCH  19  20
HETATM   20  C11 UNL     1      16.444  16.436  20.738  1.00  0.00    -0.056 A 
HETATM   21  C12 UNL     1      17.790  16.693  20.522  1.00  0.00     0.007 A 
HETATM   22  C13 UNL     1      18.637  17.062  21.542  1.00  0.00     0.001 A 
HETATM   23  C14 UNL     1      18.180  17.196  22.840  1.00  0.00     0.000 A 
HETATM   24  C15 UNL     1      16.844  16.945  23.069  1.00  0.00     0.001 A 
HETATM   25  C16 UNL     1      16.004  16.575  22.042  1.00  0.00     0.007 A 
ENDBRANCH  19  20
ENDBRANCH  18  19
BRANCH  18  26
HETATM   26  C17 UNL     1      16.122  16.666  17.319  1.00  0.00     0.197 C 
HETATM   27  O4  UNL     1      17.130  17.312  16.950  1.00  0.00    -0.646 OA
HETATM   28  O5  UNL     1      14.920  17.007  16.706  1.00  0.00    -0.646 OA
ENDBRANCH  18  26
ENDBRANCH  16  18
ENDBRANCH   1  16
TORSDOF 9
ENDMDL
MODEL 2
REMARK VINA RESULT: -7.741690032      2.482      3.320
REMARK  9 active torsions:
REMARK  status: ('A' for Active; 'I' for Inactive)
REMARK    1  A    between atoms: C2_2  and  C3_3 
REMARK    2  A    between atoms: C6_8  and  O3_9 
REMARK    3  A    between atoms: C7_11  and  N1_12 
REMARK    4  A    between atoms: N1_12  and  C8_14 
REMARK    5  A    between atoms: C8_14  and  N2_16 
REMARK    6  A    between atoms: N2_16  and  C9_18 
REMARK    7  A    between atoms: C9_18  and  C10_19 
REMARK    8  A    between atoms: C9_18  and  C17_26 
REMARK    9  A    between atoms: C10_19  and  C11_20 
ROOT
HETATM    1  C8  UNL     1      12.422  17.649  15.620  1.00  0.00     0.168 C 
HETATM    2  S1  UNL     1      11.952  18.485  14.310  1.00  0.00    -0.041 SA
ENDROOT
BRANCH   1   3
HETATM    3  N1  UNL     1      11.459  16.925  16.358  1.00  0.00    -0.358 N 
ATOM      4  H1  UNL     1      10.698  17.467  16.768  1.00  0.00     0.162 HD
BRANCH   3   5
HETATM    5  C7  UNL     1      11.436  15.512  16.591  1.00  0.00     0.138 C 
HETATM    6  C2  UNL     1      11.365  15.198  18.045  1.00  0.00     0.085 C 
HETATM    7  C1  UNL     1      12.369  14.100  18.398  1.00  0.00     0.033 C 
HETATM    8  C4  UNL     1       9.993  14.588  18.241  1.00  0.00    -0.006 C 
HETATM    9  C5  UNL     1       9.409  14.393  17.094  1.00  0.00     0.004 C 
HETATM   10  C6  UNL     1      10.265  14.823  15.989  1.00  0.00     0.165 C 
BRANCH   6  11
HETATM   11  C3  UNL     1      11.495  16.335  18.966  1.00  0.00     0.187 C 
HETATM   12  O1  UNL     1      12.520  17.068  18.953  1.00  0.00    -0.647 OA
HETATM   13  O2  UNL     1      10.506  16.642  19.878  1.00  0.00    -0.647 OA
ENDBRANCH   6  11
BRANCH  10  14
HETATM   14  O3  UNL     1       9.588  15.624  15.062  1.00  0.00    -0.390 OA
ATOM     15  H3  UNL     1       9.668  16.551  15.252  1.00  0.00     0.210 HD
ENDBRANCH  10  14
ENDBRANCH   3   5
ENDBRANCH   1   3
BRANCH   1  16
HETATM   16  N2  UNL     1      13.796  17.674  16.008  1.00  0.00    -0.352 N 
ATOM     17  H2  UNL     1      14.221  18.544  16.329  1.00  0.00     0.162 HD
BRANCH  16  18
HETATM   18  C9  UNL     1      14.600  16.437  15.943  1.00  0.00     0.189 C 
BRANCH  18  19
HETATM   19  C10 UNL     1      15.977  16.829  16.363  1.00  0.00     0.074 C 
BRANCH  19  20
HETATM   20  C11 UNL     1      16.354  16.678  17.748  1.00  0.00    -0.056 A 
HETATM   21  C12 UNL     1      17.664  16.941  18.120  1.00  0.00     0.007 A 
HETATM   22  C13 UNL     1      18.093  16.814  19.422  1.00  0.00     0.001 A 
HETATM   23  C14 UNL     1      17.229  16.417  20.426  1.00  0.00     0.000 A 
HETATM   24  C15 UNL     1      15.924  16.153  20.070  1.00  0.00     0.001 A 
HETATM   25  C16 UNL     1      15.504  16.282  18.764  1.00  0.00     0.007 A 
ENDBRANCH  19  20
ENDBRANCH  18  19
BRANCH  18  26
HETATM   26  C17 UNL     1      14.605  16.001  14.529  1.00  0.00     0.197 C 
HETATM   27  O4  UNL     1      15.187  16.707  13.674  1.00  0.00    -0.646 OA
HETATM   28  O5  UNL     1      13.999  14.842  14.055  1.00  0.00    -0.646 OA
ENDBRANCH  18  26
ENDBRANCH  16  18
ENDBRANCH   1  16
TORSDOF 9
ENDMDL
MODEL 3
REMARK VINA RESULT: -7.539160117      3.054      5.078
REMARK  9 active torsions:
REMARK  status: ('A' for Active; 'I' for Inactive)
REMARK    1  A    between atoms: C2_2  and  C3_3 
REMARK    2  A    between atoms: C6_8  and  O3_9 
REMARK    3  A    between atoms: C7_11  and  N1_12 
REMARK    4  A    between atoms: N1_12  and  C8_14 
REMARK    5  A    between atoms: C8_14  and  N2_16 
REMARK    6  A    between atoms: N2_16  and  C9_18 
REMARK    7  A    between atoms: C9_18  and  C10_19 
REMARK    8  A    between atoms: C9_18  and  C17_26 
REMARK    9  A    between atoms: C10_19  and  C11_20 
ROOT
HETATM    1  C8  UNL     1      12.874  16.208  15.593  1.00  0.00     0.168 C 
HETATM    2  S1  UNL     1      11.318  16.565  15.888  1.00  0.00    -0.041 SA
ENDROOT
BRANCH   1   3
HETATM    3  N1  UNL     1      13.585  16.966  14.636  1.00  0.00    -0.358 N 
ATOM      4  H1  UNL     1      13.294  16.861  13.665  1.00  0.00     0.162 HD
BRANCH   3   5
HETATM    5  C7  UNL     1      14.673  17.865  14.886  1.00  0.00     0.138 C 
HETATM    6  C2  UNL     1      15.895  17.468  14.133  1.00  0.00     0.085 C 
HETATM    7  C1  UNL     1      17.119  17.527  15.047  1.00  0.00     0.033 C 
HETATM    8  C4  UNL     1      16.088  18.564  13.106  1.00  0.00    -0.006 C 
HETATM    9  C5  UNL     1      15.252  19.540  13.314  1.00  0.00     0.004 C 
HETATM   10  C6  UNL     1      14.400  19.265  14.471  1.00  0.00     0.165 C 
BRANCH   6  11
HETATM   11  C3  UNL     1      15.837  16.183  13.424  1.00  0.00     0.187 C 
HETATM   12  O1  UNL     1      15.991  16.123  12.175  1.00  0.00    -0.647 OA
HETATM   13  O2  UNL     1      15.610  14.998  14.094  1.00  0.00    -0.647 OA
ENDBRANCH   6  11
BRANCH  10  14
HETATM   14  O3  UNL     1      13.044  19.495  14.208  1.00  0.00    -0.390 OA
ATOM     15  H3  UNL     1      12.558  19.747  14.985  1.00  0.00     0.210 HD
ENDBRANCH  10  14
ENDBRANCH   3   5
ENDBRANCH   1   3
BRANCH   1  16
HETATM   16  N2  UNL     1      13.486  15.125  16.295  1.00  0.00    -0.352 N 
ATOM     17  H2  UNL     1      13.639  14.232  15.826  1.00  0.00     0.162 HD
BRANCH  16  18
HETATM   18  C9  UNL     1      13.899  15.303  17.702  1.00  0.00     0.189 C 
BRANCH  18  19
HETATM   19  C10 UNL     1      15.388  15.199  17.700  1.00  0.00     0.074 C 
BRANCH  19  20
HETATM   20  C11 UNL     1      16.130  15.789  18.789  1.00  0.00    -0.056 A 
HETATM   21  C12 UNL     1      17.364  16.365  18.527  1.00  0.00     0.007 A 
HETATM   22  C13 UNL     1      18.126  16.943  19.518  1.00  0.00     0.001 A 
HETATM   23  C14 UNL     1      17.690  16.976  20.830  1.00  0.00     0.000 A 
HETATM   24  C15 UNL     1      16.465  16.407  21.104  1.00  0.00     0.001 A 
HETATM   25  C16 UNL     1      15.710  15.830  20.106  1.00  0.00     0.007 A 
ENDBRANCH  19  20
ENDBRANCH  18  19
BRANCH  18  26
HETATM   26  C17 UNL     1      13.313  14.182  18.467  1.00  0.00     0.197 C 
HETATM   27  O4  UNL     1      12.069  14.110  18.593  1.00  0.00    -0.646 OA
HETATM   28  O5  UNL     1      14.048  13.170  19.080  1.00  0.00    -0.646 OA
ENDBRANCH  18  26
ENDBRANCH  16  18
ENDBRANCH   1  16
TORSDOF 9
ENDMDL
MODEL 4
REMARK VINA RESULT: -7.457661393      3.032      4.366
REMARK  9 active torsions:
REMARK  status: ('A' for Active; 'I' for Inactive)
REMARK    1  A    between atoms: C2_2  and  C3_3 
REMARK    2  A    between atoms: C6_8  and  O3_9 
REMARK    3  A    between atoms: C7_11  and  N1_12 
REMARK    4  A    between atoms: N1_12  and  C8_14 
REMARK    5  A    between atoms: C8_14  and  N2_16 
REMARK    6  A    between atoms: N2_16  and  C9_18 
REMARK    7  A    between atoms: C9_18  and  C10_19 
REMARK    8  A    between atoms: C9_18  and  C17_26 
REMARK    9  A    between atoms: C10_19  and  C11_20 
ROOT
HETATM    1  C8  UNL     1      15.059  16.854  15.679  1.00  0.00     0.168 C 
HETATM    2  S1  UNL     1      16.563  17.423  15.453  1.00  0.00    -0.041 SA
ENDROOT
BRANCH   1   3
HETATM    3  N1  UNL     1      14.010  17.334  14.864  1.00  0.00    -0.358 N 
ATOM      4  H1  UNL     1      14.102  17.170  13.862  1.00  0.00     0.162 HD
BRANCH   3   5
HETATM    5  C7  UNL     1      12.832  18.027  15.294  1.00  0.00     0.138 C 
HETATM    6  C2  UNL     1      12.572  19.233  14.461  1.00  0.00     0.085 C 
HETATM    7  C1  UNL     1      12.232  20.427  15.353  1.00  0.00     0.033 C 
HETATM    8  C4  UNL     1      11.304  18.908  13.697  1.00  0.00    -0.006 C 
HETATM    9  C5  UNL     1      10.786  17.793  14.124  1.00  0.00     0.004 C 
HETATM   10  C6  UNL     1      11.591  17.216  15.200  1.00  0.00     0.165 C 
BRANCH   6  11
HETATM   11  C3  UNL     1      13.611  19.591  13.487  1.00  0.00     0.187 C 
HETATM   12  O1  UNL     1      13.472  19.330  12.262  1.00  0.00    -0.647 OA
HETATM   13  O2  UNL     1      14.776  20.223  13.873  1.00  0.00    -0.647 OA
ENDBRANCH   6  11
BRANCH  10  14
HETATM   14  O3  UNL     1      11.851  15.853  15.008  1.00  0.00    -0.390 OA
ATOM     15  H3  UNL     1      12.447  15.693  14.285  1.00  0.00     0.210 HD
ENDBRANCH  10  14
ENDBRANCH   3   5
ENDBRANCH   1   3
BRANCH   1  16
HETATM   16  N2  UNL     1      14.825  15.891  16.708  1.00  0.00    -0.352 N 
ATOM     17  H2  UNL     1      14.904  14.894  16.503  1.00  0.00     0.162 HD
BRANCH  16  18
HETATM   18  C9  UNL     1      14.470  16.342  18.068  1.00  0.00     0.189 C 
BRANCH  18  19
HETATM   19  C10 UNL     1      15.297  15.514  18.995  1.00  0.00     0.074 C 
BRANCH  19  20
HETATM   20  C11 UNL     1      16.443  16.117  19.634  1.00  0.00    -0.056 A 
HETATM   21  C12 UNL     1      16.431  16.291  21.010  1.00  0.00     0.007 A 
HETATM   22  C13 UNL     1      17.488  16.861  21.683  1.00  0.00     0.001 A 
HETATM   23  C14 UNL     1      18.620  17.287  21.012  1.00  0.00     0.000 A 
HETATM   24  C15 UNL     1      18.645  17.119  19.644  1.00  0.00     0.001 A 
HETATM   25  C16 UNL     1      17.582  16.549  18.979  1.00  0.00     0.007 A 
ENDBRANCH  19  20
ENDBRANCH  18  19
BRANCH  18  26
HETATM   26  C17 UNL     1      13.036  16.038  18.261  1.00  0.00     0.197 C 
HETATM   27  O4  UNL     1      12.579  14.948  17.846  1.00  0.00    -0.646 OA
HETATM   28  O5  UNL     1      12.121  16.886  18.879  1.00  0.00    -0.646 OA
ENDBRANCH  18  26
ENDBRANCH  16  18
ENDBRANCH   1  16
TORSDOF 9
ENDMDL
MODEL 5
REMARK VINA RESULT: -7.253312302      2.579      3.376
REMARK  9 active torsions:
REMARK  status: ('A' for Active; 'I' for Inactive)
REMARK    1  A    between atoms: C2_2  and  C3_3 
REMARK    2  A    between atoms: C6_8  and  O3_9 
REMARK    3  A    between atoms: C7_11  and  N1_12 
REMARK    4  A    between atoms: N1_12  and  C8_14 
REMARK    5  A    between atoms: C8_14  and  N2_16 
REMARK    6  A    between atoms: N2_16  and  C9_18 
REMARK    7  A    between atoms: C9_18  and  C10_19 
REMARK    8  A    between atoms: C9_18  and  C17_26 
REMARK    9  A    between atoms: C10_19  and  C11_20 
ROOT
HETATM    1  C8  UNL     1      12.957  17.051  15.595  1.00  0.00     0.168 C 
HETATM    2  S1  UNL     1      12.111  17.889  14.491  1.00  0.00    -0.041 SA
ENDROOT
BRANCH   1   3
HETATM    3  N1  UNL     1      12.343  15.962  16.252  1.00  0.00    -0.358 N 
ATOM      4  H1  UNL     1      11.945  15.236  15.657  1.00  0.00     0.162 HD
BRANCH   3   5
HETATM    5  C7  UNL     1      12.219  15.768  17.667  1.00  0.00     0.138 C 
HETATM    6  C2  UNL     1      10.865  15.268  18.034  1.00  0.00     0.085 C 
HETATM    7  C1  UNL     1      10.322  16.047  19.233  1.00  0.00     0.033 C 
HETATM    8  C4  UNL     1      11.097  13.854  18.525  1.00  0.00    -0.006 C 
HETATM    9  C5  UNL     1      12.371  13.604  18.618  1.00  0.00     0.004 C 
HETATM   10  C6  UNL     1      13.166  14.766  18.221  1.00  0.00     0.165 C 
BRANCH   6  11
HETATM   11  C3  UNL     1       9.872  15.219  16.954  1.00  0.00     0.187 C 
HETATM   12  O1  UNL     1       9.590  16.247  16.283  1.00  0.00    -0.647 OA
HETATM   13  O2  UNL     1       9.209  14.051  16.635  1.00  0.00    -0.647 OA
ENDBRANCH   6  11
BRANCH  10  14
HETATM   14  O3  UNL     1      14.189  14.438  17.323  1.00  0.00    -0.390 OA
ATOM     15  H3  UNL     1      13.858  14.146  16.481  1.00  0.00     0.210 HD
ENDBRANCH  10  14
ENDBRANCH   3   5
ENDBRANCH   1   3
BRANCH   1  16
HETATM   16  N2  UNL     1      14.300  17.440  15.888  1.00  0.00    -0.352 N 
ATOM     17  H2  UNL     1      14.498  18.385  16.217  1.00  0.00     0.162 HD
BRANCH  16  18
HETATM   18  C9  UNL     1      15.400  16.471  15.713  1.00  0.00     0.189 C 
BRANCH  18  19
HETATM   19  C10 UNL     1      16.635  17.181  16.157  1.00  0.00     0.074 C 
BRANCH  19  20
HETATM   20  C11 UNL     1      17.080  17.020  17.521  1.00  0.00    -0.056 A 
HETATM   21  C12 UNL     1      18.403  17.300  17.834  1.00  0.00     0.007 A 
HETATM   22  C13 UNL     1      18.895  17.166  19.112  1.00  0.00     0.001 A 
HETATM   23  C14 UNL     1      18.086  16.745  20.152  1.00  0.00     0.000 A 
HETATM   24  C15 UNL     1      16.770  16.464  19.855  1.00  0.00     0.001 A 
HETATM   25  C16 UNL     1      16.286  16.600  18.572  1.00  0.00     0.007 A 
ENDBRANCH  19  20
ENDBRANCH  18  19
BRANCH  18  26
HETATM   26  C17 UNL     1      15.481  16.168  14.268  1.00  0.00     0.197 C 
HETATM   27  O4  UNL     1      16.153  16.917  13.522  1.00  0.00    -0.646 OA
HETATM   28  O5  UNL     1      14.852  15.092  13.647  1.00  0.00    -0.646 OA
ENDBRANCH  18  26
ENDBRANCH  16  18
ENDBRANCH   1  16
TORSDOF 9
ENDMDL
