MODEL 1
REMARK VINA RESULT: -3.061917855      0.000      0.000
REMARK  1 active torsions:
REMARK  status: ('A' for Active; 'I' for Inactive)
REMARK    1  A    between atoms: C2_2  and  C3_3 
ROOT
HETATM    1  C3  UNL     1       6.701  -8.829 -29.079  1.00  0.00     0.200 C 
HETATM    2  N1  UNL     1       7.483  -7.666 -28.929  1.00  0.00    -0.070 N 
ATOM      3  H11 UNL     1       7.053  -6.946 -28.348  1.00  0.00     0.277 HD
ATOM      4  H12 UNL     1       7.555  -7.101 -29.774  1.00  0.00     0.277 HD
HETATM    5  C4  UNL     1       8.756  -8.147 -28.429  1.00  0.00     0.234 C 
HETATM    6  C5  UNL     1       8.864  -9.598 -28.785  1.00  0.00     0.045 C 
HETATM    7  C6  UNL     1       7.636  -9.828 -29.680  1.00  0.00     0.090 C 
HETATM    8  S1  UNL     1       8.138  -9.467 -31.353  1.00  0.00    -0.090 SA
ENDROOT
BRANCH   1   9
HETATM    9  C2  UNL     1       5.395  -8.685 -29.762  1.00  0.00     0.030 C 
HETATM   10  C1  UNL     1       4.214  -8.466 -28.907  1.00  0.00     0.007 C 
ENDBRANCH   1   9
TORSDOF 1
ENDMDL
MODEL 2
REMARK VINA RESULT: -2.996209510      9.636     10.843
REMARK  1 active torsions:
REMARK  status: ('A' for Active; 'I' for Inactive)
REMARK    1  A    between atoms: C2_2  and  C3_3 
ROOT
HETATM    1  C3  UNL     1       2.181  -3.353 -22.577  1.00  0.00     0.200 C 
HETATM    2  N1  UNL     1       2.129  -3.910 -23.871  1.00  0.00    -0.070 N 
ATOM      3  H11 UNL     1       3.041  -4.166 -24.251  1.00  0.00     0.277 HD
ATOM      4  H12 UNL     1       1.885  -3.242 -24.602  1.00  0.00     0.277 HD
HETATM    5  C4  UNL     1       1.205  -5.020 -23.752  1.00  0.00     0.234 C 
HETATM    6  C5  UNL     1       0.354  -4.774 -22.544  1.00  0.00     0.045 C 
HETATM    7  C6  UNL     1       0.758  -3.354 -22.118  1.00  0.00     0.090 C 
HETATM    8  S1  UNL     1      -0.308  -2.226 -22.995  1.00  0.00    -0.090 SA
ENDROOT
BRANCH   1   9
HETATM    9  C2  UNL     1       2.902  -2.069 -22.419  1.00  0.00     0.030 C 
HETATM   10  C1  UNL     1       2.877  -1.450 -21.081  1.00  0.00     0.007 C 
ENDBRANCH   1   9
TORSDOF 1
ENDMDL
MODEL 3
REMARK VINA RESULT: -2.981301836      9.356     10.331
REMARK  1 active torsions:
REMARK  status: ('A' for Active; 'I' for Inactive)
REMARK    1  A    between atoms: C2_2  and  C3_3 
ROOT
HETATM    1  C3  UNL     1       2.504  -3.055 -23.245  1.00  0.00     0.200 C 
HETATM    2  N1  UNL     1       1.743  -2.086 -23.927  1.00  0.00    -0.070 N 
ATOM      3  H11 UNL     1       2.235  -1.206 -24.087  1.00  0.00     0.277 HD
ATOM      4  H12 UNL     1       0.981  -1.691 -23.375  1.00  0.00     0.277 HD
HETATM    5  C4  UNL     1       1.310  -2.750 -25.140  1.00  0.00     0.234 C 
HETATM    6  C5  UNL     1       1.390  -4.227 -24.901  1.00  0.00     0.045 C 
HETATM    7  C6  UNL     1       1.721  -4.319 -23.403  1.00  0.00     0.090 C 
HETATM    8  S1  UNL     1       0.167  -4.345 -22.528  1.00  0.00    -0.090 SA
ENDROOT
BRANCH   1   9
HETATM    9  C2  UNL     1       2.929  -2.736 -21.862  1.00  0.00     0.030 C 
HETATM   10  C1  UNL     1       2.889  -1.317 -21.462  1.00  0.00     0.007 C 
ENDBRANCH   1   9
TORSDOF 1
ENDMDL
MODEL 4
REMARK VINA RESULT: -2.946796678      9.047     10.103
REMARK  1 active torsions:
REMARK  status: ('A' for Active; 'I' for Inactive)
REMARK    1  A    between atoms: C2_2  and  C3_3 
ROOT
HETATM    1  C3  UNL     1       2.091  -3.789 -23.510  1.00  0.00     0.200 C 
HETATM    2  N1  UNL     1       1.546  -4.182 -24.749  1.00  0.00    -0.070 N 
ATOM      3  H11 UNL     1       2.143  -3.977 -25.551  1.00  0.00     0.277 HD
ATOM      4  H12 UNL     1       0.752  -3.617 -25.051  1.00  0.00     0.277 HD
HETATM    5  C4  UNL     1       1.241  -5.589 -24.582  1.00  0.00     0.234 C 
HETATM    6  C5  UNL     1       1.133  -5.858 -23.113  1.00  0.00     0.045 C 
HETATM    7  C6  UNL     1       1.218  -4.454 -22.495  1.00  0.00     0.090 C 
HETATM    8  S1  UNL     1      -0.447  -3.820 -22.416  1.00  0.00    -0.090 SA
ENDROOT
BRANCH   1   9
HETATM    9  C2  UNL     1       2.327  -2.342 -23.300  1.00  0.00     0.030 C 
HETATM   10  C1  UNL     1       2.922  -1.943 -22.011  1.00  0.00     0.007 C 
ENDBRANCH   1   9
TORSDOF 1
ENDMDL
MODEL 5
REMARK VINA RESULT: -2.941773288      9.562     10.304
REMARK  1 active torsions:
REMARK  status: ('A' for Active; 'I' for Inactive)
REMARK    1  A    between atoms: C2_2  and  C3_3 
ROOT
HETATM    1  C3  UNL     1       1.932  -3.023 -22.648  1.00  0.00     0.200 C 
HETATM    2  N1  UNL     1       2.124  -4.414 -22.529  1.00  0.00    -0.070 N 
ATOM      3  H11 UNL     1       2.314  -4.729 -21.577  1.00  0.00     0.277 HD
ATOM      4  H12 UNL     1       2.996  -4.750 -22.936  1.00  0.00     0.277 HD
HETATM    5  C4  UNL     1       0.934  -4.997 -23.117  1.00  0.00     0.234 C 
HETATM    6  C5  UNL     1       0.324  -3.968 -24.019  1.00  0.00     0.045 C 
HETATM    7  C6  UNL     1       1.372  -2.844 -24.023  1.00  0.00     0.090 C 
HETATM    8  S1  UNL     1       2.515  -3.203 -25.344  1.00  0.00    -0.090 SA
ENDROOT
BRANCH   1   9
HETATM    9  C2  UNL     1       3.077  -2.148 -22.305  1.00  0.00     0.030 C 
HETATM   10  C1  UNL     1       2.895  -1.223 -21.171  1.00  0.00     0.007 C 
ENDBRANCH   1   9
TORSDOF 1
ENDMDL
