MODEL 1
REMARK VINA RESULT: -3.286137963      0.000      0.000
REMARK  2 active torsions:
REMARK  status: ('A' for Active; 'I' for Inactive)
REMARK    1  A    between atoms: S1_2  and  C2_3 
REMARK    2  A    between atoms: C6_7  and  N1_8 
ROOT
HETATM    1  C2  UNL     1       1.438  -2.229 -23.848  1.00  0.00     0.077 C 
HETATM    2  C3  UNL     1       1.628  -1.575 -22.510  1.00  0.00     0.017 C 
HETATM    3  C4  UNL     1       2.971  -2.027 -21.977  1.00  0.00     0.003 C 
HETATM    4  C5  UNL     1       3.704  -2.675 -23.117  1.00  0.00     0.034 C 
HETATM    5  C6  UNL     1       2.674  -3.028 -24.148  1.00  0.00     0.197 C 
ENDROOT
BRANCH   5   6
HETATM    6  N1  UNL     1       3.141  -2.789 -25.507  1.00  0.00    -0.074 N 
ATOM      7  H13 UNL     1       3.623  -3.603 -25.886  1.00  0.00     0.274 HD
ATOM      8  H12 UNL     1       2.366  -2.744 -26.167  1.00  0.00     0.274 HD
ATOM      9  H11 UNL     1       3.724  -1.952 -25.556  1.00  0.00     0.274 HD
ENDBRANCH   5   6
BRANCH   1  10
HETATM   10  S1  UNL     1       0.019  -3.337 -23.906  1.00  0.00    -0.167 SA
HETATM   11  C1  UNL     1       0.048  -4.581 -22.598  1.00  0.00     0.090 C 
ENDBRANCH   1  10
TORSDOF 2
ENDMDL
MODEL 2
REMARK VINA RESULT: -3.106531843      1.378      1.408
REMARK  2 active torsions:
REMARK  status: ('A' for Active; 'I' for Inactive)
REMARK    1  A    between atoms: S1_2  and  C2_3 
REMARK    2  A    between atoms: C6_7  and  N1_8 
ROOT
HETATM    1  C2  UNL     1       0.913  -2.863 -22.581  1.00  0.00     0.077 C 
HETATM    2  C3  UNL     1       1.138  -2.245 -21.232  1.00  0.00     0.017 C 
HETATM    3  C4  UNL     1       2.629  -2.026 -21.083  1.00  0.00     0.003 C 
HETATM    4  C5  UNL     1       3.241  -2.209 -22.443  1.00  0.00     0.034 C 
HETATM    5  C6  UNL     1       2.246  -2.970 -23.266  1.00  0.00     0.197 C 
ENDROOT
BRANCH   5   6
HETATM    6  N1  UNL     1       2.175  -2.489 -24.639  1.00  0.00    -0.074 N 
ATOM      7  H13 UNL     1       3.080  -2.556 -25.106  1.00  0.00     0.274 HD
ATOM      8  H12 UNL     1       1.646  -3.127 -25.232  1.00  0.00     0.274 HD
ATOM      9  H11 UNL     1       1.801  -1.541 -24.681  1.00  0.00     0.274 HD
ENDBRANCH   5   6
BRANCH   1  10
HETATM   10  S1  UNL     1       0.183  -4.507 -22.501  1.00  0.00    -0.167 SA
HETATM   11  C1  UNL     1       1.355  -5.814 -22.924  1.00  0.00     0.090 C 
ENDBRANCH   1  10
TORSDOF 2
ENDMDL
MODEL 3
REMARK VINA RESULT: -3.043091802      1.255      1.255
REMARK  2 active torsions:
REMARK  status: ('A' for Active; 'I' for Inactive)
REMARK    1  A    between atoms: S1_2  and  C2_3 
REMARK    2  A    between atoms: C6_7  and  N1_8 
ROOT
HETATM    1  C2  UNL     1       1.556  -3.512 -23.993  1.00  0.00     0.077 C 
HETATM    2  C3  UNL     1       1.495  -3.156 -22.536  1.00  0.00     0.017 C 
HETATM    3  C4  UNL     1       2.907  -2.831 -22.095  1.00  0.00     0.003 C 
HETATM    4  C5  UNL     1       3.736  -2.683 -23.339  1.00  0.00     0.034 C 
HETATM    5  C6  UNL     1       2.980  -3.356 -24.445  1.00  0.00     0.197 C 
ENDROOT
BRANCH   5   6
HETATM    6  N1  UNL     1       3.059  -2.621 -25.700  1.00  0.00    -0.074 N 
ATOM      7  H13 UNL     1       2.354  -2.939 -26.365  1.00  0.00     0.274 HD
ATOM      8  H12 UNL     1       2.747  -1.657 -25.590  1.00  0.00     0.274 HD
ATOM      9  H11 UNL     1       3.997  -2.668 -26.099  1.00  0.00     0.274 HD
ENDBRANCH   5   6
BRANCH   1  10
HETATM   10  S1  UNL     1       1.034  -5.201 -24.338  1.00  0.00    -0.167 SA
HETATM   11  C1  UNL     1       0.554  -6.103 -22.850  1.00  0.00     0.090 C 
ENDBRANCH   1  10
TORSDOF 2
ENDMDL
MODEL 4
REMARK VINA RESULT: -2.997055916      2.024      2.346
REMARK  2 active torsions:
REMARK  status: ('A' for Active; 'I' for Inactive)
REMARK    1  A    between atoms: S1_2  and  C2_3 
REMARK    2  A    between atoms: C6_7  and  N1_8 
ROOT
HETATM    1  C2  UNL     1       0.839  -1.125 -22.158  1.00  0.00     0.077 C 
HETATM    2  C3  UNL     1       1.703  -0.551 -21.072  1.00  0.00     0.017 C 
HETATM    3  C4  UNL     1       3.010  -1.315 -21.089  1.00  0.00     0.003 C 
HETATM    4  C5  UNL     1       3.045  -2.105 -22.366  1.00  0.00     0.034 C 
HETATM    5  C6  UNL     1       1.632  -2.191 -22.860  1.00  0.00     0.197 C 
ENDROOT
BRANCH   5   6
HETATM    6  N1  UNL     1       1.538  -2.054 -24.306  1.00  0.00    -0.074 N 
ATOM      7  H13 UNL     1       2.416  -1.725 -24.709  1.00  0.00     0.274 HD
ATOM      8  H12 UNL     1       1.486  -2.962 -24.766  1.00  0.00     0.274 HD
ATOM      9  H11 UNL     1       0.757  -1.454 -24.572  1.00  0.00     0.274 HD
ENDBRANCH   5   6
BRANCH   1  10
HETATM   10  S1  UNL     1      -0.684  -1.865 -21.543  1.00  0.00    -0.167 SA
HETATM   11  C1  UNL     1      -0.904  -1.637 -19.766  1.00  0.00     0.090 C 
ENDBRANCH   1  10
TORSDOF 2
ENDMDL
MODEL 5
REMARK VINA RESULT: -2.992221492      1.361      1.758
REMARK  2 active torsions:
REMARK  status: ('A' for Active; 'I' for Inactive)
REMARK    1  A    between atoms: S1_2  and  C2_3 
REMARK    2  A    between atoms: C6_7  and  N1_8 
ROOT
HETATM    1  C2  UNL     1       1.562  -1.736 -22.611  1.00  0.00     0.077 C 
HETATM    2  C3  UNL     1       2.952  -1.925 -22.076  1.00  0.00     0.017 C 
HETATM    3  C4  UNL     1       3.694  -2.807 -23.057  1.00  0.00     0.003 C 
HETATM    4  C5  UNL     1       2.864  -2.872 -24.309  1.00  0.00     0.034 C 
HETATM    5  C6  UNL     1       1.476  -2.452 -23.928  1.00  0.00     0.197 C 
ENDROOT
BRANCH   5   6
HETATM    6  N1  UNL     1       0.849  -1.617 -24.944  1.00  0.00    -0.074 N 
ATOM      7  H13 UNL     1       0.164  -2.141 -25.489  1.00  0.00     0.274 HD
ATOM      8  H12 UNL     1       0.224  -0.927 -24.529  1.00  0.00     0.274 HD
ATOM      9  H11 UNL     1       1.547  -1.177 -25.544  1.00  0.00     0.274 HD
ENDBRANCH   5   6
BRANCH   1  10
HETATM   10  S1  UNL     1       0.283  -2.391 -21.525  1.00  0.00    -0.167 SA
HETATM   11  C1  UNL     1      -0.524  -3.858 -22.201  1.00  0.00     0.090 C 
ENDBRANCH   1  10
TORSDOF 2
ENDMDL
