MODEL 1
REMARK VINA RESULT: -3.666445135      0.000      0.000
REMARK  1 active torsions:
REMARK  status: ('A' for Active; 'I' for Inactive)
REMARK    1  A    between atoms: N1_2  and  C2_5 
ROOT
HETATM    1  C2  UNL     1       2.039  -2.950 -24.478  1.00  0.00     0.187 C 
HETATM    2  C3  UNL     1       1.614  -4.405 -24.361  1.00  0.00     0.034 C 
HETATM    3  C4  UNL     1       0.779  -4.700 -23.169  1.00  0.00     0.029 C 
HETATM    4  C5  UNL     1       0.347  -3.516 -22.373  1.00  0.00     0.232 C 
HETATM    5  N2  UNL     1       1.383  -3.015 -21.487  1.00  0.00    -0.071 N 
ATOM      6  H21 UNL     1       2.017  -3.745 -21.161  1.00  0.00     0.277 HD
ATOM      7  H22 UNL     1       1.026  -2.734 -20.574  1.00  0.00     0.277 HD
HETATM    8  C6  UNL     1       2.070  -1.931 -22.191  1.00  0.00     0.183 C 
HETATM    9  C7  UNL     1       3.030  -1.222 -21.258  1.00  0.00     0.040 C 
HETATM   10  C8  UNL     1       2.885  -2.556 -23.284  1.00  0.00     0.065 C 
ENDROOT
BRANCH   1  11
HETATM   11  N1  UNL     1       2.886  -2.818 -25.642  1.00  0.00    -0.075 N 
HETATM   12  C1  UNL     1       2.155  -2.812 -26.891  1.00  0.00     0.267 C 
ATOM     13  H12 UNL     1       3.607  -3.540 -25.647  1.00  0.00     0.277 HD
ATOM     14  H11 UNL     1       3.477  -1.989 -25.565  1.00  0.00     0.277 HD
ENDBRANCH   1  11
TORSDOF 1
ENDMDL
MODEL 2
REMARK VINA RESULT: -3.622095663      1.672      3.295
REMARK  1 active torsions:
REMARK  status: ('A' for Active; 'I' for Inactive)
REMARK    1  A    between atoms: N1_2  and  C2_5 
ROOT
HETATM    1  C2  UNL     1       1.645  -5.318 -23.499  1.00  0.00     0.187 C 
HETATM    2  C3  UNL     1       0.718  -5.228 -24.700  1.00  0.00     0.034 C 
HETATM    3  C4  UNL     1       1.112  -4.198 -25.695  1.00  0.00     0.029 C 
HETATM    4  C5  UNL     1       2.427  -3.538 -25.456  1.00  0.00     0.232 C 
HETATM    5  N2  UNL     1       2.368  -2.496 -24.446  1.00  0.00    -0.071 N 
ATOM      6  H21 UNL     1       1.459  -2.034 -24.401  1.00  0.00     0.277 HD
ATOM      7  H22 UNL     1       2.922  -1.674 -24.687  1.00  0.00     0.277 HD
HETATM    8  C6  UNL     1       2.765  -3.102 -23.174  1.00  0.00     0.183 C 
HETATM    9  C7  UNL     1       2.925  -2.037 -22.110  1.00  0.00     0.040 C 
HETATM   10  C8  UNL     1       1.648  -4.005 -22.742  1.00  0.00     0.065 C 
ENDROOT
BRANCH   1  11
HETATM   11  N1  UNL     1       1.116  -6.312 -22.592  1.00  0.00    -0.075 N 
HETATM   12  C1  UNL     1      -0.240  -6.712 -22.901  1.00  0.00     0.267 C 
ATOM     13  H12 UNL     1       1.188  -5.992 -21.626  1.00  0.00     0.277 HD
ATOM     14  H11 UNL     1       1.731  -7.124 -22.548  1.00  0.00     0.277 HD
ENDBRANCH   1  11
TORSDOF 1
ENDMDL
MODEL 3
REMARK VINA RESULT: -3.598540695      6.470      8.454
REMARK  1 active torsions:
REMARK  status: ('A' for Active; 'I' for Inactive)
REMARK    1  A    between atoms: N1_2  and  C2_5 
ROOT
HETATM    1  C2  UNL     1       4.422  -8.352 -29.194  1.00  0.00     0.187 C 
HETATM    2  C3  UNL     1       4.611  -6.865 -28.939  1.00  0.00     0.034 C 
HETATM    3  C4  UNL     1       3.457  -6.212 -28.272  1.00  0.00     0.029 C 
HETATM    4  C5  UNL     1       2.376  -7.127 -27.806  1.00  0.00     0.232 C 
HETATM    5  N2  UNL     1       1.484  -7.546 -28.872  1.00  0.00    -0.071 N 
ATOM      6  H21 UNL     1       1.389  -6.849 -29.611  1.00  0.00     0.277 HD
ATOM      7  H22 UNL     1       0.505  -7.571 -28.587  1.00  0.00     0.277 HD
HETATM    8  C6  UNL     1       1.971  -8.837 -29.363  1.00  0.00     0.183 C 
HETATM    9  C7  UNL     1       0.979  -9.438 -30.338  1.00  0.00     0.040 C 
HETATM   10  C8  UNL     1       3.241  -8.577 -30.118  1.00  0.00     0.065 C 
ENDROOT
BRANCH   1  11
HETATM   11  N1  UNL     1       5.587  -8.844 -29.894  1.00  0.00    -0.075 N 
HETATM   12  C1  UNL     1       6.662  -9.248 -29.013  1.00  0.00     0.267 C 
ATOM     13  H12 UNL     1       5.916  -8.158 -30.574  1.00  0.00     0.277 HD
ATOM     14  H11 UNL     1       5.334  -9.602 -30.527  1.00  0.00     0.277 HD
ENDBRANCH   1  11
TORSDOF 1
ENDMDL
MODEL 4
REMARK VINA RESULT: -3.512176196      5.404      7.558
REMARK  1 active torsions:
REMARK  status: ('A' for Active; 'I' for Inactive)
REMARK    1  A    between atoms: N1_2  and  C2_5 
ROOT
HETATM    1  C2  UNL     1       2.960  -6.606 -27.886  1.00  0.00     0.187 C 
HETATM    2  C3  UNL     1       1.748  -6.355 -28.768  1.00  0.00     0.034 C 
HETATM    3  C4  UNL     1       1.312  -7.537 -29.553  1.00  0.00     0.029 C 
HETATM    4  C5  UNL     1       2.008  -8.817 -29.235  1.00  0.00     0.232 C 
HETATM    5  N2  UNL     1       3.316  -8.925 -29.857  1.00  0.00    -0.071 N 
ATOM      6  H21 UNL     1       3.380  -8.422 -30.743  1.00  0.00     0.277 HD
ATOM      7  H22 UNL     1       3.511  -9.857 -30.220  1.00  0.00     0.277 HD
HETATM    8  C6  UNL     1       4.303  -8.476 -28.872  1.00  0.00     0.183 C 
HETATM    9  C7  UNL     1       5.706  -8.748 -29.371  1.00  0.00     0.040 C 
HETATM   10  C8  UNL     1       4.154  -6.990 -28.737  1.00  0.00     0.065 C 
ENDROOT
BRANCH   1  11
HETATM   11  N1  UNL     1       3.307  -5.367 -27.229  1.00  0.00    -0.075 N 
HETATM   12  C1  UNL     1       2.219  -4.793 -26.466  1.00  0.00     0.267 C 
ATOM     13  H12 UNL     1       3.673  -4.693 -27.901  1.00  0.00     0.277 HD
ATOM     14  H11 UNL     1       4.133  -5.489 -26.643  1.00  0.00     0.277 HD
ENDBRANCH   1  11
TORSDOF 1
ENDMDL
MODEL 5
REMARK VINA RESULT: -3.447376973      1.375      3.960
REMARK  1 active torsions:
REMARK  status: ('A' for Active; 'I' for Inactive)
REMARK    1  A    between atoms: N1_2  and  C2_5 
ROOT
HETATM    1  C2  UNL     1       2.135  -2.979 -22.678  1.00  0.00     0.187 C 
HETATM    2  C3  UNL     1       3.348  -2.691 -23.546  1.00  0.00     0.034 C 
HETATM    3  C4  UNL     1       3.195  -3.110 -24.962  1.00  0.00     0.029 C 
HETATM    4  C5  UNL     1       1.838  -3.585 -25.353  1.00  0.00     0.232 C 
HETATM    5  N2  UNL     1       1.575  -4.955 -24.951  1.00  0.00    -0.071 N 
ATOM      6  H21 UNL     1       2.416  -5.532 -24.923  1.00  0.00     0.277 HD
ATOM      7  H22 UNL     1       1.072  -5.490 -25.659  1.00  0.00     0.277 HD
HETATM    8  C6  UNL     1       0.873  -4.904 -23.667  1.00  0.00     0.183 C 
HETATM    9  C7  UNL     1       0.384  -6.283 -23.278  1.00  0.00     0.040 C 
HETATM   10  C8  UNL     1       1.869  -4.471 -22.632  1.00  0.00     0.065 C 
ENDROOT
BRANCH   1  11
HETATM   11  N1  UNL     1       2.439  -2.577 -21.323  1.00  0.00    -0.075 N 
HETATM   12  C1  UNL     1       2.934  -1.221 -21.222  1.00  0.00     0.267 C 
ATOM     13  H12 UNL     1       3.090  -3.232 -20.890  1.00  0.00     0.277 HD
ATOM     14  H11 UNL     1       1.631  -2.714 -20.716  1.00  0.00     0.277 HD
ENDBRANCH   1  11
TORSDOF 1
ENDMDL
