MODEL 1
REMARK VINA RESULT: -9.248914269      0.000      0.000
REMARK  12 active torsions:
REMARK  status: ('A' for Active; 'I' for Inactive)
REMARK    1  A    between atoms: C3_5  and  N2_6 
REMARK    2  A    between atoms: N2_6  and  C4_8 
REMARK    3  A    between atoms: C4_8  and  C5_9 
REMARK    4  A    between atoms: C5_9  and  C6_10 
REMARK    5  A    between atoms: C6_10  and  N3_11 
REMARK    6  A    between atoms: C9_14  and  C10_15 
REMARK    7  A    between atoms: C10_15  and  C11_16 
REMARK    8  A    between atoms: C11_16  and  C12_17 
REMARK    9  A    between atoms: C20_30  and  C21_31 
REMARK       I    between atoms: C21_31  and  N5_33 
REMARK   10  A    between atoms: N5_33  and  C22_35 
REMARK   11  A    between atoms: C22_35  and  C23_36 
REMARK   12  A    between atoms: C23_36  and  N6_37 
ROOT
HETATM    1  N2  UNL     1     -11.266  15.893  24.506  1.00  0.00    -0.370 N 
ATOM      2  H2  UNL     1     -11.652  16.646  25.075  1.00  0.00     0.161 HD
ENDROOT
BRANCH   1   3
HETATM    3  C3  UNL     1     -10.390  16.219  23.579  1.00  0.00     0.145 A 
HETATM    4  N1  UNL     1     -10.438  15.932  22.280  1.00  0.00    -0.339 N 
HETATM    5  C2  UNL     1      -9.481  16.346  21.489  1.00  0.00     0.030 A 
ATOM      6  H1  UNL     1     -11.217  15.392  21.904  1.00  0.00     0.168 HD
HETATM    7  C1  UNL     1      -9.501  16.040  19.994  1.00  0.00     0.070 C 
HETATM    8  C20 UNL     1      -8.457  17.068  22.032  1.00  0.00     0.098 A 
HETATM    9  S1  UNL     1      -8.952  17.106  23.715  1.00  0.00    -0.047 SA
BRANCH   8  10
HETATM   10  C21 UNL     1      -7.256  17.695  21.513  1.00  0.00     0.260 C 
HETATM   11  O3  UNL     1      -7.381  18.932  21.179  1.00  0.00    -0.267 OA
HETATM   12  N5  UNL     1      -5.992  17.147  21.334  1.00  0.00    -0.355 N 
ATOM     13  H5  UNL     1      -5.854  16.168  21.582  1.00  0.00     0.162 HD
BRANCH  12  14
HETATM   14  C22 UNL     1      -4.842  17.897  20.807  1.00  0.00     0.142 C 
BRANCH  14  15
HETATM   15  C23 UNL     1      -3.613  17.620  21.590  1.00  0.00     0.136 C 
BRANCH  15  16
HETATM   16  N6  UNL     1      -3.441  18.512  22.718  1.00  0.00    -0.407 N 
HETATM   17  C24 UNL     1      -3.759  19.865  22.444  1.00  0.00     0.143 C 
HETATM   18  C25 UNL     1      -4.850  20.441  23.295  1.00  0.00     0.187 C 
HETATM   19  O4  UNL     1      -4.812  19.996  24.607  1.00  0.00    -0.388 OA
HETATM   20  C26 UNL     1      -5.055  18.614  24.563  1.00  0.00     0.187 C 
HETATM   21  C27 UNL     1      -3.826  17.980  23.970  1.00  0.00     0.143 C 
ENDBRANCH  15  16
ENDBRANCH  14  15
ENDBRANCH  12  14
ENDBRANCH   8  10
ENDBRANCH   1   3
BRANCH   1  22
HETATM   22  C4  UNL     1     -11.718  14.569  24.775  1.00  0.00     0.123 C 
BRANCH  22  23
HETATM   23  C5  UNL     1     -11.876  14.294  26.201  1.00  0.00     0.040 C 
BRANCH  23  24
HETATM   24  C6  UNL     1     -10.762  13.824  27.040  1.00  0.00     0.135 C 
BRANCH  24  25
HETATM   25  N3  UNL     1      -9.740  14.764  27.397  1.00  0.00    -0.303 N 
HETATM   26  C7  UNL     1      -9.930  15.606  28.461  1.00  0.00     0.024 A 
HETATM   27  C8  UNL     1     -11.202  15.605  29.218  1.00  0.00     0.069 C 
HETATM   28  C9  UNL     1      -8.950  16.481  28.861  1.00  0.00     0.033 A 
HETATM   29  C18 UNL     1      -7.748  16.498  28.160  1.00  0.00     0.257 A 
HETATM   30  O1  UNL     1      -6.827  17.297  28.507  1.00  0.00    -0.267 OA
HETATM   31  N4  UNL     1      -7.622  15.656  27.133  1.00  0.00    -0.275 N 
HETATM   32  C19 UNL     1      -8.587  14.785  26.730  1.00  0.00     0.329 A 
ATOM     33  H4  UNL     1      -6.743  15.666  26.616  1.00  0.00     0.173 HD
HETATM   34  O2  UNL     1      -8.319  14.035  25.729  1.00  0.00    -0.246 OA
BRANCH  28  35
HETATM   35  C10 UNL     1      -9.077  17.455  29.991  1.00  0.00     0.046 C 
BRANCH  35  36
HETATM   36  C11 UNL     1      -8.307  17.010  31.189  1.00  0.00     0.009 C 
BRANCH  36  37
HETATM   37  C12 UNL     1      -9.203  16.232  32.119  1.00  0.00    -0.014 C 
HETATM   38  C13 UNL     1      -8.850  14.782  32.260  1.00  0.00     0.004 C 
HETATM   39  C14 UNL     1     -10.056  14.088  32.917  1.00  0.00     0.000 C 
HETATM   40  C15 UNL     1     -10.516  14.865  34.107  1.00  0.00     0.000 C 
HETATM   41  C16 UNL     1      -9.477  15.882  34.533  1.00  0.00     0.000 C 
HETATM   42  C17 UNL     1      -9.206  16.901  33.487  1.00  0.00     0.004 C 
ENDBRANCH  36  37
ENDBRANCH  35  36
ENDBRANCH  28  35
ENDBRANCH  24  25
ENDBRANCH  23  24
ENDBRANCH  22  23
ENDBRANCH   1  22
TORSDOF 12
ENDMDL
MODEL 2
REMARK VINA RESULT: -9.141833695      2.530      9.457
REMARK  12 active torsions:
REMARK  status: ('A' for Active; 'I' for Inactive)
REMARK    1  A    between atoms: C3_5  and  N2_6 
REMARK    2  A    between atoms: N2_6  and  C4_8 
REMARK    3  A    between atoms: C4_8  and  C5_9 
REMARK    4  A    between atoms: C5_9  and  C6_10 
REMARK    5  A    between atoms: C6_10  and  N3_11 
REMARK    6  A    between atoms: C9_14  and  C10_15 
REMARK    7  A    between atoms: C10_15  and  C11_16 
REMARK    8  A    between atoms: C11_16  and  C12_17 
REMARK    9  A    between atoms: C20_30  and  C21_31 
REMARK       I    between atoms: C21_31  and  N5_33 
REMARK   10  A    between atoms: N5_33  and  C22_35 
REMARK   11  A    between atoms: C22_35  and  C23_36 
REMARK   12  A    between atoms: C23_36  and  N6_37 
ROOT
HETATM    1  N2  UNL     1      -5.363  19.231  25.331  1.00  0.00    -0.370 N 
ATOM      2  H2  UNL     1      -5.175  20.142  25.749  1.00  0.00     0.161 HD
ENDROOT
BRANCH   1   3
HETATM    3  C3  UNL     1      -6.273  18.473  25.907  1.00  0.00     0.145 A 
HETATM    4  N1  UNL     1      -7.595  18.609  25.848  1.00  0.00    -0.339 N 
HETATM    5  C2  UNL     1      -8.363  17.754  26.475  1.00  0.00     0.030 A 
ATOM      6  H1  UNL     1      -8.009  19.374  25.316  1.00  0.00     0.168 HD
HETATM    7  C1  UNL     1      -9.883  17.872  26.430  1.00  0.00     0.070 C 
HETATM    8  C20 UNL     1      -7.770  16.742  27.175  1.00  0.00     0.098 A 
HETATM    9  S1  UNL     1      -6.078  17.098  26.877  1.00  0.00    -0.047 SA
BRANCH   8  10
HETATM   10  C21 UNL     1      -8.248  15.624  27.967  1.00  0.00     0.260 C 
HETATM   11  O3  UNL     1      -7.893  14.460  27.548  1.00  0.00    -0.267 OA
HETATM   12  N5  UNL     1      -9.030  15.639  29.115  1.00  0.00    -0.355 N 
ATOM     13  H5  UNL     1      -9.337  16.543  29.476  1.00  0.00     0.162 HD
BRANCH  12  14
HETATM   14  C22 UNL     1      -9.442  14.428  29.840  1.00  0.00     0.142 C 
BRANCH  14  15
HETATM   15  C23 UNL     1      -9.205  14.567  31.299  1.00  0.00     0.136 C 
BRANCH  15  16
HETATM   16  N6  UNL     1      -9.919  15.679  31.890  1.00  0.00    -0.407 N 
HETATM   17  C24 UNL     1     -11.207  15.349  32.381  1.00  0.00     0.143 C 
HETATM   18  C25 UNL     1     -11.406  15.599  33.845  1.00  0.00     0.187 C 
HETATM   19  O4  UNL     1     -10.772  16.747  34.295  1.00  0.00    -0.388 OA
HETATM   20  C26 UNL     1      -9.394  16.529  34.131  1.00  0.00     0.187 C 
HETATM   21  C27 UNL     1      -9.126  16.567  32.651  1.00  0.00     0.143 C 
ENDBRANCH  15  16
ENDBRANCH  14  15
ENDBRANCH  12  14
ENDBRANCH   8  10
ENDBRANCH   1   3
BRANCH   1  22
HETATM   22  C4  UNL     1      -4.619  18.876  24.169  1.00  0.00     0.123 C 
BRANCH  22  23
HETATM   23  C5  UNL     1      -4.393  20.001  23.265  1.00  0.00     0.040 C 
BRANCH  23  24
HETATM   24  C6  UNL     1      -4.937  20.032  21.897  1.00  0.00     0.135 C 
BRANCH  24  25
HETATM   25  N3  UNL     1      -4.895  18.825  21.125  1.00  0.00    -0.303 N 
HETATM   26  C7  UNL     1      -6.039  18.096  20.937  1.00  0.00     0.024 A 
HETATM   27  C8  UNL     1      -7.315  18.500  21.569  1.00  0.00     0.069 C 
HETATM   28  C9  UNL     1      -6.043  16.964  20.159  1.00  0.00     0.033 A 
HETATM   29  C18 UNL     1      -4.852  16.566  19.558  1.00  0.00     0.257 A 
HETATM   30  O1  UNL     1      -4.828  15.525  18.836  1.00  0.00    -0.267 OA
HETATM   31  N4  UNL     1      -3.771  17.316  19.778  1.00  0.00    -0.275 N 
HETATM   32  C19 UNL     1      -3.758  18.439  20.546  1.00  0.00     0.329 A 
ATOM     33  H4  UNL     1      -2.896  17.028  19.340  1.00  0.00     0.173 HD
HETATM   34  O2  UNL     1      -2.644  19.058  20.661  1.00  0.00    -0.246 OA
BRANCH  28  35
HETATM   35  C10 UNL     1      -7.235  16.090  19.919  1.00  0.00     0.046 C 
BRANCH  35  36
HETATM   36  C11 UNL     1      -7.174  14.841  20.734  1.00  0.00     0.009 C 
BRANCH  36  37
HETATM   37  C12 UNL     1      -8.231  14.874  21.808  1.00  0.00    -0.014 C 
HETATM   38  C13 UNL     1      -7.766  15.410  23.129  1.00  0.00     0.004 C 
HETATM   39  C14 UNL     1      -8.829  15.022  24.171  1.00  0.00     0.000 C 
HETATM   40  C15 UNL     1     -10.195  15.357  23.667  1.00  0.00     0.000 C 
HETATM   41  C16 UNL     1     -10.127  16.286  22.472  1.00  0.00     0.000 C 
HETATM   42  C17 UNL     1      -9.423  15.681  21.312  1.00  0.00     0.004 C 
ENDBRANCH  36  37
ENDBRANCH  35  36
ENDBRANCH  28  35
ENDBRANCH  24  25
ENDBRANCH  23  24
ENDBRANCH  22  23
ENDBRANCH   1  22
TORSDOF 12
ENDMDL
MODEL 3
REMARK VINA RESULT: -9.058534209      2.300      4.878
REMARK  12 active torsions:
REMARK  status: ('A' for Active; 'I' for Inactive)
REMARK    1  A    between atoms: C3_5  and  N2_6 
REMARK    2  A    between atoms: N2_6  and  C4_8 
REMARK    3  A    between atoms: C4_8  and  C5_9 
REMARK    4  A    between atoms: C5_9  and  C6_10 
REMARK    5  A    between atoms: C6_10  and  N3_11 
REMARK    6  A    between atoms: C9_14  and  C10_15 
REMARK    7  A    between atoms: C10_15  and  C11_16 
REMARK    8  A    between atoms: C11_16  and  C12_17 
REMARK    9  A    between atoms: C20_30  and  C21_31 
REMARK       I    between atoms: C21_31  and  N5_33 
REMARK   10  A    between atoms: N5_33  and  C22_35 
REMARK   11  A    between atoms: C22_35  and  C23_36 
REMARK   12  A    between atoms: C23_36  and  N6_37 
ROOT
HETATM    1  N2  UNL     1     -11.341  15.872  24.256  1.00  0.00    -0.370 N 
ATOM      2  H2  UNL     1     -11.787  16.610  24.801  1.00  0.00     0.161 HD
ENDROOT
BRANCH   1   3
HETATM    3  C3  UNL     1     -10.411  16.230  23.396  1.00  0.00     0.145 A 
HETATM    4  N1  UNL     1     -10.372  15.974  22.091  1.00  0.00    -0.339 N 
HETATM    5  C2  UNL     1      -9.371  16.417  21.373  1.00  0.00     0.030 A 
ATOM      6  H1  UNL     1     -11.118  15.435  21.651  1.00  0.00     0.168 HD
HETATM    7  C1  UNL     1      -9.290  16.147  19.874  1.00  0.00     0.070 C 
HETATM    8  C20 UNL     1      -8.393  17.136  21.998  1.00  0.00     0.098 A 
HETATM    9  S1  UNL     1      -8.995  17.128  23.646  1.00  0.00    -0.047 SA
BRANCH   8  10
HETATM   10  C21 UNL     1      -7.168  17.788  21.574  1.00  0.00     0.260 C 
HETATM   11  O3  UNL     1      -7.305  18.999  21.157  1.00  0.00    -0.267 OA
HETATM   12  N5  UNL     1      -5.872  17.288  21.561  1.00  0.00    -0.355 N 
ATOM     13  H5  UNL     1      -5.723  16.331  21.879  1.00  0.00     0.162 HD
BRANCH  12  14
HETATM   14  C22 UNL     1      -4.702  18.061  21.115  1.00  0.00     0.142 C 
BRANCH  14  15
HETATM   15  C23 UNL     1      -4.377  17.775  19.696  1.00  0.00     0.136 C 
BRANCH  15  16
HETATM   16  N6  UNL     1      -4.017  16.392  19.460  1.00  0.00    -0.407 N 
HETATM   17  C24 UNL     1      -4.533  15.854  18.255  1.00  0.00     0.143 C 
HETATM   18  C25 UNL     1      -3.497  15.358  17.292  1.00  0.00     0.187 C 
HETATM   19  O4  UNL     1      -2.423  14.743  17.915  1.00  0.00    -0.388 OA
HETATM   20  C26 UNL     1      -1.787  15.735  18.678  1.00  0.00     0.187 C 
HETATM   21  C27 UNL     1      -2.700  16.041  19.833  1.00  0.00     0.143 C 
ENDBRANCH  15  16
ENDBRANCH  14  15
ENDBRANCH  12  14
ENDBRANCH   8  10
ENDBRANCH   1   3
BRANCH   1  22
HETATM   22  C4  UNL     1     -11.774  14.534  24.483  1.00  0.00     0.123 C 
BRANCH  22  23
HETATM   23  C5  UNL     1     -12.182  14.289  25.865  1.00  0.00     0.040 C 
BRANCH  23  24
HETATM   24  C6  UNL     1     -11.259  13.740  26.872  1.00  0.00     0.135 C 
BRANCH  24  25
HETATM   25  N3  UNL     1     -10.656  14.648  27.803  1.00  0.00    -0.303 N 
HETATM   26  C7  UNL     1      -9.379  15.096  27.590  1.00  0.00     0.024 A 
HETATM   27  C8  UNL     1      -8.582  14.612  26.440  1.00  0.00     0.069 C 
HETATM   28  C9  UNL     1      -8.793  16.006  28.435  1.00  0.00     0.033 A 
HETATM   29  C18 UNL     1      -9.526  16.471  29.523  1.00  0.00     0.257 A 
HETATM   30  O1  UNL     1      -9.008  17.311  30.319  1.00  0.00    -0.267 OA
HETATM   31  N4  UNL     1     -10.763  15.999  29.679  1.00  0.00    -0.275 N 
HETATM   32  C19 UNL     1     -11.352  15.098  28.847  1.00  0.00     0.329 A 
ATOM     33  H4  UNL     1     -11.304  16.336  30.475  1.00  0.00     0.173 HD
HETATM   34  O2  UNL     1     -12.549  14.740  29.122  1.00  0.00    -0.246 OA
BRANCH  28  35
HETATM   35  C10 UNL     1      -7.397  16.530  28.297  1.00  0.00     0.046 C 
BRANCH  35  36
HETATM   36  C11 UNL     1      -7.370  17.845  27.593  1.00  0.00     0.009 C 
BRANCH  36  37
HETATM   37  C12 UNL     1      -6.344  17.819  26.490  1.00  0.00    -0.014 C 
HETATM   38  C13 UNL     1      -5.792  19.162  26.115  1.00  0.00     0.004 C 
HETATM   39  C14 UNL     1      -5.075  18.993  24.764  1.00  0.00     0.000 C 
HETATM   40  C15 UNL     1      -4.178  17.799  24.800  1.00  0.00     0.000 C 
HETATM   41  C16 UNL     1      -3.954  17.322  26.221  1.00  0.00     0.000 C 
HETATM   42  C17 UNL     1      -5.209  16.884  26.885  1.00  0.00     0.004 C 
ENDBRANCH  36  37
ENDBRANCH  35  36
ENDBRANCH  28  35
ENDBRANCH  24  25
ENDBRANCH  23  24
ENDBRANCH  22  23
ENDBRANCH   1  22
TORSDOF 12
ENDMDL
MODEL 4
REMARK VINA RESULT: -8.903330525      2.997      5.649
REMARK  12 active torsions:
REMARK  status: ('A' for Active; 'I' for Inactive)
REMARK    1  A    between atoms: C3_5  and  N2_6 
REMARK    2  A    between atoms: N2_6  and  C4_8 
REMARK    3  A    between atoms: C4_8  and  C5_9 
REMARK    4  A    between atoms: C5_9  and  C6_10 
REMARK    5  A    between atoms: C6_10  and  N3_11 
REMARK    6  A    between atoms: C9_14  and  C10_15 
REMARK    7  A    between atoms: C10_15  and  C11_16 
REMARK    8  A    between atoms: C11_16  and  C12_17 
REMARK    9  A    between atoms: C20_30  and  C21_31 
REMARK       I    between atoms: C21_31  and  N5_33 
REMARK   10  A    between atoms: N5_33  and  C22_35 
REMARK   11  A    between atoms: C22_35  and  C23_36 
REMARK   12  A    between atoms: C23_36  and  N6_37 
ROOT
HETATM    1  N2  UNL     1      -4.028  17.474  26.483  1.00  0.00    -0.370 N 
ATOM      2  H2  UNL     1      -3.036  17.618  26.669  1.00  0.00     0.161 HD
ENDROOT
BRANCH   1   3
HETATM    3  C3  UNL     1      -4.506  17.929  25.344  1.00  0.00     0.145 A 
HETATM    4  N1  UNL     1      -4.450  19.176  24.882  1.00  0.00    -0.339 N 
HETATM    5  C2  UNL     1      -4.970  19.458  23.714  1.00  0.00     0.030 A 
ATOM      6  H1  UNL     1      -4.004  19.908  25.434  1.00  0.00     0.168 HD
HETATM    7  C1  UNL     1      -4.923  20.874  23.147  1.00  0.00     0.070 C 
HETATM    8  C20 UNL     1      -5.555  18.449  23.004  1.00  0.00     0.098 A 
HETATM    9  S1  UNL     1      -5.316  17.104  24.105  1.00  0.00    -0.047 SA
BRANCH   8  10
HETATM   10  C21 UNL     1      -6.211  18.349  21.713  1.00  0.00     0.260 C 
HETATM   11  O3  UNL     1      -7.349  18.945  21.625  1.00  0.00    -0.267 OA
HETATM   12  N5  UNL     1      -5.778  17.704  20.562  1.00  0.00    -0.355 N 
ATOM     13  H5  UNL     1      -4.884  17.214  20.592  1.00  0.00     0.162 HD
BRANCH  12  14
HETATM   14  C22 UNL     1      -6.535  17.685  19.301  1.00  0.00     0.142 C 
BRANCH  14  15
HETATM   15  C23 UNL     1      -6.642  16.309  18.757  1.00  0.00     0.136 C 
BRANCH  15  16
HETATM   16  N6  UNL     1      -7.739  15.554  19.324  1.00  0.00    -0.407 N 
HETATM   17  C24 UNL     1      -7.444  14.941  20.567  1.00  0.00     0.143 C 
HETATM   18  C25 UNL     1      -8.321  15.368  21.705  1.00  0.00     0.187 C 
HETATM   19  O4  UNL     1      -9.641  15.566  21.334  1.00  0.00    -0.388 OA
HETATM   20  C26 UNL     1      -9.641  16.642  20.430  1.00  0.00     0.187 C 
HETATM   21  C27 UNL     1      -9.018  16.135  19.158  1.00  0.00     0.143 C 
ENDBRANCH  15  16
ENDBRANCH  14  15
ENDBRANCH  12  14
ENDBRANCH   8  10
ENDBRANCH   1   3
BRANCH   1  22
HETATM   22  C4  UNL     1      -4.791  16.796  27.477  1.00  0.00     0.123 C 
BRANCH  22  23
HETATM   23  C5  UNL     1      -5.622  17.693  28.276  1.00  0.00     0.040 C 
BRANCH  23  24
HETATM   24  C6  UNL     1      -7.076  17.506  28.412  1.00  0.00     0.135 C 
BRANCH  24  25
HETATM   25  N3  UNL     1      -7.860  17.399  27.217  1.00  0.00    -0.303 N 
HETATM   26  C7  UNL     1      -8.606  16.274  26.989  1.00  0.00     0.024 A 
HETATM   27  C8  UNL     1      -8.574  15.132  27.931  1.00  0.00     0.069 C 
HETATM   28  C9  UNL     1      -9.408  16.163  25.879  1.00  0.00     0.033 A 
HETATM   29  C18 UNL     1      -9.450  17.225  24.981  1.00  0.00     0.257 A 
HETATM   30  O1  UNL     1     -10.181  17.148  23.947  1.00  0.00    -0.267 OA
HETATM   31  N4  UNL     1      -8.701  18.293  25.255  1.00  0.00    -0.275 N 
HETATM   32  C19 UNL     1      -7.904  18.412  26.352  1.00  0.00     0.329 A 
ATOM     33  H4  UNL     1      -8.727  19.074  24.599  1.00  0.00     0.173 HD
HETATM   34  O2  UNL     1      -7.246  19.502  26.484  1.00  0.00    -0.246 OA
BRANCH  28  35
HETATM   35  C10 UNL     1     -10.236  14.964  25.534  1.00  0.00     0.046 C 
BRANCH  35  36
HETATM   36  C11 UNL     1     -11.687  15.207  25.784  1.00  0.00     0.009 C 
BRANCH  36  37
HETATM   37  C12 UNL     1     -12.145  14.411  26.978  1.00  0.00    -0.014 C 
HETATM   38  C13 UNL     1     -13.597  14.571  27.319  1.00  0.00     0.004 C 
HETATM   39  C14 UNL     1     -13.790  14.012  28.739  1.00  0.00     0.000 C 
HETATM   40  C15 UNL     1     -13.136  12.675  28.863  1.00  0.00     0.000 C 
HETATM   41  C16 UNL     1     -12.796  12.102  27.502  1.00  0.00     0.000 C 
HETATM   42  C17 UNL     1     -11.826  12.939  26.751  1.00  0.00     0.004 C 
ENDBRANCH  36  37
ENDBRANCH  35  36
ENDBRANCH  28  35
ENDBRANCH  24  25
ENDBRANCH  23  24
ENDBRANCH  22  23
ENDBRANCH   1  22
TORSDOF 12
ENDMDL
MODEL 5
REMARK VINA RESULT: -8.885950169      3.870     10.099
REMARK  12 active torsions:
REMARK  status: ('A' for Active; 'I' for Inactive)
REMARK    1  A    between atoms: C3_5  and  N2_6 
REMARK    2  A    between atoms: N2_6  and  C4_8 
REMARK    3  A    between atoms: C4_8  and  C5_9 
REMARK    4  A    between atoms: C5_9  and  C6_10 
REMARK    5  A    between atoms: C6_10  and  N3_11 
REMARK    6  A    between atoms: C9_14  and  C10_15 
REMARK    7  A    between atoms: C10_15  and  C11_16 
REMARK    8  A    between atoms: C11_16  and  C12_17 
REMARK    9  A    between atoms: C20_30  and  C21_31 
REMARK       I    between atoms: C21_31  and  N5_33 
REMARK   10  A    between atoms: N5_33  and  C22_35 
REMARK   11  A    between atoms: C22_35  and  C23_36 
REMARK   12  A    between atoms: C23_36  and  N6_37 
ROOT
HETATM    1  N2  UNL     1      -8.311  17.664  29.140  1.00  0.00    -0.370 N 
ATOM      2  H2  UNL     1      -8.779  18.274  28.470  1.00  0.00     0.161 HD
ENDROOT
BRANCH   1   3
HETATM    3  C3  UNL     1      -9.060  17.059  30.038  1.00  0.00     0.145 A 
HETATM    4  N1  UNL     1      -8.819  16.930  31.340  1.00  0.00    -0.339 N 
HETATM    5  C2  UNL     1      -9.681  16.303  32.099  1.00  0.00     0.030 A 
ATOM      6  H1  UNL     1      -7.967  17.318  31.745  1.00  0.00     0.168 HD
HETATM    7  C1  UNL     1      -9.444  16.136  33.597  1.00  0.00     0.070 C 
HETATM    8  C20 UNL     1     -10.811  15.800  31.520  1.00  0.00     0.098 A 
HETATM    9  S1  UNL     1     -10.552  16.276  29.851  1.00  0.00    -0.047 SA
BRANCH   8  10
HETATM   10  C21 UNL     1     -11.975  15.077  31.997  1.00  0.00     0.260 C 
HETATM   11  O3  UNL     1     -12.976  15.809  32.340  1.00  0.00    -0.267 OA
HETATM   12  N5  UNL     1     -12.157  13.706  32.129  1.00  0.00    -0.355 N 
ATOM     13  H5  UNL     1     -11.385  13.091  31.873  1.00  0.00     0.162 HD
BRANCH  12  14
HETATM   14  C22 UNL     1     -13.400  13.089  32.617  1.00  0.00     0.142 C 
BRANCH  14  15
HETATM   15  C23 UNL     1     -13.274  12.673  34.036  1.00  0.00     0.136 C 
BRANCH  15  16
HETATM   16  N6  UNL     1     -12.245  11.677  34.249  1.00  0.00    -0.407 N 
HETATM   17  C24 UNL     1     -11.484  11.868  35.429  1.00  0.00     0.143 C 
HETATM   18  C25 UNL     1     -11.537  10.731  36.404  1.00  0.00     0.187 C 
HETATM   19  O4  UNL     1     -11.555   9.488  35.793  1.00  0.00    -0.388 OA
HETATM   20  C26 UNL     1     -12.755   9.421  35.067  1.00  0.00     0.187 C 
HETATM   21  C27 UNL     1     -12.604  10.355  33.898  1.00  0.00     0.143 C 
ENDBRANCH  15  16
ENDBRANCH  14  15
ENDBRANCH  12  14
ENDBRANCH   8  10
ENDBRANCH   1   3
BRANCH   1  22
HETATM   22  C4  UNL     1      -6.896  17.533  29.032  1.00  0.00     0.123 C 
BRANCH  22  23
HETATM   23  C5  UNL     1      -6.401  17.746  27.674  1.00  0.00     0.040 C 
BRANCH  23  24
HETATM   24  C6  UNL     1      -6.346  16.663  26.678  1.00  0.00     0.135 C 
BRANCH  24  25
HETATM   25  N3  UNL     1      -7.411  16.566  25.724  1.00  0.00    -0.303 N 
HETATM   26  C7  UNL     1      -8.416  15.655  25.914  1.00  0.00     0.024 A 
HETATM   27  C8  UNL     1      -8.394  14.722  27.062  1.00  0.00     0.069 C 
HETATM   28  C9  UNL     1      -9.478  15.574  25.046  1.00  0.00     0.033 A 
HETATM   29  C18 UNL     1      -9.515  16.442  23.958  1.00  0.00     0.257 A 
HETATM   30  O1  UNL     1     -10.482  16.387  23.141  1.00  0.00    -0.267 OA
HETATM   31  N4  UNL     1      -8.508  17.305  23.825  1.00  0.00    -0.275 N 
HETATM   32  C19 UNL     1      -7.453  17.394  24.680  1.00  0.00     0.329 A 
ATOM     33  H4  UNL     1      -8.530  17.943  23.029  1.00  0.00     0.173 HD
HETATM   34  O2  UNL     1      -6.563  18.277  24.425  1.00  0.00    -0.246 OA
BRANCH  28  35
HETATM   35  C10 UNL     1     -10.605  14.595  25.157  1.00  0.00     0.046 C 
BRANCH  35  36
HETATM   36  C11 UNL     1     -11.792  15.198  25.831  1.00  0.00     0.009 C 
BRANCH  36  37
HETATM   37  C12 UNL     1     -12.218  14.338  26.994  1.00  0.00    -0.014 C 
HETATM   38  C13 UNL     1     -13.609  14.597  27.488  1.00  0.00     0.004 C 
HETATM   39  C14 UNL     1     -13.728  13.927  28.868  1.00  0.00     0.000 C 
HETATM   40  C15 UNL     1     -13.202  12.531  28.813  1.00  0.00     0.000 C 
HETATM   41  C16 UNL     1     -13.044  12.059  27.382  1.00  0.00     0.000 C 
HETATM   42  C17 UNL     1     -12.067  12.872  26.613  1.00  0.00     0.004 C 
ENDBRANCH  36  37
ENDBRANCH  35  36
ENDBRANCH  28  35
ENDBRANCH  24  25
ENDBRANCH  23  24
ENDBRANCH  22  23
ENDBRANCH   1  22
TORSDOF 12
ENDMDL
