MODEL 1
REMARK VINA RESULT: -9.176471334      0.000      0.000
REMARK  11 active torsions:
REMARK  status: ('A' for Active; 'I' for Inactive)
REMARK    1  A    between atoms: C2_2  and  N1_3 
REMARK    2  A    between atoms: N1_3  and  C3_4 
REMARK    3  A    between atoms: N1_3  and  C4_6 
REMARK    4  A    between atoms: C4_6  and  C5_7 
REMARK    5  A    between atoms: C5_7  and  N2_8 
REMARK       I    between atoms: N2_8  and  C6_10 
REMARK       I    between atoms: C6_10  and  N3_12 
REMARK    6  A    between atoms: N3_12  and  C7_14 
REMARK    7  A    between atoms: C7_14  and  C8_15 
REMARK    8  A    between atoms: C8_15  and  N4_16 
REMARK       I    between atoms: N4_16  and  C9_18 
REMARK    9  A    between atoms: C9_18  and  C10_20 
REMARK   10  A    between atoms: N6_24  and  C12_25 
REMARK   11  A    between atoms: C19_36  and  C20_37 
ROOT
HETATM    1  C10 UNL     1      -9.141  15.443  26.670  1.00  0.00     0.078 A 
HETATM    2  C11 UNL     1      -8.341  15.664  27.802  1.00  0.00     0.127 A 
HETATM    3  N5  UNL     1      -7.290  16.340  27.378  1.00  0.00    -0.302 N 
ATOM      4  H5  UNL     1      -6.522  16.652  27.973  1.00  0.00     0.186 HD
HETATM    5  N6  UNL     1      -7.373  16.560  26.048  1.00  0.00    -0.232 N 
HETATM    6  C19 UNL     1      -8.519  16.004  25.598  1.00  0.00     0.086 A 
ENDROOT
BRANCH   1   7
HETATM    7  C9  UNL     1     -10.443  14.841  26.829  1.00  0.00     0.255 C 
HETATM    8  N4  UNL     1     -11.597  15.558  27.146  1.00  0.00    -0.355 N 
ATOM      9  H4  UNL     1     -11.564  16.569  27.280  1.00  0.00     0.162 HD
HETATM   10  O3  UNL     1     -10.560  13.565  26.683  1.00  0.00    -0.268 OA
BRANCH   8  11
HETATM   11  C8  UNL     1     -12.863  14.821  27.280  1.00  0.00     0.142 C 
BRANCH  11  12
HETATM   12  C7  UNL     1     -13.196  14.543  28.704  1.00  0.00     0.144 C 
BRANCH  12  13
HETATM   13  N3  UNL     1     -12.163  13.843  29.417  1.00  0.00    -0.342 N 
HETATM   14  C6  UNL     1     -11.185  14.514  30.190  1.00  0.00     0.316 C 
HETATM   15  N2  UNL     1     -10.177  13.799  30.871  1.00  0.00    -0.342 N 
HETATM   16  O2  UNL     1     -11.221  15.755  30.267  1.00  0.00    -0.247 OA
ATOM     17  H2  UNL     1     -10.163  12.781  30.812  1.00  0.00     0.164 HD
ATOM     18  H3  UNL     1     -12.133  12.826  29.363  1.00  0.00     0.164 HD
BRANCH  15  19
HETATM   19  C5  UNL     1      -9.174  14.467  31.645  1.00  0.00     0.144 C 
BRANCH  19  20
HETATM   20  C4  UNL     1      -9.184  14.019  33.076  1.00  0.00     0.145 C 
BRANCH  20  21
HETATM   21  N1  UNL     1     -10.097  14.881  33.828  1.00  0.00    -0.358 N 
BRANCH  21  22
HETATM   22  C2  UNL     1     -11.391  14.353  34.194  1.00  0.00     0.120 C 
HETATM   23  C1  UNL     1     -11.252  12.876  34.547  1.00  0.00     0.026 C 
ENDBRANCH  21  22
BRANCH  21  24
HETATM   24  C3  UNL     1      -9.694  16.185  34.170  1.00  0.00     0.350 C 
HETATM   25  O1  UNL     1     -10.510  17.132  34.132  1.00  0.00    -0.284 OA
ENDBRANCH  21  24
ENDBRANCH  20  21
ENDBRANCH  19  20
ENDBRANCH  15  19
ENDBRANCH  12  13
ENDBRANCH  11  12
ENDBRANCH   8  11
ENDBRANCH   1   7
BRANCH   6  26
HETATM   26  C20 UNL     1      -8.907  15.868  24.191  1.00  0.00    -0.006 A 
HETATM   27  C21 UNL     1     -10.013  16.447  23.622  1.00  0.00     0.014 A 
HETATM   28  C22 UNL     1     -10.300  16.414  22.257  1.00  0.00     0.008 A 
HETATM   29  C23 UNL     1      -9.440  15.764  21.401  1.00  0.00    -0.056 A 
HETATM   30  C24 UNL     1      -9.683  15.686  19.936  1.00  0.00     0.049 C 
HETATM   31  C25 UNL     1      -8.325  15.172  21.947  1.00  0.00    -0.055 A 
HETATM   32  C26 UNL     1      -7.401  14.466  20.988  1.00  0.00     0.049 C 
HETATM   33  C27 UNL     1      -8.051  15.213  23.295  1.00  0.00     0.021 A 
ENDBRANCH   6  26
BRANCH   5  34
HETATM   34  C12 UNL     1      -6.367  17.238  25.300  1.00  0.00     0.171 A 
HETATM   35  N7  UNL     1      -6.441  18.463  24.799  1.00  0.00    -0.338 N 
HETATM   36  C13 UNL     1      -5.456  18.949  24.119  1.00  0.00     0.028 A 
ATOM     37  H7  UNL     1      -7.280  19.025  24.951  1.00  0.00     0.168 HD
HETATM   38  C14 UNL     1      -4.347  18.162  23.938  1.00  0.00     0.037 A 
HETATM   39  C18 UNL     1      -5.344  20.313  23.470  1.00  0.00     0.088 C 
HETATM   40  S1  UNL     1      -4.820  16.737  24.785  1.00  0.00    -0.053 SA
HETATM   41  C15 UNL     1      -3.197  18.698  23.156  1.00  0.00     0.320 C 
HETATM   42  N8  UNL     1      -3.743  19.233  21.923  1.00  0.00     0.089 N 
HETATM   43  C16 UNL     1      -4.273  18.074  21.188  1.00  0.00     0.310 C 
HETATM   44  C17 UNL     1      -4.816  20.149  22.089  1.00  0.00     0.278 C 
ENDBRANCH   5  34
TORSDOF 11
ENDMDL
MODEL 2
REMARK VINA RESULT: -9.004824173      0.851      1.321
REMARK  11 active torsions:
REMARK  status: ('A' for Active; 'I' for Inactive)
REMARK    1  A    between atoms: C2_2  and  N1_3 
REMARK    2  A    between atoms: N1_3  and  C3_4 
REMARK    3  A    between atoms: N1_3  and  C4_6 
REMARK    4  A    between atoms: C4_6  and  C5_7 
REMARK    5  A    between atoms: C5_7  and  N2_8 
REMARK       I    between atoms: N2_8  and  C6_10 
REMARK       I    between atoms: C6_10  and  N3_12 
REMARK    6  A    between atoms: N3_12  and  C7_14 
REMARK    7  A    between atoms: C7_14  and  C8_15 
REMARK    8  A    between atoms: C8_15  and  N4_16 
REMARK       I    between atoms: N4_16  and  C9_18 
REMARK    9  A    between atoms: C9_18  and  C10_20 
REMARK   10  A    between atoms: N6_24  and  C12_25 
REMARK   11  A    between atoms: C19_36  and  C20_37 
ROOT
HETATM    1  C10 UNL     1      -9.179  15.352  26.728  1.00  0.00     0.078 A 
HETATM    2  C11 UNL     1      -8.388  15.576  27.866  1.00  0.00     0.127 A 
HETATM    3  N5  UNL     1      -7.347  16.273  27.453  1.00  0.00    -0.302 N 
ATOM      4  H5  UNL     1      -6.587  16.593  28.055  1.00  0.00     0.186 HD
HETATM    5  N6  UNL     1      -7.426  16.503  26.125  1.00  0.00    -0.232 N 
HETATM    6  C19 UNL     1      -8.560  15.931  25.664  1.00  0.00     0.086 A 
ENDROOT
BRANCH   1   7
HETATM    7  C9  UNL     1     -10.471  14.727  26.876  1.00  0.00     0.255 C 
HETATM    8  N4  UNL     1     -11.676  15.429  26.897  1.00  0.00    -0.355 N 
ATOM      9  H4  UNL     1     -11.690  16.445  26.806  1.00  0.00     0.162 HD
HETATM   10  O3  UNL     1     -10.531  13.445  27.006  1.00  0.00    -0.268 OA
BRANCH   8  11
HETATM   11  C8  UNL     1     -12.926  14.670  27.054  1.00  0.00     0.142 C 
BRANCH  11  12
HETATM   12  C7  UNL     1     -13.478  14.787  28.431  1.00  0.00     0.144 C 
BRANCH  12  13
HETATM   13  N3  UNL     1     -12.830  13.938  29.392  1.00  0.00    -0.342 N 
HETATM   14  C6  UNL     1     -13.104  14.012  30.779  1.00  0.00     0.316 C 
HETATM   15  N2  UNL     1     -12.443  13.170  31.699  1.00  0.00    -0.342 N 
HETATM   16  O2  UNL     1     -13.942  14.836  31.187  1.00  0.00    -0.247 OA
ATOM     17  H2  UNL     1     -11.766  12.490  31.354  1.00  0.00     0.164 HD
ATOM     18  H3  UNL     1     -12.147  13.256  29.063  1.00  0.00     0.164 HD
BRANCH  15  19
HETATM   19  C5  UNL     1     -12.701  13.246  33.106  1.00  0.00     0.144 C 
BRANCH  19  20
HETATM   20  C4  UNL     1     -11.432  13.252  33.904  1.00  0.00     0.145 C 
BRANCH  20  21
HETATM   21  N1  UNL     1     -10.650  14.431  33.530  1.00  0.00    -0.358 N 
BRANCH  21  22
HETATM   22  C2  UNL     1      -9.285  14.240  33.101  1.00  0.00     0.120 C 
HETATM   23  C1  UNL     1      -9.205  14.401  31.586  1.00  0.00     0.026 C 
ENDBRANCH  21  22
BRANCH  21  24
HETATM   24  C3  UNL     1     -11.245  15.705  33.598  1.00  0.00     0.350 C 
HETATM   25  O1  UNL     1     -10.707  16.622  34.256  1.00  0.00    -0.284 OA
ENDBRANCH  21  24
ENDBRANCH  20  21
ENDBRANCH  19  20
ENDBRANCH  15  19
ENDBRANCH  12  13
ENDBRANCH  11  12
ENDBRANCH   8  11
ENDBRANCH   1   7
BRANCH   6  26
HETATM   26  C20 UNL     1      -8.939  15.800  24.254  1.00  0.00    -0.006 A 
HETATM   27  C21 UNL     1     -10.054  16.362  23.685  1.00  0.00     0.014 A 
HETATM   28  C22 UNL     1     -10.334  16.335  22.318  1.00  0.00     0.008 A 
HETATM   29  C23 UNL     1      -9.457  15.712  21.461  1.00  0.00    -0.056 A 
HETATM   30  C24 UNL     1      -9.691  15.643  19.994  1.00  0.00     0.049 C 
HETATM   31  C25 UNL     1      -8.331  15.139  22.006  1.00  0.00    -0.055 A 
HETATM   32  C26 UNL     1      -7.388  14.462  21.045  1.00  0.00     0.049 C 
HETATM   33  C27 UNL     1      -8.065  15.173  23.356  1.00  0.00     0.021 A 
ENDBRANCH   6  26
BRANCH   5  34
HETATM   34  C12 UNL     1      -6.428  17.204  25.387  1.00  0.00     0.171 A 
HETATM   35  N7  UNL     1      -6.532  18.419  24.869  1.00  0.00    -0.338 N 
HETATM   36  C13 UNL     1      -5.549  18.928  24.202  1.00  0.00     0.028 A 
ATOM     37  H7  UNL     1      -7.391  18.955  24.996  1.00  0.00     0.168 HD
HETATM   38  C14 UNL     1      -4.412  18.175  24.053  1.00  0.00     0.037 A 
HETATM   39  C18 UNL     1      -5.468  20.286  23.537  1.00  0.00     0.088 C 
HETATM   40  S1  UNL     1      -4.855  16.747  24.911  1.00  0.00    -0.053 SA
HETATM   41  C15 UNL     1      -3.264  18.739  23.287  1.00  0.00     0.320 C 
HETATM   42  N8  UNL     1      -3.802  19.239  22.037  1.00  0.00     0.089 N 
HETATM   43  C16 UNL     1      -4.279  18.054  21.308  1.00  0.00     0.310 C 
HETATM   44  C17 UNL     1      -4.907  20.122  22.168  1.00  0.00     0.278 C 
ENDBRANCH   5  34
TORSDOF 11
ENDMDL
MODEL 3
REMARK VINA RESULT: -8.988329465      1.089      1.566
REMARK  11 active torsions:
REMARK  status: ('A' for Active; 'I' for Inactive)
REMARK    1  A    between atoms: C2_2  and  N1_3 
REMARK    2  A    between atoms: N1_3  and  C3_4 
REMARK    3  A    between atoms: N1_3  and  C4_6 
REMARK    4  A    between atoms: C4_6  and  C5_7 
REMARK    5  A    between atoms: C5_7  and  N2_8 
REMARK       I    between atoms: N2_8  and  C6_10 
REMARK       I    between atoms: C6_10  and  N3_12 
REMARK    6  A    between atoms: N3_12  and  C7_14 
REMARK    7  A    between atoms: C7_14  and  C8_15 
REMARK    8  A    between atoms: C8_15  and  N4_16 
REMARK       I    between atoms: N4_16  and  C9_18 
REMARK    9  A    between atoms: C9_18  and  C10_20 
REMARK   10  A    between atoms: N6_24  and  C12_25 
REMARK   11  A    between atoms: C19_36  and  C20_37 
ROOT
HETATM    1  C10 UNL     1      -9.255  15.175  26.502  1.00  0.00     0.078 A 
HETATM    2  C11 UNL     1      -8.485  15.366  27.660  1.00  0.00     0.127 A 
HETATM    3  N5  UNL     1      -7.443  16.085  27.290  1.00  0.00    -0.302 N 
ATOM      4  H5  UNL     1      -6.696  16.390  27.914  1.00  0.00     0.186 HD
HETATM    5  N6  UNL     1      -7.502  16.361  25.969  1.00  0.00    -0.232 N 
HETATM    6  C19 UNL     1      -8.624  15.797  25.469  1.00  0.00     0.086 A 
ENDROOT
BRANCH   1   7
HETATM    7  C9  UNL     1     -10.544  14.535  26.606  1.00  0.00     0.255 C 
HETATM    8  N4  UNL     1     -11.717  15.202  26.962  1.00  0.00    -0.355 N 
ATOM      9  H4  UNL     1     -11.707  16.201  27.170  1.00  0.00     0.162 HD
HETATM   10  O3  UNL     1     -10.631  13.271  26.367  1.00  0.00    -0.268 OA
BRANCH   8  11
HETATM   11  C8  UNL     1     -12.966  14.430  27.032  1.00  0.00     0.142 C 
BRANCH  11  12
HETATM   12  C7  UNL     1     -13.562  14.458  28.396  1.00  0.00     0.144 C 
BRANCH  12  13
HETATM   13  N3  UNL     1     -12.710  15.048  29.391  1.00  0.00    -0.342 N 
HETATM   14  C6  UNL     1     -12.832  14.750  30.769  1.00  0.00     0.316 C 
HETATM   15  N2  UNL     1     -11.985  15.352  31.724  1.00  0.00    -0.342 N 
HETATM   16  O2  UNL     1     -13.702  13.941  31.139  1.00  0.00    -0.247 OA
ATOM     17  H2  UNL     1     -11.266  16.005  31.410  1.00  0.00     0.164 HD
ATOM     18  H3  UNL     1     -11.990  15.705  29.093  1.00  0.00     0.164 HD
BRANCH  15  19
HETATM   19  C5  UNL     1     -12.108  15.070  33.122  1.00  0.00     0.144 C 
BRANCH  19  20
HETATM   20  C4  UNL     1     -11.109  14.047  33.574  1.00  0.00     0.145 C 
BRANCH  20  21
HETATM   21  N1  UNL     1      -9.766  14.605  33.415  1.00  0.00    -0.358 N 
BRANCH  21  22
HETATM   22  C2  UNL     1      -9.399  15.745  34.223  1.00  0.00     0.120 C 
HETATM   23  C1  UNL     1      -8.949  16.884  33.314  1.00  0.00     0.026 C 
ENDBRANCH  21  22
BRANCH  21  24
HETATM   24  C3  UNL     1      -8.879  14.023  32.490  1.00  0.00     0.350 C 
HETATM   25  O1  UNL     1      -9.117  14.076  31.264  1.00  0.00    -0.284 OA
ENDBRANCH  21  24
ENDBRANCH  20  21
ENDBRANCH  19  20
ENDBRANCH  15  19
ENDBRANCH  12  13
ENDBRANCH  11  12
ENDBRANCH   8  11
ENDBRANCH   1   7
BRANCH   6  26
HETATM   26  C20 UNL     1      -8.979  15.713  24.049  1.00  0.00    -0.006 A 
HETATM   27  C21 UNL     1     -10.143  16.189  23.501  1.00  0.00     0.014 A 
HETATM   28  C22 UNL     1     -10.410  16.217  22.132  1.00  0.00     0.008 A 
HETATM   29  C23 UNL     1      -9.468  15.741  21.250  1.00  0.00    -0.056 A 
HETATM   30  C24 UNL     1      -9.684  15.736  19.779  1.00  0.00     0.049 C 
HETATM   31  C25 UNL     1      -8.292  15.256  21.774  1.00  0.00    -0.055 A 
HETATM   32  C26 UNL     1      -7.277  14.739  20.786  1.00  0.00     0.049 C 
HETATM   33  C27 UNL     1      -8.038  15.236  23.126  1.00  0.00     0.021 A 
ENDBRANCH   6  26
BRANCH   5  34
HETATM   34  C12 UNL     1      -6.498  17.096  25.273  1.00  0.00     0.171 A 
HETATM   35  N7  UNL     1      -6.630  18.295  24.725  1.00  0.00    -0.338 N 
HETATM   36  C13 UNL     1      -5.636  18.839  24.104  1.00  0.00     0.028 A 
ATOM     37  H7  UNL     1      -7.519  18.791  24.794  1.00  0.00     0.168 HD
HETATM   38  C14 UNL     1      -4.458  18.138  24.032  1.00  0.00     0.037 A 
HETATM   39  C18 UNL     1      -5.581  20.187  23.417  1.00  0.00     0.088 C 
HETATM   40  S1  UNL     1      -4.882  16.706  24.893  1.00  0.00    -0.053 SA
HETATM   41  C15 UNL     1      -3.298  18.742  23.319  1.00  0.00     0.320 C 
HETATM   42  N8  UNL     1      -3.787  19.195  22.031  1.00  0.00     0.089 N 
HETATM   43  C16 UNL     1      -4.167  17.975  21.301  1.00  0.00     0.310 C 
HETATM   44  C17 UNL     1      -4.938  20.026  22.084  1.00  0.00     0.278 C 
ENDBRANCH   5  34
TORSDOF 11
ENDMDL
MODEL 4
REMARK VINA RESULT: -8.939161621      1.057      1.416
REMARK  11 active torsions:
REMARK  status: ('A' for Active; 'I' for Inactive)
REMARK    1  A    between atoms: C2_2  and  N1_3 
REMARK    2  A    between atoms: N1_3  and  C3_4 
REMARK    3  A    between atoms: N1_3  and  C4_6 
REMARK    4  A    between atoms: C4_6  and  C5_7 
REMARK    5  A    between atoms: C5_7  and  N2_8 
REMARK       I    between atoms: N2_8  and  C6_10 
REMARK       I    between atoms: C6_10  and  N3_12 
REMARK    6  A    between atoms: N3_12  and  C7_14 
REMARK    7  A    between atoms: C7_14  and  C8_15 
REMARK    8  A    between atoms: C8_15  and  N4_16 
REMARK       I    between atoms: N4_16  and  C9_18 
REMARK    9  A    between atoms: C9_18  and  C10_20 
REMARK   10  A    between atoms: N6_24  and  C12_25 
REMARK   11  A    between atoms: C19_36  and  C20_37 
ROOT
HETATM    1  C10 UNL     1      -9.376  15.590  26.633  1.00  0.00     0.078 A 
HETATM    2  C11 UNL     1      -8.632  15.855  27.793  1.00  0.00     0.127 A 
HETATM    3  N5  UNL     1      -7.555  16.503  27.395  1.00  0.00    -0.302 N 
ATOM      4  H5  UNL     1      -6.815  16.836  28.014  1.00  0.00     0.186 HD
HETATM    5  N6  UNL     1      -7.567  16.664  26.054  1.00  0.00    -0.232 N 
HETATM    6  C19 UNL     1      -8.694  16.098  25.570  1.00  0.00     0.086 A 
ENDROOT
BRANCH   1   7
HETATM    7  C9  UNL     1     -10.690  15.006  26.752  1.00  0.00     0.255 C 
HETATM    8  N4  UNL     1     -10.949  13.642  26.614  1.00  0.00    -0.355 N 
ATOM      9  H4  UNL     1     -10.195  12.984  26.418  1.00  0.00     0.162 HD
HETATM   10  O3  UNL     1     -11.695  15.778  26.989  1.00  0.00    -0.268 OA
BRANCH   8  11
HETATM   11  C8  UNL     1     -12.337  13.176  26.757  1.00  0.00     0.142 C 
BRANCH  11  12
HETATM   12  C7  UNL     1     -12.527  12.370  27.994  1.00  0.00     0.144 C 
BRANCH  12  13
HETATM   13  N3  UNL     1     -13.250  13.055  29.030  1.00  0.00    -0.342 N 
HETATM   14  C6  UNL     1     -12.612  13.888  29.978  1.00  0.00     0.316 C 
HETATM   15  N2  UNL     1     -13.349  14.541  30.989  1.00  0.00    -0.342 N 
HETATM   16  O2  UNL     1     -11.379  14.046  29.913  1.00  0.00    -0.247 OA
ATOM     17  H2  UNL     1     -14.361  14.416  31.027  1.00  0.00     0.164 HD
ATOM     18  H3  UNL     1     -14.262  12.936  29.083  1.00  0.00     0.164 HD
BRANCH  15  19
HETATM   19  C5  UNL     1     -12.712  15.376  31.964  1.00  0.00     0.144 C 
BRANCH  19  20
HETATM   20  C4  UNL     1     -12.153  14.575  33.102  1.00  0.00     0.145 C 
BRANCH  20  21
HETATM   21  N1  UNL     1     -10.740  14.917  33.262  1.00  0.00    -0.358 N 
BRANCH  21  22
HETATM   22  C2  UNL     1      -9.799  13.847  33.498  1.00  0.00     0.120 C 
HETATM   23  C1  UNL     1      -8.769  13.824  32.373  1.00  0.00     0.026 C 
ENDBRANCH  21  22
BRANCH  21  24
HETATM   24  C3  UNL     1     -10.341  16.264  33.184  1.00  0.00     0.350 C 
HETATM   25  O1  UNL     1     -10.477  17.024  34.168  1.00  0.00    -0.284 OA
ENDBRANCH  21  24
ENDBRANCH  20  21
ENDBRANCH  19  20
ENDBRANCH  15  19
ENDBRANCH  12  13
ENDBRANCH  11  12
ENDBRANCH   8  11
ENDBRANCH   1   7
BRANCH   6  26
HETATM   26  C20 UNL     1      -9.012  15.902  24.153  1.00  0.00    -0.006 A 
HETATM   27  C21 UNL     1     -10.085  16.459  23.505  1.00  0.00     0.014 A 
HETATM   28  C22 UNL     1     -10.304  16.368  22.130  1.00  0.00     0.008 A 
HETATM   29  C23 UNL     1      -9.405  15.680  21.347  1.00  0.00    -0.056 A 
HETATM   30  C24 UNL     1      -9.574  15.540  19.876  1.00  0.00     0.049 C 
HETATM   31  C25 UNL     1      -8.320  15.111  21.972  1.00  0.00    -0.055 A 
HETATM   32  C26 UNL     1      -7.351  14.363  21.092  1.00  0.00     0.049 C 
HETATM   33  C27 UNL     1      -8.114  15.209  23.330  1.00  0.00     0.021 A 
ENDBRANCH   6  26
BRANCH   5  34
HETATM   34  C12 UNL     1      -6.518  17.301  25.329  1.00  0.00     0.171 A 
HETATM   35  N7  UNL     1      -6.538  18.521  24.812  1.00  0.00    -0.338 N 
HETATM   36  C13 UNL     1      -5.517  18.967  24.157  1.00  0.00     0.028 A 
ATOM     37  H7  UNL     1      -7.363  19.110  24.930  1.00  0.00     0.168 HD
HETATM   38  C14 UNL     1      -4.429  18.143  24.020  1.00  0.00     0.037 A 
HETATM   39  C18 UNL     1      -5.342  20.318  23.495  1.00  0.00     0.088 C 
HETATM   40  S1  UNL     1      -4.972  16.745  24.869  1.00  0.00    -0.053 SA
HETATM   41  C15 UNL     1      -3.239  18.633  23.268  1.00  0.00     0.320 C 
HETATM   42  N8  UNL     1      -3.729  19.168  22.012  1.00  0.00     0.089 N 
HETATM   43  C16 UNL     1      -4.272  18.017  21.275  1.00  0.00     0.310 C 
HETATM   44  C17 UNL     1      -4.777  20.120  22.133  1.00  0.00     0.278 C 
ENDBRANCH   5  34
TORSDOF 11
ENDMDL
MODEL 5
REMARK VINA RESULT: -8.890679389      0.752      1.142
REMARK  11 active torsions:
REMARK  status: ('A' for Active; 'I' for Inactive)
REMARK    1  A    between atoms: C2_2  and  N1_3 
REMARK    2  A    between atoms: N1_3  and  C3_4 
REMARK    3  A    between atoms: N1_3  and  C4_6 
REMARK    4  A    between atoms: C4_6  and  C5_7 
REMARK    5  A    between atoms: C5_7  and  N2_8 
REMARK       I    between atoms: N2_8  and  C6_10 
REMARK       I    between atoms: C6_10  and  N3_12 
REMARK    6  A    between atoms: N3_12  and  C7_14 
REMARK    7  A    between atoms: C7_14  and  C8_15 
REMARK    8  A    between atoms: C8_15  and  N4_16 
REMARK       I    between atoms: N4_16  and  C9_18 
REMARK    9  A    between atoms: C9_18  and  C10_20 
REMARK   10  A    between atoms: N6_24  and  C12_25 
REMARK   11  A    between atoms: C19_36  and  C20_37 
ROOT
HETATM    1  C10 UNL     1      -9.026  15.348  26.545  1.00  0.00     0.078 A 
HETATM    2  C11 UNL     1      -8.210  15.542  27.670  1.00  0.00     0.127 A 
HETATM    3  N5  UNL     1      -7.171  16.237  27.249  1.00  0.00    -0.302 N 
ATOM      4  H5  UNL     1      -6.396  16.539  27.841  1.00  0.00     0.186 HD
HETATM    5  N6  UNL     1      -7.276  16.495  25.928  1.00  0.00    -0.232 N 
HETATM    6  C19 UNL     1      -8.425  15.943  25.479  1.00  0.00     0.086 A 
ENDROOT
BRANCH   1   7
HETATM    7  C9  UNL     1     -10.321  14.731  26.707  1.00  0.00     0.255 C 
HETATM    8  N4  UNL     1     -11.509  15.447  26.860  1.00  0.00    -0.355 N 
ATOM      9  H4  UNL     1     -11.508  16.467  26.863  1.00  0.00     0.162 HD
HETATM   10  O3  UNL     1     -10.399  13.444  26.723  1.00  0.00    -0.268 OA
BRANCH   8  11
HETATM   11  C8  UNL     1     -12.763  14.695  27.017  1.00  0.00     0.142 C 
BRANCH  11  12
HETATM   12  C7  UNL     1     -13.221  14.668  28.433  1.00  0.00     0.144 C 
BRANCH  12  13
HETATM   13  N3  UNL     1     -12.354  13.932  29.311  1.00  0.00    -0.342 N 
HETATM   14  C6  UNL     1     -11.327  14.554  30.060  1.00  0.00     0.316 C 
HETATM   15  N2  UNL     1     -10.485  13.802  30.908  1.00  0.00    -0.342 N 
HETATM   16  O2  UNL     1     -11.169  15.785  29.967  1.00  0.00    -0.247 OA
ATOM     17  H2  UNL     1     -10.629  12.796  30.987  1.00  0.00     0.164 HD
ATOM     18  H3  UNL     1     -12.483  12.925  29.397  1.00  0.00     0.164 HD
BRANCH  15  19
HETATM   19  C5  UNL     1      -9.433  14.418  31.660  1.00  0.00     0.144 C 
BRANCH  19  20
HETATM   20  C4  UNL     1      -9.528  14.090  33.120  1.00  0.00     0.145 C 
BRANCH  20  21
HETATM   21  N1  UNL     1     -10.668  14.811  33.687  1.00  0.00    -0.358 N 
BRANCH  21  22
HETATM   22  C2  UNL     1     -10.579  16.247  33.808  1.00  0.00     0.120 C 
HETATM   23  C1  UNL     1      -9.207  16.623  34.358  1.00  0.00     0.026 C 
ENDBRANCH  21  22
BRANCH  21  24
HETATM   24  C3  UNL     1     -11.808  14.093  34.094  1.00  0.00     0.350 C 
HETATM   25  O1  UNL     1     -12.621  13.660  33.248  1.00  0.00    -0.284 OA
ENDBRANCH  21  24
ENDBRANCH  20  21
ENDBRANCH  19  20
ENDBRANCH  15  19
ENDBRANCH  12  13
ENDBRANCH  11  12
ENDBRANCH   8  11
ENDBRANCH   1   7
BRANCH   6  26
HETATM   26  C20 UNL     1      -8.835  15.845  24.075  1.00  0.00    -0.006 A 
HETATM   27  C21 UNL     1     -10.018  16.317  23.568  1.00  0.00     0.014 A 
HETATM   28  C22 UNL     1     -10.339  16.330  22.210  1.00  0.00     0.008 A 
HETATM   29  C23 UNL     1      -9.432  15.842  21.297  1.00  0.00    -0.056 A 
HETATM   30  C24 UNL     1      -9.706  15.823  19.836  1.00  0.00     0.049 C 
HETATM   31  C25 UNL     1      -8.237  15.361  21.780  1.00  0.00    -0.055 A 
HETATM   32  C26 UNL     1      -7.263  14.832  20.759  1.00  0.00     0.049 C 
HETATM   33  C27 UNL     1      -7.932  15.355  23.122  1.00  0.00     0.021 A 
ENDBRANCH   6  26
BRANCH   5  34
HETATM   34  C12 UNL     1      -6.287  17.202  25.184  1.00  0.00     0.171 A 
HETATM   35  N7  UNL     1      -6.415  18.401  24.634  1.00  0.00    -0.338 N 
HETATM   36  C13 UNL     1      -5.438  18.918  23.965  1.00  0.00     0.028 A 
ATOM     37  H7  UNL     1      -7.289  18.918  24.738  1.00  0.00     0.168 HD
HETATM   38  C14 UNL     1      -4.281  18.190  23.847  1.00  0.00     0.037 A 
HETATM   39  C18 UNL     1      -5.383  20.261  23.267  1.00  0.00     0.088 C 
HETATM   40  S1  UNL     1      -4.698  16.773  24.735  1.00  0.00    -0.053 SA
HETATM   41  C15 UNL     1      -3.139  18.762  23.079  1.00  0.00     0.320 C 
HETATM   42  N8  UNL     1      -3.674  19.218  21.811  1.00  0.00     0.089 N 
HETATM   43  C16 UNL     1      -4.114  18.004  21.107  1.00  0.00     0.310 C 
HETATM   44  C17 UNL     1      -4.803  20.077  21.909  1.00  0.00     0.278 C 
ENDBRANCH   5  34
TORSDOF 11
ENDMDL
