MODEL 1
REMARK VINA RESULT: -9.944057945      0.000      0.000
REMARK  11 active torsions:
REMARK  status: ('A' for Active; 'I' for Inactive)
REMARK    1  A    between atoms: C3_7  and  N3_8 
REMARK       I    between atoms: N4_11  and  C6_12 
REMARK    2  A    between atoms: C6_12  and  C7_14 
REMARK    3  A    between atoms: C7_14  and  C8_15 
REMARK    4  A    between atoms: C7_14  and  N5_22 
REMARK    5  A    between atoms: C8_15  and  C9_16 
REMARK       I    between atoms: N5_22  and  C15_24 
REMARK    6  A    between atoms: C15_24  and  C16_26 
REMARK    7  A    between atoms: C16_26  and  N6_27 
REMARK       I    between atoms: N6_27  and  C17_29 
REMARK    8  A    between atoms: C17_29  and  C18_31 
REMARK    9  A    between atoms: C19_32  and  C20_33 
REMARK   10  A    between atoms: C20_33  and  N7_34 
REMARK   11  A    between atoms: N7_34  and  C21_36 
ROOT
HETATM    1  C7  UNL     1     -10.490  15.225  25.196  1.00  0.00     0.177 C 
ENDROOT
BRANCH   1   2
HETATM    2  C6  UNL     1      -9.238  15.117  25.941  1.00  0.00     0.242 C 
HETATM    3  N4  UNL     1      -8.530  16.194  26.554  1.00  0.00    -0.347 N 
HETATM    4  C5  UNL     1      -7.315  15.874  27.331  1.00  0.00     0.145 C 
HETATM    5  C26 UNL     1      -8.903  17.568  26.457  1.00  0.00     0.145 C 
HETATM    6  C4  UNL     1      -6.132  16.559  26.670  1.00  0.00     0.145 C 
HETATM    7  N3  UNL     1      -6.542  17.787  26.023  1.00  0.00    -0.357 N 
HETATM    8  C27 UNL     1      -7.703  18.477  26.487  1.00  0.00     0.145 C 
HETATM    9  O1  UNL     1      -8.683  13.955  26.078  1.00  0.00    -0.271 OA
BRANCH   7  10
HETATM   10  C3  UNL     1      -5.790  18.317  24.938  1.00  0.00     0.163 A 
HETATM   11  N2  UNL     1      -6.143  19.340  24.161  1.00  0.00    -0.279 N 
HETATM   12  N1  UNL     1      -5.379  19.717  23.230  1.00  0.00    -0.296 N 
ATOM     13  H2  UNL     1      -7.031  19.818  24.318  1.00  0.00     0.189 HD
HETATM   14  C2  UNL     1      -4.217  19.094  23.021  1.00  0.00     0.066 A 
ATOM     15  H1  UNL     1      -5.650  20.501  22.636  1.00  0.00     0.187 HD
HETATM   16  C1  UNL     1      -3.162  19.384  21.978  1.00  0.00     0.078 C 
HETATM   17  S1  UNL     1      -4.272  17.901  24.255  1.00  0.00    -0.038 SA
ENDBRANCH   7  10
ENDBRANCH   1   2
BRANCH   1  18
HETATM   18  C8  UNL     1     -10.487  16.101  23.985  1.00  0.00     0.039 C 
BRANCH  18  19
HETATM   19  C9  UNL     1      -9.782  15.673  22.777  1.00  0.00    -0.012 C 
HETATM   20  C10 UNL     1     -10.397  15.953  21.443  1.00  0.00     0.005 C 
HETATM   21  C11 UNL     1      -9.287  15.688  20.405  1.00  0.00     0.000 C 
HETATM   22  C12 UNL     1      -8.378  16.898  20.346  1.00  0.00     0.000 C 
HETATM   23  C13 UNL     1      -8.420  17.525  21.740  1.00  0.00     0.000 C 
HETATM   24  C14 UNL     1      -8.433  16.417  22.763  1.00  0.00     0.005 C 
ENDBRANCH  18  19
ENDBRANCH   1  18
BRANCH   1  25
HETATM   25  N5  UNL     1     -11.602  15.582  26.093  1.00  0.00    -0.346 N 
HETATM   26  C15 UNL     1     -12.494  14.610  26.590  1.00  0.00     0.236 C 
HETATM   27  O2  UNL     1     -12.323  13.422  26.231  1.00  0.00    -0.272 OA
ATOM     28  H5  UNL     1     -11.731  16.558  26.360  1.00  0.00     0.163 HD
BRANCH  26  29
HETATM   29  C16 UNL     1     -13.597  14.934  27.502  1.00  0.00     0.225 C 
BRANCH  29  30
HETATM   30  N6  UNL     1     -13.220  15.097  28.883  1.00  0.00    -0.349 N 
HETATM   31  C17 UNL     1     -13.702  14.271  29.912  1.00  0.00     0.241 C 
HETATM   32  O3  UNL     1     -14.517  13.325  29.622  1.00  0.00    -0.269 OA
ATOM     33  H6  UNL     1     -12.572  15.847  29.124  1.00  0.00     0.163 HD
BRANCH  31  34
HETATM   34  C18 UNL     1     -13.332  14.414  31.309  1.00  0.00     0.075 C 
HETATM   35  C19 UNL     1     -13.004  13.392  32.034  1.00  0.00     0.022 C 
BRANCH  35  36
HETATM   36  C20 UNL     1     -12.624  13.447  33.440  1.00  0.00     0.083 C 
BRANCH  36  37
HETATM   37  N7  UNL     1     -11.303  13.225  33.746  1.00  0.00    -0.394 N 
ATOM     38  H7  UNL     1     -11.036  12.252  33.897  1.00  0.00     0.159 HD
BRANCH  37  39
HETATM   39  C21 UNL     1     -10.296  14.153  33.873  1.00  0.00     0.081 C 
HETATM   40  C22 UNL     1     -10.944  15.546  34.117  1.00  0.00     0.025 C 
HETATM   41  C23 UNL     1      -9.879  16.563  33.895  1.00  0.00     0.002 C 
HETATM   42  C24 UNL     1      -8.769  15.847  33.191  1.00  0.00     0.002 C 
HETATM   43  C25 UNL     1      -9.372  14.504  32.746  1.00  0.00     0.025 C 
ENDBRANCH  37  39
ENDBRANCH  36  37
ENDBRANCH  35  36
ENDBRANCH  31  34
ENDBRANCH  29  30
ENDBRANCH  26  29
ENDBRANCH   1  25
TORSDOF 11
ENDMDL
MODEL 2
REMARK VINA RESULT: -9.788563646      2.891      9.171
REMARK  11 active torsions:
REMARK  status: ('A' for Active; 'I' for Inactive)
REMARK    1  A    between atoms: C3_7  and  N3_8 
REMARK       I    between atoms: N4_11  and  C6_12 
REMARK    2  A    between atoms: C6_12  and  C7_14 
REMARK    3  A    between atoms: C7_14  and  C8_15 
REMARK    4  A    between atoms: C7_14  and  N5_22 
REMARK    5  A    between atoms: C8_15  and  C9_16 
REMARK       I    between atoms: N5_22  and  C15_24 
REMARK    6  A    between atoms: C15_24  and  C16_26 
REMARK    7  A    between atoms: C16_26  and  N6_27 
REMARK       I    between atoms: N6_27  and  C17_29 
REMARK    8  A    between atoms: C17_29  and  C18_31 
REMARK    9  A    between atoms: C19_32  and  C20_33 
REMARK   10  A    between atoms: C20_33  and  N7_34 
REMARK   11  A    between atoms: N7_34  and  C21_36 
ROOT
HETATM    1  C7  UNL     1     -11.185  15.308  26.051  1.00  0.00     0.177 C 
ENDROOT
BRANCH   1   2
HETATM    2  C6  UNL     1     -11.651  14.014  26.542  1.00  0.00     0.242 C 
HETATM    3  N4  UNL     1     -12.855  13.776  27.272  1.00  0.00    -0.347 N 
HETATM    4  C5  UNL     1     -13.192  12.380  27.619  1.00  0.00     0.145 C 
HETATM    5  C26 UNL     1     -13.751  14.796  27.709  1.00  0.00     0.145 C 
HETATM    6  C4  UNL     1     -13.222  12.259  29.132  1.00  0.00     0.145 C 
HETATM    7  N3  UNL     1     -13.627  13.508  29.743  1.00  0.00    -0.357 N 
HETATM    8  C27 UNL     1     -14.428  14.430  29.003  1.00  0.00     0.145 C 
HETATM    9  O1  UNL     1     -10.934  12.959  26.320  1.00  0.00    -0.271 OA
BRANCH   7  10
HETATM   10  C3  UNL     1     -13.242  13.817  31.076  1.00  0.00     0.163 A 
HETATM   11  N2  UNL     1     -12.788  14.991  31.513  1.00  0.00    -0.279 N 
HETATM   12  N1  UNL     1     -12.484  15.137  32.729  1.00  0.00    -0.296 N 
ATOM     13  H2  UNL     1     -12.685  15.772  30.864  1.00  0.00     0.189 HD
HETATM   14  C2  UNL     1     -12.616  14.117  33.581  1.00  0.00     0.066 A 
ATOM     15  H1  UNL     1     -12.137  16.037  33.062  1.00  0.00     0.187 HD
HETATM   16  C1  UNL     1     -12.320  14.078  35.063  1.00  0.00     0.078 C 
HETATM   17  S1  UNL     1     -13.210  12.899  32.526  1.00  0.00    -0.038 SA
ENDBRANCH   7  10
ENDBRANCH   1   2
BRANCH   1  18
HETATM   18  C8  UNL     1     -11.031  15.458  24.572  1.00  0.00     0.039 C 
BRANCH  18  19
HETATM   19  C9  UNL     1      -9.747  15.883  24.013  1.00  0.00    -0.012 C 
HETATM   20  C10 UNL     1      -8.619  14.902  23.964  1.00  0.00     0.005 C 
HETATM   21  C11 UNL     1      -7.553  15.534  23.045  1.00  0.00     0.000 C 
HETATM   22  C12 UNL     1      -7.950  15.293  21.604  1.00  0.00     0.000 C 
HETATM   23  C13 UNL     1      -9.478  15.228  21.592  1.00  0.00     0.000 C 
HETATM   24  C14 UNL     1     -10.008  16.270  22.544  1.00  0.00     0.005 C 
ENDBRANCH  18  19
ENDBRANCH   1  18
BRANCH   1  25
HETATM   25  N5  UNL     1      -9.954  15.719  26.746  1.00  0.00    -0.346 N 
HETATM   26  C15 UNL     1      -9.940  16.799  27.653  1.00  0.00     0.236 C 
HETATM   27  O2  UNL     1     -11.013  17.418  27.840  1.00  0.00    -0.272 OA
ATOM     28  H5  UNL     1      -9.089  15.210  26.566  1.00  0.00     0.163 HD
BRANCH  26  29
HETATM   29  C16 UNL     1      -8.733  17.215  28.376  1.00  0.00     0.225 C 
BRANCH  29  30
HETATM   30  N6  UNL     1      -7.745  17.894  27.576  1.00  0.00    -0.349 N 
HETATM   31  C17 UNL     1      -6.766  17.217  26.831  1.00  0.00     0.241 C 
HETATM   32  O3  UNL     1      -6.738  15.936  26.855  1.00  0.00    -0.269 OA
ATOM     33  H6  UNL     1      -7.758  18.913  27.551  1.00  0.00     0.163 HD
BRANCH  31  34
HETATM   34  C18 UNL     1      -5.764  17.881  26.015  1.00  0.00     0.075 C 
HETATM   35  C19 UNL     1      -6.049  18.924  25.302  1.00  0.00     0.022 C 
BRANCH  35  36
HETATM   36  C20 UNL     1      -5.107  19.646  24.456  1.00  0.00     0.083 C 
BRANCH  36  37
HETATM   37  N7  UNL     1      -5.563  20.084  23.235  1.00  0.00    -0.394 N 
ATOM     38  H7  UNL     1      -6.147  20.919  23.250  1.00  0.00     0.159 HD
BRANCH  37  39
HETATM   39  C21 UNL     1      -5.328  19.533  21.997  1.00  0.00     0.081 C 
HETATM   40  C22 UNL     1      -6.654  18.906  21.481  1.00  0.00     0.025 C 
HETATM   41  C23 UNL     1      -6.298  18.024  20.335  1.00  0.00     0.002 C 
HETATM   42  C24 UNL     1      -4.815  17.839  20.406  1.00  0.00     0.002 C 
HETATM   43  C25 UNL     1      -4.407  18.369  21.791  1.00  0.00     0.025 C 
ENDBRANCH  37  39
ENDBRANCH  36  37
ENDBRANCH  35  36
ENDBRANCH  31  34
ENDBRANCH  29  30
ENDBRANCH  26  29
ENDBRANCH   1  25
TORSDOF 11
ENDMDL
MODEL 3
REMARK VINA RESULT: -9.631674306      2.321      5.262
REMARK  11 active torsions:
REMARK  status: ('A' for Active; 'I' for Inactive)
REMARK    1  A    between atoms: C3_7  and  N3_8 
REMARK       I    between atoms: N4_11  and  C6_12 
REMARK    2  A    between atoms: C6_12  and  C7_14 
REMARK    3  A    between atoms: C7_14  and  C8_15 
REMARK    4  A    between atoms: C7_14  and  N5_22 
REMARK    5  A    between atoms: C8_15  and  C9_16 
REMARK       I    between atoms: N5_22  and  C15_24 
REMARK    6  A    between atoms: C15_24  and  C16_26 
REMARK    7  A    between atoms: C16_26  and  N6_27 
REMARK       I    between atoms: N6_27  and  C17_29 
REMARK    8  A    between atoms: C17_29  and  C18_31 
REMARK    9  A    between atoms: C19_32  and  C20_33 
REMARK   10  A    between atoms: C20_33  and  N7_34 
REMARK   11  A    between atoms: N7_34  and  C21_36 
ROOT
HETATM    1  C7  UNL     1      -7.971  17.304  27.255  1.00  0.00     0.177 C 
ENDROOT
BRANCH   1   2
HETATM    2  C6  UNL     1      -6.554  17.070  26.991  1.00  0.00     0.242 C 
HETATM    3  N4  UNL     1      -5.673  17.952  26.294  1.00  0.00    -0.347 N 
HETATM    4  C5  UNL     1      -4.249  17.574  26.193  1.00  0.00     0.145 C 
HETATM    5  C26 UNL     1      -6.074  19.171  25.672  1.00  0.00     0.145 C 
HETATM    6  C4  UNL     1      -3.906  17.399  24.724  1.00  0.00     0.145 C 
HETATM    7  N3  UNL     1      -4.712  18.273  23.898  1.00  0.00    -0.357 N 
HETATM    8  C27 UNL     1      -5.245  19.476  24.452  1.00  0.00     0.145 C 
HETATM    9  O1  UNL     1      -6.007  15.973  27.406  1.00  0.00    -0.271 OA
BRANCH   7  10
HETATM   10  C3  UNL     1      -4.965  17.947  22.537  1.00  0.00     0.163 A 
HETATM   11  N2  UNL     1      -5.909  17.121  22.087  1.00  0.00    -0.279 N 
HETATM   12  N1  UNL     1      -6.033  16.921  20.848  1.00  0.00    -0.296 N 
ATOM     13  H2  UNL     1      -6.530  16.649  22.745  1.00  0.00     0.189 HD
HETATM   14  C2  UNL     1      -5.221  17.534  19.984  1.00  0.00     0.066 A 
ATOM     15  H1  UNL     1      -6.756  16.288  20.505  1.00  0.00     0.187 HD
HETATM   16  C1  UNL     1      -5.202  17.442  18.475  1.00  0.00     0.078 C 
HETATM   17  S1  UNL     1      -4.237  18.438  21.062  1.00  0.00    -0.038 SA
ENDBRANCH   7  10
ENDBRANCH   1   2
BRANCH   1  18
HETATM   18  C8  UNL     1      -8.405  17.307  28.685  1.00  0.00     0.039 C 
BRANCH  18  19
HETATM   19  C9  UNL     1      -9.281  16.246  29.183  1.00  0.00    -0.012 C 
HETATM   20  C10 UNL     1      -8.704  14.890  29.437  1.00  0.00     0.005 C 
HETATM   21  C11 UNL     1      -9.771  14.125  30.246  1.00  0.00     0.000 C 
HETATM   22  C12 UNL     1      -9.672  14.542  31.698  1.00  0.00     0.000 C 
HETATM   23  C13 UNL     1      -9.158  15.982  31.689  1.00  0.00     0.000 C 
HETATM   24  C14 UNL     1      -9.817  16.718  30.549  1.00  0.00     0.005 C 
ENDBRANCH  18  19
ENDBRANCH   1  18
BRANCH   1  25
HETATM   25  N5  UNL     1      -8.809  16.389  26.460  1.00  0.00    -0.346 N 
HETATM   26  C15 UNL     1      -9.695  16.865  25.472  1.00  0.00     0.236 C 
HETATM   27  O2  UNL     1      -9.763  18.104  25.297  1.00  0.00    -0.272 OA
ATOM     28  H5  UNL     1      -8.747  15.385  26.630  1.00  0.00     0.163 HD
BRANCH  26  29
HETATM   29  C16 UNL     1     -10.523  15.975  24.651  1.00  0.00     0.225 C 
BRANCH  29  30
HETATM   30  N6  UNL     1     -11.600  15.324  25.351  1.00  0.00    -0.349 N 
HETATM   31  C17 UNL     1     -11.418  14.174  26.138  1.00  0.00     0.241 C 
HETATM   32  O3  UNL     1     -10.244  13.670  26.244  1.00  0.00    -0.269 OA
ATOM     33  H6  UNL     1     -12.538  15.716  25.273  1.00  0.00     0.163 HD
BRANCH  31  34
HETATM   34  C18 UNL     1     -12.488  13.504  26.856  1.00  0.00     0.075 C 
HETATM   35  C19 UNL     1     -12.251  12.530  27.676  1.00  0.00     0.022 C 
BRANCH  35  36
HETATM   36  C20 UNL     1     -13.263  11.803  28.433  1.00  0.00     0.083 C 
BRANCH  36  37
HETATM   37  N7  UNL     1     -13.860  12.461  29.481  1.00  0.00    -0.394 N 
ATOM     38  H7  UNL     1     -14.876  12.389  29.533  1.00  0.00     0.159 HD
BRANCH  37  39
HETATM   39  C21 UNL     1     -13.257  13.204  30.469  1.00  0.00     0.081 C 
HETATM   40  C22 UNL     1     -13.629  12.580  31.844  1.00  0.00     0.025 C 
HETATM   41  C23 UNL     1     -13.273  13.586  32.884  1.00  0.00     0.002 C 
HETATM   42  C24 UNL     1     -13.060  14.874  32.153  1.00  0.00     0.002 C 
HETATM   43  C25 UNL     1     -13.616  14.633  30.739  1.00  0.00     0.025 C 
ENDBRANCH  37  39
ENDBRANCH  36  37
ENDBRANCH  35  36
ENDBRANCH  31  34
ENDBRANCH  29  30
ENDBRANCH  26  29
ENDBRANCH   1  25
TORSDOF 11
ENDMDL
MODEL 4
REMARK VINA RESULT: -9.579675556      3.013     10.562
REMARK  11 active torsions:
REMARK  status: ('A' for Active; 'I' for Inactive)
REMARK    1  A    between atoms: C3_7  and  N3_8 
REMARK       I    between atoms: N4_11  and  C6_12 
REMARK    2  A    between atoms: C6_12  and  C7_14 
REMARK    3  A    between atoms: C7_14  and  C8_15 
REMARK    4  A    between atoms: C7_14  and  N5_22 
REMARK    5  A    between atoms: C8_15  and  C9_16 
REMARK       I    between atoms: N5_22  and  C15_24 
REMARK    6  A    between atoms: C15_24  and  C16_26 
REMARK    7  A    between atoms: C16_26  and  N6_27 
REMARK       I    between atoms: N6_27  and  C17_29 
REMARK    8  A    between atoms: C17_29  and  C18_31 
REMARK    9  A    between atoms: C19_32  and  C20_33 
REMARK   10  A    between atoms: C20_33  and  N7_34 
REMARK   11  A    between atoms: N7_34  and  C21_36 
ROOT
HETATM    1  C7  UNL     1      -8.520  16.338  28.551  1.00  0.00     0.177 C 
ENDROOT
BRANCH   1   2
HETATM    2  C6  UNL     1      -8.979  15.310  27.622  1.00  0.00     0.242 C 
HETATM    3  N4  UNL     1     -10.314  15.147  27.142  1.00  0.00    -0.347 N 
HETATM    4  C5  UNL     1     -10.568  14.089  26.143  1.00  0.00     0.145 C 
HETATM    5  C26 UNL     1     -11.429  15.925  27.573  1.00  0.00     0.145 C 
HETATM    6  C4  UNL     1     -11.539  13.089  26.745  1.00  0.00     0.145 C 
HETATM    7  N3  UNL     1     -12.432  13.736  27.684  1.00  0.00    -0.357 N 
HETATM    8  C27 UNL     1     -12.708  15.130  27.550  1.00  0.00     0.145 C 
HETATM    9  O1  UNL     1      -8.130  14.443  27.169  1.00  0.00    -0.271 OA
BRANCH   7  10
HETATM   10  C3  UNL     1     -13.044  12.990  28.729  1.00  0.00     0.163 A 
HETATM   11  N2  UNL     1     -13.630  11.800  28.607  1.00  0.00    -0.279 N 
HETATM   12  N1  UNL     1     -14.133  11.238  29.619  1.00  0.00    -0.296 N 
ATOM     13  H2  UNL     1     -13.673  11.342  27.696  1.00  0.00     0.189 HD
HETATM   14  C2  UNL     1     -14.081  11.834  30.812  1.00  0.00     0.066 A 
ATOM     15  H1  UNL     1     -14.582  10.327  29.524  1.00  0.00     0.187 HD
HETATM   16  C1  UNL     1     -14.609  11.340  32.140  1.00  0.00     0.078 C 
HETATM   17  S1  UNL     1     -13.254  13.283  30.406  1.00  0.00    -0.038 SA
ENDBRANCH   7  10
ENDBRANCH   1   2
BRANCH   1  18
HETATM   18  C8  UNL     1      -9.389  16.624  29.733  1.00  0.00     0.039 C 
BRANCH  18  19
HETATM   19  C9  UNL     1      -9.062  16.045  31.037  1.00  0.00    -0.012 C 
HETATM   20  C10 UNL     1      -8.816  16.960  32.193  1.00  0.00     0.005 C 
HETATM   21  C11 UNL     1      -8.828  16.063  33.448  1.00  0.00     0.000 C 
HETATM   22  C12 UNL     1     -10.267  15.798  33.841  1.00  0.00     0.000 C 
HETATM   23  C13 UNL     1     -11.074  15.844  32.543  1.00  0.00     0.000 C 
HETATM   24  C14 UNL     1     -10.268  15.182  31.455  1.00  0.00     0.005 C 
ENDBRANCH  18  19
ENDBRANCH   1  18
BRANCH   1  25
HETATM   25  N5  UNL     1      -8.192  17.583  27.835  1.00  0.00    -0.346 N 
HETATM   26  C15 UNL     1      -6.892  17.842  27.357  1.00  0.00     0.236 C 
HETATM   27  O2  UNL     1      -6.007  16.983  27.575  1.00  0.00    -0.272 OA
ATOM     28  H5  UNL     1      -8.925  18.275  27.681  1.00  0.00     0.163 HD
BRANCH  26  29
HETATM   29  C16 UNL     1      -6.543  19.063  26.620  1.00  0.00     0.225 C 
BRANCH  29  30
HETATM   30  N6  UNL     1      -6.719  18.986  25.193  1.00  0.00    -0.349 N 
HETATM   31  C17 UNL     1      -5.645  18.903  24.291  1.00  0.00     0.241 C 
HETATM   32  O3  UNL     1      -4.447  18.895  24.747  1.00  0.00    -0.269 OA
ATOM     33  H6  UNL     1      -7.668  18.992  24.819  1.00  0.00     0.163 HD
BRANCH  31  34
HETATM   34  C18 UNL     1      -5.799  18.820  22.849  1.00  0.00     0.075 C 
HETATM   35  C19 UNL     1      -5.497  17.745  22.194  1.00  0.00     0.022 C 
BRANCH  35  36
HETATM   36  C20 UNL     1      -5.618  17.579  20.751  1.00  0.00     0.083 C 
BRANCH  36  37
HETATM   37  N7  UNL     1      -6.046  16.357  20.290  1.00  0.00    -0.394 N 
ATOM     38  H7  UNL     1      -5.314  15.684  20.063  1.00  0.00     0.159 HD
BRANCH  37  39
HETATM   39  C21 UNL     1      -7.339  15.930  20.097  1.00  0.00     0.081 C 
HETATM   40  C22 UNL     1      -8.215  17.168  19.754  1.00  0.00     0.025 C 
HETATM   41  C23 UNL     1      -9.636  16.747  19.903  1.00  0.00     0.002 C 
HETATM   42  C24 UNL     1      -9.603  15.453  20.656  1.00  0.00     0.002 C 
HETATM   43  C25 UNL     1      -8.167  15.337  21.195  1.00  0.00     0.025 C 
ENDBRANCH  37  39
ENDBRANCH  36  37
ENDBRANCH  35  36
ENDBRANCH  31  34
ENDBRANCH  29  30
ENDBRANCH  26  29
ENDBRANCH   1  25
TORSDOF 11
ENDMDL
MODEL 5
REMARK VINA RESULT: -9.482219525      2.072      4.908
REMARK  11 active torsions:
REMARK  status: ('A' for Active; 'I' for Inactive)
REMARK    1  A    between atoms: C3_7  and  N3_8 
REMARK       I    between atoms: N4_11  and  C6_12 
REMARK    2  A    between atoms: C6_12  and  C7_14 
REMARK    3  A    between atoms: C7_14  and  C8_15 
REMARK    4  A    between atoms: C7_14  and  N5_22 
REMARK    5  A    between atoms: C8_15  and  C9_16 
REMARK       I    between atoms: N5_22  and  C15_24 
REMARK    6  A    between atoms: C15_24  and  C16_26 
REMARK    7  A    between atoms: C16_26  and  N6_27 
REMARK       I    between atoms: N6_27  and  C17_29 
REMARK    8  A    between atoms: C17_29  and  C18_31 
REMARK    9  A    between atoms: C19_32  and  C20_33 
REMARK   10  A    between atoms: C20_33  and  N7_34 
REMARK   11  A    between atoms: N7_34  and  C21_36 
ROOT
HETATM    1  C7  UNL     1      -9.975  14.912  25.273  1.00  0.00     0.177 C 
ENDROOT
BRANCH   1   2
HETATM    2  C6  UNL     1     -10.216  15.468  23.944  1.00  0.00     0.242 C 
HETATM    3  N4  UNL     1      -9.294  15.471  22.854  1.00  0.00    -0.347 N 
HETATM    4  C5  UNL     1      -9.750  16.016  21.560  1.00  0.00     0.145 C 
HETATM    5  C26 UNL     1      -7.950  14.998  22.931  1.00  0.00     0.145 C 
HETATM    6  C4  UNL     1      -8.888  17.219  21.219  1.00  0.00     0.145 C 
HETATM    7  N3  UNL     1      -7.555  17.070  21.764  1.00  0.00    -0.357 N 
HETATM    8  C27 UNL     1      -7.035  15.764  22.012  1.00  0.00     0.145 C 
HETATM    9  O1  UNL     1     -11.358  16.023  23.690  1.00  0.00    -0.271 OA
BRANCH   7  10
HETATM   10  C3  UNL     1      -6.757  18.214  22.040  1.00  0.00     0.163 A 
HETATM   11  N2  UNL     1      -6.882  19.416  21.478  1.00  0.00    -0.279 N 
HETATM   12  N1  UNL     1      -6.110  20.354  21.817  1.00  0.00    -0.296 N 
ATOM     13  H2  UNL     1      -7.601  19.577  20.772  1.00  0.00     0.189 HD
HETATM   14  C2  UNL     1      -5.166  20.147  22.739  1.00  0.00     0.066 A 
ATOM     15  H1  UNL     1      -6.207  21.274  21.386  1.00  0.00     0.187 HD
HETATM   16  C1  UNL     1      -4.152  21.123  23.290  1.00  0.00     0.078 C 
HETATM   17  S1  UNL     1      -5.442  18.493  23.107  1.00  0.00    -0.038 SA
ENDBRANCH   7  10
ENDBRANCH   1   2
BRANCH   1  18
HETATM   18  C8  UNL     1     -11.043  14.040  25.849  1.00  0.00     0.039 C 
BRANCH  18  19
HETATM   19  C9  UNL     1     -11.865  14.529  26.957  1.00  0.00    -0.012 C 
HETATM   20  C10 UNL     1     -13.345  14.322  26.906  1.00  0.00     0.005 C 
HETATM   21  C11 UNL     1     -13.862  14.638  28.324  1.00  0.00     0.000 C 
HETATM   22  C12 UNL     1     -13.629  13.429  29.206  1.00  0.00     0.000 C 
HETATM   23  C13 UNL     1     -12.391  12.729  28.643  1.00  0.00     0.000 C 
HETATM   24  C14 UNL     1     -11.397  13.781  28.221  1.00  0.00     0.005 C 
ENDBRANCH  18  19
ENDBRANCH   1  18
BRANCH   1  25
HETATM   25  N5  UNL     1      -9.601  15.972  26.224  1.00  0.00    -0.346 N 
HETATM   26  C15 UNL     1      -8.337  15.995  26.849  1.00  0.00     0.236 C 
HETATM   27  O2  UNL     1      -7.538  15.068  26.583  1.00  0.00    -0.272 OA
ATOM     28  H5  UNL     1     -10.274  16.708  26.437  1.00  0.00     0.163 HD
BRANCH  26  29
HETATM   29  C16 UNL     1      -7.931  17.051  27.783  1.00  0.00     0.225 C 
BRANCH  29  30
HETATM   30  N6  UNL     1      -8.243  16.797  29.166  1.00  0.00    -0.349 N 
HETATM   31  C17 UNL     1      -9.545  16.881  29.686  1.00  0.00     0.241 C 
HETATM   32  O3  UNL     1     -10.510  17.199  28.904  1.00  0.00    -0.269 OA
ATOM     33  H6  UNL     1      -7.483  16.544  29.797  1.00  0.00     0.163 HD
BRANCH  31  34
HETATM   34  C18 UNL     1      -9.883  16.625  31.075  1.00  0.00     0.075 C 
HETATM   35  C19 UNL     1      -8.971  16.509  31.987  1.00  0.00     0.022 C 
BRANCH  35  36
HETATM   36  C20 UNL     1      -9.223  16.250  33.399  1.00  0.00     0.083 C 
BRANCH  36  37
HETATM   37  N7  UNL     1     -10.522  16.343  33.836  1.00  0.00    -0.394 N 
ATOM     38  H7  UNL     1     -10.877  17.287  33.987  1.00  0.00     0.159 HD
BRANCH  37  39
HETATM   39  C21 UNL     1     -11.403  15.319  34.095  1.00  0.00     0.081 C 
HETATM   40  C22 UNL     1     -10.589  14.004  34.261  1.00  0.00     0.025 C 
HETATM   41  C23 UNL     1     -11.563  12.880  34.180  1.00  0.00     0.002 C 
HETATM   42  C24 UNL     1     -12.821  13.467  33.621  1.00  0.00     0.002 C 
HETATM   43  C25 UNL     1     -12.421  14.856  33.097  1.00  0.00     0.025 C 
ENDBRANCH  37  39
ENDBRANCH  36  37
ENDBRANCH  35  36
ENDBRANCH  31  34
ENDBRANCH  29  30
ENDBRANCH  26  29
ENDBRANCH   1  25
TORSDOF 11
ENDMDL
