MODEL 1
REMARK VINA RESULT: -8.747180477      0.000      0.000
REMARK  16 active torsions:
REMARK  status: ('A' for Active; 'I' for Inactive)
REMARK    1  A    between atoms: C2_2  and  N1_3 
REMARK    2  A    between atoms: N1_3  and  C3_5 
REMARK    3  A    between atoms: C3_5  and  N2_7 
REMARK    4  A    between atoms: C9_13  and  C10_14 
REMARK    5  A    between atoms: C10_14  and  O2_16 
REMARK    6  A    between atoms: O2_16  and  C11_17 
REMARK    7  A    between atoms: C14_20  and  C15_21 
REMARK    8  A    between atoms: C15_21  and  C16_22 
REMARK    9  A    between atoms: C16_22  and  O3_23 
REMARK   10  A    between atoms: C16_22  and  C17_25 
REMARK   11  A    between atoms: C20_28  and  O4_29 
REMARK   12  A    between atoms: O4_29  and  C21_30 
REMARK   13  A    between atoms: C21_30  and  C22_31 
REMARK   14  A    between atoms: C22_31  and  C23_32 
REMARK   15  A    between atoms: C23_32  and  O5_33 
REMARK   16  A    between atoms: O5_33  and  C24_34 
ROOT
HETATM    1  N2  UNL     1      18.684  27.602  12.273  1.00  0.00    -0.357 N 
HETATM    2  C4  UNL     1      17.276  28.060  12.190  1.00  0.00     0.125 C 
HETATM    3  C5  UNL     1      17.181  29.455  11.701  1.00  0.00     0.022 C 
HETATM    4  C6  UNL     1      17.403  30.521  12.715  1.00  0.00     0.028 C 
HETATM    5  C7  UNL     1      18.320  30.185  13.825  1.00  0.00     0.079 C 
HETATM    6  C8  UNL     1      17.578  29.557  14.949  1.00  0.00     0.033 C 
HETATM    7  C9  UNL     1      19.576  29.511  13.506  1.00  0.00     0.086 C 
HETATM    8  C13 UNL     1      20.442  29.769  14.760  1.00  0.00     0.043 C 
HETATM    9  C14 UNL     1      20.674  31.294  14.643  1.00  0.00     0.113 C 
HETATM   10  S2  UNL     1      18.946  31.763  14.464  1.00  0.00     0.158 S 
HETATM   11  O6  UNL     1      18.303  32.075  15.768  1.00  0.00    -0.227 OA
HETATM   12  O7  UNL     1      18.739  32.844  13.483  1.00  0.00    -0.227 OA
HETATM   13  C32 UNL     1      19.541  28.009  13.342  1.00  0.00     0.146 C 
ENDROOT
BRANCH   9  14
HETATM   14  C15 UNL     1      21.298  31.831  15.880  1.00  0.00     0.052 C 
BRANCH  14  15
HETATM   15  C16 UNL     1      22.208  32.990  15.576  1.00  0.00     0.123 C 
BRANCH  15  16
HETATM   16  O3  UNL     1      22.141  33.291  14.229  1.00  0.00    -0.395 OA
ATOM     17  H3  UNL     1      21.935  34.212  14.118  1.00  0.00     0.210 HD
ENDBRANCH  15  16
BRANCH  15  18
HETATM   18  C17 UNL     1      21.805  34.230  16.337  1.00  0.00     0.014 C 
HETATM   19  C18 UNL     1      20.379  34.649  16.042  1.00  0.00     0.010 C 
HETATM   20  C19 UNL     1      19.695  35.157  17.280  1.00  0.00     0.032 C 
HETATM   21  C20 UNL     1      20.617  36.040  18.129  1.00  0.00     0.121 C 
HETATM   22  C30 UNL     1      21.904  35.322  18.504  1.00  0.00     0.032 C 
HETATM   23  C31 UNL     1      21.917  33.982  17.830  1.00  0.00     0.010 C 
BRANCH  21  24
HETATM   24  O4  UNL     1      20.804  37.245  17.589  1.00  0.00    -0.386 OA
BRANCH  24  25
HETATM   25  C21 UNL     1      20.003  38.292  17.602  1.00  0.00     0.170 C 
BRANCH  25  26
HETATM   26  C22 UNL     1      18.626  38.233  18.149  1.00  0.00     0.053 C 
BRANCH  26  27
HETATM   27  C23 UNL     1      17.459  38.475  17.259  1.00  0.00     0.178 C 
BRANCH  27  28
HETATM   28  O5  UNL     1      16.717  37.452  16.866  1.00  0.00    -0.345 OA
BRANCH  28  29
HETATM   29  C24 UNL     1      16.233  36.235  17.065  1.00  0.00     0.149 A 
HETATM   30  C25 UNL     1      15.807  35.718  18.280  1.00  0.00     0.152 A 
HETATM   31  F1  UNL     1      15.904  36.532  19.368  1.00  0.00    -0.203 F 
HETATM   32  C26 UNL     1      15.313  34.448  18.423  1.00  0.00     0.048 A 
HETATM   33  C27 UNL     1      15.225  33.629  17.316  1.00  0.00     0.048 A 
HETATM   34  C28 UNL     1      15.641  34.126  16.115  1.00  0.00     0.157 A 
HETATM   35  F2  UNL     1      15.561  33.325  15.004  1.00  0.00    -0.203 F 
HETATM   36  C29 UNL     1      16.131  35.376  15.952  1.00  0.00     0.191 A 
HETATM   37  F3  UNL     1      16.532  35.821  14.727  1.00  0.00    -0.200 F 
ENDBRANCH  28  29
ENDBRANCH  27  28
ENDBRANCH  26  27
ENDBRANCH  25  26
ENDBRANCH  24  25
ENDBRANCH  21  24
ENDBRANCH  15  18
ENDBRANCH  14  15
ENDBRANCH   9  14
BRANCH   7  38
HETATM   38  C10 UNL     1      20.347  30.059  12.393  1.00  0.00     0.271 C 
HETATM   39  O1  UNL     1      20.001  30.889  11.543  1.00  0.00    -0.264 OA
BRANCH  38  40
HETATM   40  O2  UNL     1      21.668  29.579  12.270  1.00  0.00    -0.321 OA
BRANCH  40  41
HETATM   41  C11 UNL     1      22.085  28.879  11.116  1.00  0.00     0.174 C 
HETATM   42  C12 UNL     1      22.754  27.600  11.597  1.00  0.00     0.034 C 
ENDBRANCH  40  41
ENDBRANCH  38  40
ENDBRANCH   7  38
BRANCH   1  43
HETATM   43  C3  UNL     1      19.104  26.743  11.231  1.00  0.00     0.169 C 
HETATM   44  S1  UNL     1      18.890  27.189   9.645  1.00  0.00    -0.041 SA
BRANCH  43  45
HETATM   45  N1  UNL     1      19.714  25.497  11.455  1.00  0.00    -0.367 N 
ATOM     46  H1  UNL     1      20.506  25.434  12.094  1.00  0.00     0.161 HD
BRANCH  45  47
HETATM   47  C2  UNL     1      19.230  24.285  10.787  1.00  0.00     0.117 C 
HETATM   48  C1  UNL     1      17.859  23.949  11.320  1.00  0.00     0.026 C 
ENDBRANCH  45  47
ENDBRANCH  43  45
ENDBRANCH   1  43
TORSDOF 16
ENDMDL
MODEL 2
REMARK VINA RESULT: -8.715444540      4.128     10.642
REMARK  16 active torsions:
REMARK  status: ('A' for Active; 'I' for Inactive)
REMARK    1  A    between atoms: C2_2  and  N1_3 
REMARK    2  A    between atoms: N1_3  and  C3_5 
REMARK    3  A    between atoms: C3_5  and  N2_7 
REMARK    4  A    between atoms: C9_13  and  C10_14 
REMARK    5  A    between atoms: C10_14  and  O2_16 
REMARK    6  A    between atoms: O2_16  and  C11_17 
REMARK    7  A    between atoms: C14_20  and  C15_21 
REMARK    8  A    between atoms: C15_21  and  C16_22 
REMARK    9  A    between atoms: C16_22  and  O3_23 
REMARK   10  A    between atoms: C16_22  and  C17_25 
REMARK   11  A    between atoms: C20_28  and  O4_29 
REMARK   12  A    between atoms: O4_29  and  C21_30 
REMARK   13  A    between atoms: C21_30  and  C22_31 
REMARK   14  A    between atoms: C22_31  and  C23_32 
REMARK   15  A    between atoms: C23_32  and  O5_33 
REMARK   16  A    between atoms: O5_33  and  C24_34 
ROOT
HETATM    1  N2  UNL     1      20.980  32.411  16.357  1.00  0.00    -0.357 N 
HETATM    2  C4  UNL     1      22.299  32.446  15.682  1.00  0.00     0.125 C 
HETATM    3  C5  UNL     1      22.174  32.791  14.248  1.00  0.00     0.022 C 
HETATM    4  C6  UNL     1      21.805  31.675  13.335  1.00  0.00     0.028 C 
HETATM    5  C7  UNL     1      20.965  30.606  13.917  1.00  0.00     0.079 C 
HETATM    6  C8  UNL     1      21.810  29.550  14.533  1.00  0.00     0.033 C 
HETATM    7  C9  UNL     1      19.824  30.994  14.741  1.00  0.00     0.086 C 
HETATM    8  C13 UNL     1      18.945  29.722  14.746  1.00  0.00     0.043 C 
HETATM    9  C14 UNL     1      18.482  29.685  13.270  1.00  0.00     0.113 C 
HETATM   10  S2  UNL     1      20.114  29.813  12.526  1.00  0.00     0.158 S 
HETATM   11  O6  UNL     1      20.720  28.483  12.251  1.00  0.00    -0.227 OA
HETATM   12  O7  UNL     1      20.141  30.679  11.333  1.00  0.00    -0.227 OA
HETATM   13  C32 UNL     1      20.086  31.309  16.195  1.00  0.00     0.146 C 
ENDROOT
BRANCH   9  14
HETATM   14  C15 UNL     1      17.799  28.402  12.961  1.00  0.00     0.052 C 
BRANCH  14  15
HETATM   15  C16 UNL     1      17.135  28.444  11.612  1.00  0.00     0.123 C 
BRANCH  15  16
HETATM   16  O3  UNL     1      17.157  29.737  11.125  1.00  0.00    -0.395 OA
ATOM     17  H3  UNL     1      17.773  29.795  10.404  1.00  0.00     0.210 HD
ENDBRANCH  15  16
BRANCH  15  18
HETATM   18  C17 UNL     1      17.851  27.570  10.611  1.00  0.00     0.014 C 
HETATM   19  C18 UNL     1      17.127  26.260  10.368  1.00  0.00     0.010 C 
HETATM   20  C19 UNL     1      17.198  25.862   8.921  1.00  0.00     0.032 C 
HETATM   21  C20 UNL     1      18.582  26.123   8.315  1.00  0.00     0.121 C 
HETATM   22  C30 UNL     1      19.007  27.574   8.475  1.00  0.00     0.032 C 
HETATM   23  C31 UNL     1      17.964  28.291   9.281  1.00  0.00     0.010 C 
BRANCH  21  24
HETATM   24  O4  UNL     1      19.492  25.240   8.730  1.00  0.00    -0.386 OA
BRANCH  24  25
HETATM   25  C21 UNL     1      19.308  24.081   9.330  1.00  0.00     0.170 C 
BRANCH  25  26
HETATM   26  C22 UNL     1      19.734  23.832  10.728  1.00  0.00     0.053 C 
BRANCH  26  27
HETATM   27  C23 UNL     1      20.570  24.834  11.442  1.00  0.00     0.178 C 
BRANCH  27  28
HETATM   28  O5  UNL     1      21.863  24.916  11.169  1.00  0.00    -0.345 OA
BRANCH  28  29
HETATM   29  C24 UNL     1      22.860  25.402  10.446  1.00  0.00     0.149 A 
HETATM   30  C25 UNL     1      23.197  25.009   9.159  1.00  0.00     0.152 A 
HETATM   31  F1  UNL     1      22.440  24.028   8.592  1.00  0.00    -0.203 F 
HETATM   32  C26 UNL     1      24.243  25.552   8.458  1.00  0.00     0.048 A 
HETATM   33  C27 UNL     1      25.007  26.539   9.044  1.00  0.00     0.048 A 
HETATM   34  C28 UNL     1      24.685  26.935  10.309  1.00  0.00     0.157 A 
HETATM   35  F2  UNL     1      25.436  27.916  10.907  1.00  0.00    -0.203 F 
HETATM   36  C29 UNL     1      23.659  26.413  11.018  1.00  0.00     0.191 A 
HETATM   37  F3  UNL     1      23.381  26.847  12.280  1.00  0.00    -0.200 F 
ENDBRANCH  28  29
ENDBRANCH  27  28
ENDBRANCH  26  27
ENDBRANCH  25  26
ENDBRANCH  24  25
ENDBRANCH  21  24
ENDBRANCH  15  18
ENDBRANCH  14  15
ENDBRANCH   9  14
BRANCH   7  38
HETATM   38  C10 UNL     1      18.962  32.047  14.209  1.00  0.00     0.271 C 
HETATM   39  O1  UNL     1      19.067  32.674  13.147  1.00  0.00    -0.264 OA
BRANCH  38  40
HETATM   40  O2  UNL     1      17.858  32.399  15.014  1.00  0.00    -0.321 OA
BRANCH  40  41
HETATM   41  C11 UNL     1      17.132  33.587  14.778  1.00  0.00     0.174 C 
HETATM   42  C12 UNL     1      15.906  33.539  15.677  1.00  0.00     0.034 C 
ENDBRANCH  40  41
ENDBRANCH  38  40
ENDBRANCH   7  38
BRANCH   1  43
HETATM   43  C3  UNL     1      20.682  33.535  17.163  1.00  0.00     0.169 C 
HETATM   44  S1  UNL     1      21.907  34.508  17.723  1.00  0.00    -0.041 SA
BRANCH  43  45
HETATM   45  N1  UNL     1      19.375  33.898  17.530  1.00  0.00    -0.367 N 
ATOM     46  H1  UNL     1      18.693  33.170  17.742  1.00  0.00     0.161 HD
BRANCH  45  47
HETATM   47  C2  UNL     1      18.974  35.306  17.616  1.00  0.00     0.117 C 
HETATM   48  C1  UNL     1      17.888  35.440  18.655  1.00  0.00     0.026 C 
ENDBRANCH  45  47
ENDBRANCH  43  45
ENDBRANCH   1  43
TORSDOF 16
ENDMDL
MODEL 3
REMARK VINA RESULT: -8.577001135      3.983      9.800
REMARK  16 active torsions:
REMARK  status: ('A' for Active; 'I' for Inactive)
REMARK    1  A    between atoms: C2_2  and  N1_3 
REMARK    2  A    between atoms: N1_3  and  C3_5 
REMARK    3  A    between atoms: C3_5  and  N2_7 
REMARK    4  A    between atoms: C9_13  and  C10_14 
REMARK    5  A    between atoms: C10_14  and  O2_16 
REMARK    6  A    between atoms: O2_16  and  C11_17 
REMARK    7  A    between atoms: C14_20  and  C15_21 
REMARK    8  A    between atoms: C15_21  and  C16_22 
REMARK    9  A    between atoms: C16_22  and  O3_23 
REMARK   10  A    between atoms: C16_22  and  C17_25 
REMARK   11  A    between atoms: C20_28  and  O4_29 
REMARK   12  A    between atoms: O4_29  and  C21_30 
REMARK   13  A    between atoms: C21_30  and  C22_31 
REMARK   14  A    between atoms: C22_31  and  C23_32 
REMARK   15  A    between atoms: C23_32  and  O5_33 
REMARK   16  A    between atoms: O5_33  and  C24_34 
ROOT
HETATM    1  N2  UNL     1      17.434  33.651  15.370  1.00  0.00    -0.357 N 
HETATM    2  C4  UNL     1      16.298  32.746  15.670  1.00  0.00     0.125 C 
HETATM    3  C5  UNL     1      16.739  31.536  16.401  1.00  0.00     0.022 C 
HETATM    4  C6  UNL     1      17.312  30.442  15.572  1.00  0.00     0.028 C 
HETATM    5  C7  UNL     1      18.010  30.857  14.336  1.00  0.00     0.079 C 
HETATM    6  C8  UNL     1      17.058  30.941  13.198  1.00  0.00     0.033 C 
HETATM    7  C9  UNL     1      18.934  31.984  14.408  1.00  0.00     0.086 C 
HETATM    8  C13 UNL     1      19.801  31.811  13.139  1.00  0.00     0.043 C 
HETATM    9  C14 UNL     1      20.583  30.525  13.497  1.00  0.00     0.113 C 
HETATM   10  S2  UNL     1      19.157  29.514  13.924  1.00  0.00     0.158 S 
HETATM   11  O6  UNL     1      18.641  28.741  12.764  1.00  0.00    -0.227 OA
HETATM   12  O7  UNL     1      19.391  28.648  15.094  1.00  0.00    -0.227 OA
HETATM   13  C32 UNL     1      18.351  33.375  14.310  1.00  0.00     0.146 C 
ENDROOT
BRANCH   9  14
HETATM   14  C15 UNL     1      21.329  30.013  12.318  1.00  0.00     0.052 C 
BRANCH  14  15
HETATM   15  C16 UNL     1      22.445  29.092  12.731  1.00  0.00     0.123 C 
BRANCH  15  16
HETATM   16  O3  UNL     1      22.466  28.979  14.108  1.00  0.00    -0.395 OA
ATOM     17  H3  UNL     1      22.760  28.110  14.352  1.00  0.00     0.210 HD
ENDBRANCH  15  16
BRANCH  15  18
HETATM   18  C17 UNL     1      22.261  27.704  12.166  1.00  0.00     0.014 C 
HETATM   19  C18 UNL     1      21.130  27.638  11.159  1.00  0.00     0.010 C 
HETATM   20  C19 UNL     1      21.476  26.726  10.015  1.00  0.00     0.032 C 
HETATM   21  C20 UNL     1      22.190  25.453  10.485  1.00  0.00     0.121 C 
HETATM   22  C30 UNL     1      23.438  25.768  11.293  1.00  0.00     0.032 C 
HETATM   23  C31 UNL     1      23.531  27.255  11.469  1.00  0.00     0.010 C 
BRANCH  21  24
HETATM   24  O4  UNL     1      21.359  24.595  11.080  1.00  0.00    -0.386 OA
BRANCH  24  25
HETATM   25  C21 UNL     1      20.190  24.152  10.663  1.00  0.00     0.170 C 
BRANCH  25  26
HETATM   26  C22 UNL     1      18.971  24.208  11.505  1.00  0.00     0.053 C 
BRANCH  26  27
HETATM   27  C23 UNL     1      18.139  25.442  11.530  1.00  0.00     0.178 C 
BRANCH  27  28
HETATM   28  O5  UNL     1      17.754  25.991  10.389  1.00  0.00    -0.345 OA
BRANCH  28  29
HETATM   29  C24 UNL     1      17.738  26.008   9.065  1.00  0.00     0.149 A 
HETATM   30  C25 UNL     1      17.388  24.947   8.243  1.00  0.00     0.152 A 
HETATM   31  F1  UNL     1      17.036  23.781   8.853  1.00  0.00    -0.203 F 
HETATM   32  C26 UNL     1      17.389  25.026   6.875  1.00  0.00     0.048 A 
HETATM   33  C27 UNL     1      17.753  26.209   6.267  1.00  0.00     0.048 A 
HETATM   34  C28 UNL     1      18.100  27.261   7.065  1.00  0.00     0.157 A 
HETATM   35  F2  UNL     1      18.465  28.446   6.477  1.00  0.00    -0.203 F 
HETATM   36  C29 UNL     1      18.105  27.204   8.416  1.00  0.00     0.191 A 
HETATM   37  F3  UNL     1      18.461  28.287   9.165  1.00  0.00    -0.200 F 
ENDBRANCH  28  29
ENDBRANCH  27  28
ENDBRANCH  26  27
ENDBRANCH  25  26
ENDBRANCH  24  25
ENDBRANCH  21  24
ENDBRANCH  15  18
ENDBRANCH  14  15
ENDBRANCH   9  14
BRANCH   7  38
HETATM   38  C10 UNL     1      19.884  31.981  15.518  1.00  0.00     0.271 C 
HETATM   39  O1  UNL     1      19.891  31.269  16.531  1.00  0.00    -0.264 OA
BRANCH  38  40
HETATM   40  O2  UNL     1      20.938  32.914  15.424  1.00  0.00    -0.321 OA
BRANCH  40  41
HETATM   41  C11 UNL     1      22.184  32.672  16.044  1.00  0.00     0.174 C 
HETATM   42  C12 UNL     1      23.222  32.613  14.934  1.00  0.00     0.034 C 
ENDBRANCH  40  41
ENDBRANCH  38  40
ENDBRANCH   7  38
BRANCH   1  43
HETATM   43  C3  UNL     1      17.534  34.793  16.199  1.00  0.00     0.169 C 
HETATM   44  S1  UNL     1      18.628  34.820  17.450  1.00  0.00    -0.041 SA
BRANCH  43  45
HETATM   45  N1  UNL     1      16.747  35.944  16.029  1.00  0.00    -0.367 N 
ATOM     46  H1  UNL     1      16.667  36.364  15.104  1.00  0.00     0.161 HD
BRANCH  45  47
HETATM   47  C2  UNL     1      16.038  36.552  17.159  1.00  0.00     0.117 C 
HETATM   48  C1  UNL     1      14.879  35.664  17.541  1.00  0.00     0.026 C 
ENDBRANCH  45  47
ENDBRANCH  43  45
ENDBRANCH   1  43
TORSDOF 16
ENDMDL
MODEL 4
REMARK VINA RESULT: -8.537451113      4.102     10.041
REMARK  16 active torsions:
REMARK  status: ('A' for Active; 'I' for Inactive)
REMARK    1  A    between atoms: C2_2  and  N1_3 
REMARK    2  A    between atoms: N1_3  and  C3_5 
REMARK    3  A    between atoms: C3_5  and  N2_7 
REMARK    4  A    between atoms: C9_13  and  C10_14 
REMARK    5  A    between atoms: C10_14  and  O2_16 
REMARK    6  A    between atoms: O2_16  and  C11_17 
REMARK    7  A    between atoms: C14_20  and  C15_21 
REMARK    8  A    between atoms: C15_21  and  C16_22 
REMARK    9  A    between atoms: C16_22  and  O3_23 
REMARK   10  A    between atoms: C16_22  and  C17_25 
REMARK   11  A    between atoms: C20_28  and  O4_29 
REMARK   12  A    between atoms: O4_29  and  C21_30 
REMARK   13  A    between atoms: C21_30  and  C22_31 
REMARK   14  A    between atoms: C22_31  and  C23_32 
REMARK   15  A    between atoms: C23_32  and  O5_33 
REMARK   16  A    between atoms: O5_33  and  C24_34 
ROOT
HETATM    1  N2  UNL     1      17.456  33.429  15.223  1.00  0.00    -0.357 N 
HETATM    2  C4  UNL     1      16.358  32.486  15.543  1.00  0.00     0.125 C 
HETATM    3  C5  UNL     1      16.852  31.291  16.266  1.00  0.00     0.022 C 
HETATM    4  C6  UNL     1      17.447  30.218  15.425  1.00  0.00     0.028 C 
HETATM    5  C7  UNL     1      18.107  30.656  14.176  1.00  0.00     0.079 C 
HETATM    6  C8  UNL     1      17.132  30.709  13.057  1.00  0.00     0.033 C 
HETATM    7  C9  UNL     1      18.994  31.814  14.233  1.00  0.00     0.086 C 
HETATM    8  C13 UNL     1      19.842  31.671  12.948  1.00  0.00     0.043 C 
HETATM    9  C14 UNL     1      20.674  30.412  13.290  1.00  0.00     0.113 C 
HETATM   10  S2  UNL     1      19.292  29.354  13.742  1.00  0.00     0.158 S 
HETATM   11  O6  UNL     1      18.780  28.563  12.591  1.00  0.00    -0.227 OA
HETATM   12  O7  UNL     1      19.576  28.495  14.907  1.00  0.00    -0.227 OA
HETATM   13  C32 UNL     1      18.362  33.184  14.147  1.00  0.00     0.146 C 
ENDROOT
BRANCH   9  14
HETATM   14  C15 UNL     1      21.415  29.926  12.097  1.00  0.00     0.052 C 
BRANCH  14  15
HETATM   15  C16 UNL     1      22.603  29.090  12.491  1.00  0.00     0.123 C 
BRANCH  15  16
HETATM   16  O3  UNL     1      22.380  28.524  13.731  1.00  0.00    -0.395 OA
ATOM     17  H3  UNL     1      22.541  27.589  13.688  1.00  0.00     0.210 HD
ENDBRANCH  15  16
BRANCH  15  18
HETATM   18  C17 UNL     1      22.840  27.963  11.515  1.00  0.00     0.014 C 
HETATM   19  C18 UNL     1      24.293  27.534  11.473  1.00  0.00     0.010 C 
HETATM   20  C19 UNL     1      24.414  26.043  11.331  1.00  0.00     0.032 C 
HETATM   21  C20 UNL     1      23.393  25.470  10.340  1.00  0.00     0.121 C 
HETATM   22  C30 UNL     1      21.967  25.842  10.716  1.00  0.00     0.032 C 
HETATM   23  C31 UNL     1      22.009  26.755  11.906  1.00  0.00     0.010 C 
BRANCH  21  24
HETATM   24  O4  UNL     1      23.709  25.741   9.072  1.00  0.00    -0.386 OA
BRANCH  24  25
HETATM   25  C21 UNL     1      23.557  24.987   8.002  1.00  0.00     0.170 C 
BRANCH  25  26
HETATM   26  C22 UNL     1      22.410  25.142   7.075  1.00  0.00     0.053 C 
BRANCH  26  27
HETATM   27  C23 UNL     1      21.265  24.195   7.142  1.00  0.00     0.178 C 
BRANCH  27  28
HETATM   28  O5  UNL     1      20.082  24.633   7.545  1.00  0.00    -0.345 OA
BRANCH  28  29
HETATM   29  C24 UNL     1      19.336  25.530   8.172  1.00  0.00     0.149 A 
HETATM   30  C25 UNL     1      19.038  26.804   7.709  1.00  0.00     0.152 A 
HETATM   31  F1  UNL     1      19.565  27.166   6.506  1.00  0.00    -0.203 F 
HETATM   32  C26 UNL     1      18.257  27.691   8.404  1.00  0.00     0.048 A 
HETATM   33  C27 UNL     1      17.733  27.316   9.624  1.00  0.00     0.048 A 
HETATM   34  C28 UNL     1      18.020  26.066  10.090  1.00  0.00     0.157 A 
HETATM   35  F2  UNL     1      17.507  25.678  11.302  1.00  0.00    -0.203 F 
HETATM   36  C29 UNL     1      18.787  25.176   9.420  1.00  0.00     0.191 A 
HETATM   37  F3  UNL     1      19.041  23.939   9.934  1.00  0.00    -0.200 F 
ENDBRANCH  28  29
ENDBRANCH  27  28
ENDBRANCH  26  27
ENDBRANCH  25  26
ENDBRANCH  24  25
ENDBRANCH  21  24
ENDBRANCH  15  18
ENDBRANCH  14  15
ENDBRANCH   9  14
BRANCH   7  38
HETATM   38  C10 UNL     1      19.964  31.843  15.325  1.00  0.00     0.271 C 
HETATM   39  O1  UNL     1      19.996  31.153  16.352  1.00  0.00    -0.264 OA
BRANCH  38  40
HETATM   40  O2  UNL     1      21.007  32.783  15.192  1.00  0.00    -0.321 OA
BRANCH  40  41
HETATM   41  C11 UNL     1      22.260  32.575  15.810  1.00  0.00     0.174 C 
HETATM   42  C12 UNL     1      23.301  32.570  14.702  1.00  0.00     0.034 C 
ENDBRANCH  40  41
ENDBRANCH  38  40
ENDBRANCH   7  38
BRANCH   1  43
HETATM   43  C3  UNL     1      17.533  34.573  16.052  1.00  0.00     0.169 C 
HETATM   44  S1  UNL     1      18.692  34.666  17.239  1.00  0.00    -0.041 SA
BRANCH  43  45
HETATM   45  N1  UNL     1      16.668  35.674  15.934  1.00  0.00    -0.367 N 
ATOM     46  H1  UNL     1      16.496  36.079  15.014  1.00  0.00     0.161 HD
BRANCH  45  47
HETATM   47  C2  UNL     1      16.007  36.250  17.109  1.00  0.00     0.117 C 
HETATM   48  C1  UNL     1      14.882  35.337  17.531  1.00  0.00     0.026 C 
ENDBRANCH  45  47
ENDBRANCH  43  45
ENDBRANCH   1  43
TORSDOF 16
ENDMDL
MODEL 5
REMARK VINA RESULT: -8.520693134      2.636      4.603
REMARK  16 active torsions:
REMARK  status: ('A' for Active; 'I' for Inactive)
REMARK    1  A    between atoms: C2_2  and  N1_3 
REMARK    2  A    between atoms: N1_3  and  C3_5 
REMARK    3  A    between atoms: C3_5  and  N2_7 
REMARK    4  A    between atoms: C9_13  and  C10_14 
REMARK    5  A    between atoms: C10_14  and  O2_16 
REMARK    6  A    between atoms: O2_16  and  C11_17 
REMARK    7  A    between atoms: C14_20  and  C15_21 
REMARK    8  A    between atoms: C15_21  and  C16_22 
REMARK    9  A    between atoms: C16_22  and  O3_23 
REMARK   10  A    between atoms: C16_22  and  C17_25 
REMARK   11  A    between atoms: C20_28  and  O4_29 
REMARK   12  A    between atoms: O4_29  and  C21_30 
REMARK   13  A    between atoms: C21_30  and  C22_31 
REMARK   14  A    between atoms: C22_31  and  C23_32 
REMARK   15  A    between atoms: C23_32  and  O5_33 
REMARK   16  A    between atoms: O5_33  and  C24_34 
ROOT
HETATM    1  N2  UNL     1      21.255  29.259  11.929  1.00  0.00    -0.357 N 
HETATM    2  C4  UNL     1      22.169  28.879  13.032  1.00  0.00     0.125 C 
HETATM    3  C5  UNL     1      21.426  28.505  14.258  1.00  0.00     0.022 C 
HETATM    4  C6  UNL     1      20.963  29.632  15.111  1.00  0.00     0.028 C 
HETATM    5  C7  UNL     1      20.652  30.897  14.411  1.00  0.00     0.079 C 
HETATM    6  C8  UNL     1      21.864  31.749  14.301  1.00  0.00     0.033 C 
HETATM    7  C9  UNL     1      19.871  30.832  13.179  1.00  0.00     0.086 C 
HETATM    8  C13 UNL     1      19.340  32.276  13.022  1.00  0.00     0.043 C 
HETATM    9  C14 UNL     1      18.354  32.352  14.212  1.00  0.00     0.113 C 
HETATM   10  S2  UNL     1      19.504  31.804  15.483  1.00  0.00     0.158 S 
HETATM   11  O6  UNL     1      20.208  32.936  16.141  1.00  0.00    -0.227 OA
HETATM   12  O7  UNL     1      18.886  30.900  16.471  1.00  0.00    -0.227 OA
HETATM   13  C32 UNL     1      20.611  30.534  11.896  1.00  0.00     0.146 C 
ENDROOT
BRANCH   9  14
HETATM   14  C15 UNL     1      17.880  33.746  14.418  1.00  0.00     0.052 C 
BRANCH  14  15
HETATM   15  C16 UNL     1      16.583  33.777  15.182  1.00  0.00     0.123 C 
BRANCH  15  16
HETATM   16  O3  UNL     1      16.345  32.536  15.741  1.00  0.00    -0.395 OA
ATOM     17  H3  UNL     1      15.454  32.499  16.068  1.00  0.00     0.210 HD
ENDBRANCH  15  16
BRANCH  15  18
HETATM   18  C17 UNL     1      16.624  34.780  16.308  1.00  0.00     0.014 C 
HETATM   19  C18 UNL     1      15.238  35.199  16.757  1.00  0.00     0.010 C 
HETATM   20  C19 UNL     1      15.179  35.367  18.249  1.00  0.00     0.032 C 
HETATM   21  C20 UNL     1      16.430  36.058  18.804  1.00  0.00     0.121 C 
HETATM   22  C30 UNL     1      17.703  35.325  18.415  1.00  0.00     0.032 C 
HETATM   23  C31 UNL     1      17.341  34.187  17.507  1.00  0.00     0.010 C 
BRANCH  21  24
HETATM   24  O4  UNL     1      16.450  37.365  18.534  1.00  0.00    -0.386 OA
BRANCH  24  25
HETATM   25  C21 UNL     1      16.112  38.376  19.309  1.00  0.00     0.170 C 
BRANCH  25  26
HETATM   26  C22 UNL     1      15.911  39.748  18.785  1.00  0.00     0.053 C 
BRANCH  26  27
HETATM   27  C23 UNL     1      16.873  40.320  17.804  1.00  0.00     0.178 C 
BRANCH  27  28
HETATM   28  O5  UNL     1      18.168  40.087  17.950  1.00  0.00    -0.345 OA
BRANCH  28  29
HETATM   29  C24 UNL     1      19.282  39.487  17.561  1.00  0.00     0.149 A 
HETATM   30  C25 UNL     1      19.935  38.466  18.238  1.00  0.00     0.152 A 
HETATM   31  F1  UNL     1      19.383  38.049  19.412  1.00  0.00    -0.203 F 
HETATM   32  C26 UNL     1      21.088  37.882  17.783  1.00  0.00     0.048 A 
HETATM   33  C27 UNL     1      21.642  38.315  16.597  1.00  0.00     0.048 A 
HETATM   34  C28 UNL     1      21.010  39.318  15.922  1.00  0.00     0.157 A 
HETATM   35  F2  UNL     1      21.548  39.762  14.740  1.00  0.00    -0.203 F 
HETATM   36  C29 UNL     1      19.872  39.908  16.352  1.00  0.00     0.191 A 
HETATM   37  F3  UNL     1      19.282  40.908  15.636  1.00  0.00    -0.200 F 
ENDBRANCH  28  29
ENDBRANCH  27  28
ENDBRANCH  26  27
ENDBRANCH  25  26
ENDBRANCH  24  25
ENDBRANCH  21  24
ENDBRANCH  15  18
ENDBRANCH  14  15
ENDBRANCH   9  14
BRANCH   7  38
HETATM   38  C10 UNL     1      18.677  29.991  13.206  1.00  0.00     0.271 C 
HETATM   39  O1  UNL     1      18.220  29.321  14.141  1.00  0.00    -0.264 OA
BRANCH  38  40
HETATM   40  O2  UNL     1      17.941  29.934  12.003  1.00  0.00    -0.321 OA
BRANCH  40  41
HETATM   41  C11 UNL     1      17.086  28.847  11.722  1.00  0.00     0.174 C 
HETATM   42  C12 UNL     1      16.074  29.337  10.697  1.00  0.00     0.034 C 
ENDBRANCH  40  41
ENDBRANCH  38  40
ENDBRANCH   7  38
BRANCH   1  43
HETATM   43  C3  UNL     1      21.076  28.278  10.925  1.00  0.00     0.169 C 
HETATM   44  S1  UNL     1      22.146  27.014  10.794  1.00  0.00    -0.041 SA
BRANCH  43  45
HETATM   45  N1  UNL     1      20.016  28.300  10.003  1.00  0.00    -0.367 N 
ATOM     46  H1  UNL     1      19.461  29.149   9.898  1.00  0.00     0.161 HD
BRANCH  45  47
HETATM   47  C2  UNL     1      19.695  27.125   9.187  1.00  0.00     0.117 C 
HETATM   48  C1  UNL     1      18.674  27.518   8.148  1.00  0.00     0.026 C 
ENDBRANCH  45  47
ENDBRANCH  43  45
ENDBRANCH   1  43
TORSDOF 16
ENDMDL
