MODEL 1
REMARK VINA RESULT: -8.244704725      0.000      0.000
REMARK  14 active torsions:
REMARK  status: ('A' for Active; 'I' for Inactive)
REMARK    1  A    between atoms: C2_2  and  C3_4 
REMARK       I    between atoms: C3_4  and  N1_6 
REMARK    2  A    between atoms: N1_6  and  C4_8 
REMARK    3  A    between atoms: C8_13  and  O2_14 
REMARK    4  A    between atoms: O2_14  and  C9_15 
REMARK    5  A    between atoms: C11_18  and  O4_19 
REMARK    6  A    between atoms: O4_19  and  C12_20 
REMARK       I    between atoms: C12_20  and  N2_22 
REMARK    7  A    between atoms: N2_22  and  C13_24 
REMARK    8  A    between atoms: C13_24  and  C14_25 
REMARK    9  A    between atoms: C14_25  and  C15_26 
REMARK   10  A    between atoms: C15_26  and  N3_27 
REMARK   11  A    between atoms: N3_27  and  C17_29 
REMARK   12  A    between atoms: C17_29  and  C18_30 
REMARK   13  A    between atoms: N4_40  and  C26_41 
REMARK   14  A    between atoms: C26_41  and  C27_42 
ROOT
HETATM    1  C4  UNL     1      21.209  24.505   8.985  1.00  0.00     0.338 C 
HETATM    2  C5  UNL     1      21.574  25.380  10.126  1.00  0.00     0.109 C 
HETATM    3  S1  UNL     1      23.350  25.599  10.405  1.00  0.00    -0.153 SA
HETATM    4  C6  UNL     1      23.461  27.354  10.962  1.00  0.00     0.076 C 
HETATM    5  C7  UNL     1      24.581  27.414  11.969  1.00  0.00     0.024 C 
HETATM    6  C8  UNL     1      22.154  27.634  11.710  1.00  0.00     0.175 C 
HETATM    7  C11 UNL     1      20.970  27.716  10.773  1.00  0.00     0.171 C 
HETATM    8  C24 UNL     1      21.098  26.730   9.633  1.00  0.00     0.064 C 
HETATM    9  C25 UNL     1      19.834  26.378   8.953  1.00  0.00     0.283 C 
HETATM   10  N4  UNL     1      19.869  24.942   8.673  1.00  0.00     0.113 N 
ENDROOT
BRANCH   7  11
HETATM   11  O4  UNL     1      19.776  27.583  11.471  1.00  0.00    -0.295 OA
BRANCH  11  12
HETATM   12  C12 UNL     1      18.931  28.659  11.761  1.00  0.00     0.361 C 
HETATM   13  O5  UNL     1      18.600  29.362  10.776  1.00  0.00    -0.239 OA
HETATM   14  N2  UNL     1      18.481  28.932  13.071  1.00  0.00    -0.337 N 
ATOM     15  H2  UNL     1      18.797  28.317  13.821  1.00  0.00     0.164 HD
BRANCH  14  16
HETATM   16  C13 UNL     1      17.613  30.011  13.416  1.00  0.00     0.126 C 
BRANCH  16  17
HETATM   17  C14 UNL     1      18.343  31.236  13.844  1.00  0.00     0.039 C 
BRANCH  17  18
HETATM   18  C15 UNL     1      17.318  32.324  14.168  1.00  0.00     0.123 C 
BRANCH  18  19
HETATM   19  N3  UNL     1      16.994  32.382  15.526  1.00  0.00    -0.393 N 
HETATM   20  C16 UNL     1      17.891  31.906  16.487  1.00  0.00     0.148 C 
BRANCH  19  21
HETATM   21  C17 UNL     1      15.820  33.035  15.867  1.00  0.00     0.099 C 
BRANCH  21  22
HETATM   22  C18 UNL     1      15.892  34.273  16.653  1.00  0.00     0.018 A 
HETATM   23  C19 UNL     1      15.629  34.304  17.997  1.00  0.00     0.017 A 
HETATM   24  C20 UNL     1      15.690  35.504  18.709  1.00  0.00     0.025 A 
HETATM   25  C21 UNL     1      16.017  36.667  18.055  1.00  0.00     0.037 A 
HETATM   26 CL1  UNL     1      16.098  38.168  18.922  1.00  0.00    -0.084 Cl
HETATM   27  C22 UNL     1      16.283  36.625  16.685  1.00  0.00     0.067 A 
HETATM   28  C23 UNL     1      16.226  35.452  15.977  1.00  0.00     0.129 A 
HETATM   29  F1  UNL     1      16.488  35.437  14.655  1.00  0.00    -0.205 F 
ENDBRANCH  21  22
ENDBRANCH  19  21
ENDBRANCH  18  19
ENDBRANCH  17  18
ENDBRANCH  16  17
ENDBRANCH  14  16
ENDBRANCH  11  12
ENDBRANCH   7  11
BRANCH   6  30
HETATM   30  O2  UNL     1      22.301  28.903  12.313  1.00  0.00    -0.312 OA
BRANCH  30  31
HETATM   31  C9  UNL     1      21.908  29.184  13.603  1.00  0.00     0.255 C 
HETATM   32  C10 UNL     1      22.183  30.550  14.133  1.00  0.00     0.126 C 
HETATM   33  O3  UNL     1      21.345  28.289  14.265  1.00  0.00    -0.266 OA
ENDBRANCH  30  31
ENDBRANCH   6  30
BRANCH   1  34
HETATM   34  N1  UNL     1      22.023  24.812   7.811  1.00  0.00    -0.326 N 
HETATM   35  C3  UNL     1      22.335  23.796   6.866  1.00  0.00     0.259 C 
HETATM   36  O1  UNL     1      21.935  22.613   6.985  1.00  0.00    -0.267 OA
ATOM     37  H1  UNL     1      22.369  25.761   7.668  1.00  0.00     0.165 HD
BRANCH  35  38
HETATM   38  C2  UNL     1      23.148  24.134   5.714  1.00  0.00     0.069 C 
HETATM   39  C1  UNL     1      22.701  24.920   4.763  1.00  0.00     0.037 C 
HETATM   40 BR1  UNL     1      24.902  23.415   5.576  1.00  0.00    -0.046 Br
ENDBRANCH  35  38
ENDBRANCH   1  34
BRANCH  10  41
HETATM   41  C26 UNL     1      18.917  24.221   9.457  1.00  0.00     0.275 C 
BRANCH  41  42
HETATM   42  C27 UNL     1      17.824  25.116   9.980  1.00  0.00     0.026 C 
HETATM   43  C28 UNL     1      17.546  24.815  11.455  1.00  0.00     0.007 C 
ENDBRANCH  41  42
ENDBRANCH  10  41
TORSDOF 14
ENDMDL
MODEL 2
REMARK VINA RESULT: -8.223122200      5.830     11.385
REMARK  14 active torsions:
REMARK  status: ('A' for Active; 'I' for Inactive)
REMARK    1  A    between atoms: C2_2  and  C3_4 
REMARK       I    between atoms: C3_4  and  N1_6 
REMARK    2  A    between atoms: N1_6  and  C4_8 
REMARK    3  A    between atoms: C8_13  and  O2_14 
REMARK    4  A    between atoms: O2_14  and  C9_15 
REMARK    5  A    between atoms: C11_18  and  O4_19 
REMARK    6  A    between atoms: O4_19  and  C12_20 
REMARK       I    between atoms: C12_20  and  N2_22 
REMARK    7  A    between atoms: N2_22  and  C13_24 
REMARK    8  A    between atoms: C13_24  and  C14_25 
REMARK    9  A    between atoms: C14_25  and  C15_26 
REMARK   10  A    between atoms: C15_26  and  N3_27 
REMARK   11  A    between atoms: N3_27  and  C17_29 
REMARK   12  A    between atoms: C17_29  and  C18_30 
REMARK   13  A    between atoms: N4_40  and  C26_41 
REMARK   14  A    between atoms: C26_41  and  C27_42 
ROOT
HETATM    1  C4  UNL     1      20.267  34.192  17.175  1.00  0.00     0.338 C 
HETATM    2  C5  UNL     1      19.416  33.169  16.519  1.00  0.00     0.109 C 
HETATM    3  S1  UNL     1      17.645  33.275  16.882  1.00  0.00    -0.153 SA
HETATM    4  C6  UNL     1      16.870  32.785  15.282  1.00  0.00     0.076 C 
HETATM    5  C7  UNL     1      15.608  32.038  15.628  1.00  0.00     0.024 C 
HETATM    6  C8  UNL     1      17.838  31.783  14.644  1.00  0.00     0.175 C 
HETATM    7  C11 UNL     1      19.100  32.450  14.147  1.00  0.00     0.171 C 
HETATM    8  C24 UNL     1      19.529  33.574  15.063  1.00  0.00     0.064 C 
HETATM    9  C25 UNL     1      20.951  33.965  14.966  1.00  0.00     0.283 C 
HETATM   10  N4  UNL     1      21.432  34.221  16.324  1.00  0.00     0.113 N 
ENDROOT
BRANCH   7  11
HETATM   11  O4  UNL     1      20.104  31.513  13.933  1.00  0.00    -0.295 OA
BRANCH  11  12
HETATM   12  C12 UNL     1      20.540  31.131  12.660  1.00  0.00     0.361 C 
HETATM   13  O5  UNL     1      20.372  31.985  11.757  1.00  0.00    -0.239 OA
HETATM   14  N2  UNL     1      21.130  29.872  12.413  1.00  0.00    -0.337 N 
ATOM     15  H2  UNL     1      21.229  29.230  13.199  1.00  0.00     0.164 HD
BRANCH  14  16
HETATM   16  C13 UNL     1      21.598  29.439  11.137  1.00  0.00     0.126 C 
BRANCH  16  17
HETATM   17  C14 UNL     1      22.200  28.078  11.164  1.00  0.00     0.039 C 
BRANCH  17  18
HETATM   18  C15 UNL     1      21.375  27.201  12.109  1.00  0.00     0.123 C 
BRANCH  18  19
HETATM   19  N3  UNL     1      20.575  26.275  11.434  1.00  0.00    -0.393 N 
HETATM   20  C16 UNL     1      21.056  24.989  11.167  1.00  0.00     0.148 C 
BRANCH  19  21
HETATM   21  C17 UNL     1      19.268  26.649  11.165  1.00  0.00     0.099 C 
BRANCH  21  22
HETATM   22  C18 UNL     1      18.783  26.608   9.780  1.00  0.00     0.018 A 
HETATM   23  C19 UNL     1      19.296  27.413   8.798  1.00  0.00     0.017 A 
HETATM   24  C20 UNL     1      18.797  27.357   7.495  1.00  0.00     0.025 A 
HETATM   25  C21 UNL     1      17.779  26.485   7.193  1.00  0.00     0.037 A 
HETATM   26 CL1  UNL     1      17.145  26.402   5.581  1.00  0.00    -0.084 Cl
HETATM   27  C22 UNL     1      17.262  25.669   8.201  1.00  0.00     0.067 A 
HETATM   28  C23 UNL     1      17.746  25.716   9.484  1.00  0.00     0.129 A 
HETATM   29  F1  UNL     1      17.231  24.916  10.439  1.00  0.00    -0.205 F 
ENDBRANCH  21  22
ENDBRANCH  19  21
ENDBRANCH  18  19
ENDBRANCH  17  18
ENDBRANCH  16  17
ENDBRANCH  14  16
ENDBRANCH  11  12
ENDBRANCH   7  11
BRANCH   6  30
HETATM   30  O2  UNL     1      17.174  31.247  13.518  1.00  0.00    -0.312 OA
BRANCH  30  31
HETATM   31  C9  UNL     1      17.361  29.960  13.063  1.00  0.00     0.255 C 
HETATM   32  C10 UNL     1      17.081  29.682  11.627  1.00  0.00     0.126 C 
HETATM   33  O3  UNL     1      17.753  29.093  13.870  1.00  0.00    -0.266 OA
ENDBRANCH  30  31
ENDBRANCH   6  30
BRANCH   1  34
HETATM   34  N1  UNL     1      19.658  35.516  17.080  1.00  0.00    -0.326 N 
HETATM   35  C3  UNL     1      19.462  36.303  18.248  1.00  0.00     0.259 C 
HETATM   36  O1  UNL     1      19.796  35.914  19.392  1.00  0.00    -0.267 OA
ATOM     37  H1  UNL     1      19.371  35.879  16.170  1.00  0.00     0.165 HD
BRANCH  35  38
HETATM   38  C2  UNL     1      18.850  37.613  18.119  1.00  0.00     0.069 C 
HETATM   39  C1  UNL     1      19.506  38.710  18.418  1.00  0.00     0.037 C 
HETATM   40 BR1  UNL     1      17.056  37.740  17.507  1.00  0.00    -0.046 Br
ENDBRANCH  35  38
ENDBRANCH   1  34
BRANCH  10  41
HETATM   41  C26 UNL     1      22.381  33.241  16.748  1.00  0.00     0.275 C 
BRANCH  41  42
HETATM   42  C27 UNL     1      22.770  32.311  15.629  1.00  0.00     0.026 C 
HETATM   43  C28 UNL     1      23.974  32.868  14.864  1.00  0.00     0.007 C 
ENDBRANCH  41  42
ENDBRANCH  10  41
TORSDOF 14
ENDMDL
MODEL 3
REMARK VINA RESULT: -8.172518399      2.864      4.025
REMARK  14 active torsions:
REMARK  status: ('A' for Active; 'I' for Inactive)
REMARK    1  A    between atoms: C2_2  and  C3_4 
REMARK       I    between atoms: C3_4  and  N1_6 
REMARK    2  A    between atoms: N1_6  and  C4_8 
REMARK    3  A    between atoms: C8_13  and  O2_14 
REMARK    4  A    between atoms: O2_14  and  C9_15 
REMARK    5  A    between atoms: C11_18  and  O4_19 
REMARK    6  A    between atoms: O4_19  and  C12_20 
REMARK       I    between atoms: C12_20  and  N2_22 
REMARK    7  A    between atoms: N2_22  and  C13_24 
REMARK    8  A    between atoms: C13_24  and  C14_25 
REMARK    9  A    between atoms: C14_25  and  C15_26 
REMARK   10  A    between atoms: C15_26  and  N3_27 
REMARK   11  A    between atoms: N3_27  and  C17_29 
REMARK   12  A    between atoms: C17_29  and  C18_30 
REMARK   13  A    between atoms: N4_40  and  C26_41 
REMARK   14  A    between atoms: C26_41  and  C27_42 
ROOT
HETATM    1  C4  UNL     1      18.101  27.283   9.550  1.00  0.00     0.338 C 
HETATM    2  C5  UNL     1      19.277  26.626  10.173  1.00  0.00     0.109 C 
HETATM    3  S1  UNL     1      20.218  25.519   9.093  1.00  0.00    -0.153 SA
HETATM    4  C6  UNL     1      21.957  25.790   9.646  1.00  0.00     0.076 C 
HETATM    5  C7  UNL     1      22.662  24.465   9.506  1.00  0.00     0.024 C 
HETATM    6  C8  UNL     1      21.869  26.109  11.142  1.00  0.00     0.175 C 
HETATM    7  C11 UNL     1      21.282  27.478  11.398  1.00  0.00     0.171 C 
HETATM    8  C24 UNL     1      20.196  27.810  10.397  1.00  0.00     0.064 C 
HETATM    9  C25 UNL     1      19.245  28.860  10.817  1.00  0.00     0.283 C 
HETATM   10  N4  UNL     1      17.909  28.442  10.388  1.00  0.00     0.113 N 
ENDROOT
BRANCH   7  11
HETATM   11  O4  UNL     1      20.857  27.597  12.715  1.00  0.00    -0.295 OA
BRANCH  11  12
HETATM   12  C12 UNL     1      21.283  28.618  13.571  1.00  0.00     0.361 C 
HETATM   13  O5  UNL     1      20.918  28.503  14.767  1.00  0.00    -0.239 OA
HETATM   14  N2  UNL     1      22.069  29.701  13.121  1.00  0.00    -0.337 N 
ATOM     15  H2  UNL     1      22.321  29.727  12.133  1.00  0.00     0.164 HD
BRANCH  14  16
HETATM   16  C13 UNL     1      22.534  30.760  13.955  1.00  0.00     0.126 C 
BRANCH  16  17
HETATM   17  C14 UNL     1      21.815  32.044  13.727  1.00  0.00     0.039 C 
BRANCH  17  18
HETATM   18  C15 UNL     1      20.881  32.294  14.913  1.00  0.00     0.123 C 
BRANCH  18  19
HETATM   19  N3  UNL     1      19.548  31.981  14.634  1.00  0.00    -0.393 N 
HETATM   20  C16 UNL     1      19.068  32.040  13.322  1.00  0.00     0.148 C 
BRANCH  19  21
HETATM   21  C17 UNL     1      18.781  31.499  15.683  1.00  0.00     0.099 C 
BRANCH  21  22
HETATM   22  C18 UNL     1      17.663  32.308  16.183  1.00  0.00     0.018 A 
HETATM   23  C19 UNL     1      16.358  32.026  15.877  1.00  0.00     0.017 A 
HETATM   24  C20 UNL     1      15.322  32.829  16.357  1.00  0.00     0.025 A 
HETATM   25  C21 UNL     1      15.613  33.916  17.146  1.00  0.00     0.037 A 
HETATM   26 CL1  UNL     1      14.340  34.926  17.753  1.00  0.00    -0.084 Cl
HETATM   27  C22 UNL     1      16.946  34.195  17.453  1.00  0.00     0.067 A 
HETATM   28  C23 UNL     1      17.971  33.413  16.986  1.00  0.00     0.129 A 
HETATM   29  F1  UNL     1      19.250  33.703  17.296  1.00  0.00    -0.205 F 
ENDBRANCH  21  22
ENDBRANCH  19  21
ENDBRANCH  18  19
ENDBRANCH  17  18
ENDBRANCH  16  17
ENDBRANCH  14  16
ENDBRANCH  11  12
ENDBRANCH   7  11
BRANCH   6  30
HETATM   30  O2  UNL     1      23.196  26.124  11.627  1.00  0.00    -0.312 OA
BRANCH  30  31
HETATM   31  C9  UNL     1      24.061  27.181  11.449  1.00  0.00     0.255 C 
HETATM   32  C10 UNL     1      24.549  27.456  10.068  1.00  0.00     0.126 C 
HETATM   33  O3  UNL     1      24.396  27.853  12.444  1.00  0.00    -0.266 OA
ENDBRANCH  30  31
ENDBRANCH   6  30
BRANCH   1  34
HETATM   34  N1  UNL     1      18.432  27.790   8.220  1.00  0.00    -0.326 N 
HETATM   35  C3  UNL     1      17.966  27.117   7.058  1.00  0.00     0.259 C 
HETATM   36  O1  UNL     1      17.261  26.081   7.110  1.00  0.00    -0.267 OA
ATOM     37  H1  UNL     1      19.000  28.632   8.126  1.00  0.00     0.165 HD
BRANCH  35  38
HETATM   38  C2  UNL     1      18.315  27.645   5.752  1.00  0.00     0.069 C 
HETATM   39  C1  UNL     1      19.388  27.242   5.113  1.00  0.00     0.037 C 
HETATM   40 BR1  UNL     1      17.193  28.954   4.953  1.00  0.00    -0.046 Br
ENDBRANCH  35  38
ENDBRANCH   1  34
BRANCH  10  41
HETATM   41  C26 UNL     1      17.070  28.118  11.498  1.00  0.00     0.275 C 
BRANCH  41  42
HETATM   42  C27 UNL     1      17.563  28.739  12.779  1.00  0.00     0.026 C 
HETATM   43  C28 UNL     1      17.540  27.712  13.914  1.00  0.00     0.007 C 
ENDBRANCH  41  42
ENDBRANCH  10  41
TORSDOF 14
ENDMDL
MODEL 4
REMARK VINA RESULT: -8.124938083      2.175      2.486
REMARK  14 active torsions:
REMARK  status: ('A' for Active; 'I' for Inactive)
REMARK    1  A    between atoms: C2_2  and  C3_4 
REMARK       I    between atoms: C3_4  and  N1_6 
REMARK    2  A    between atoms: N1_6  and  C4_8 
REMARK    3  A    between atoms: C8_13  and  O2_14 
REMARK    4  A    between atoms: O2_14  and  C9_15 
REMARK    5  A    between atoms: C11_18  and  O4_19 
REMARK    6  A    between atoms: O4_19  and  C12_20 
REMARK       I    between atoms: C12_20  and  N2_22 
REMARK    7  A    between atoms: N2_22  and  C13_24 
REMARK    8  A    between atoms: C13_24  and  C14_25 
REMARK    9  A    between atoms: C14_25  and  C15_26 
REMARK   10  A    between atoms: C15_26  and  N3_27 
REMARK   11  A    between atoms: N3_27  and  C17_29 
REMARK   12  A    between atoms: C17_29  and  C18_30 
REMARK   13  A    between atoms: N4_40  and  C26_41 
REMARK   14  A    between atoms: C26_41  and  C27_42 
ROOT
HETATM    1  C4  UNL     1      19.903  25.473   9.206  1.00  0.00     0.338 C 
HETATM    2  C5  UNL     1      20.532  26.156  10.363  1.00  0.00     0.109 C 
HETATM    3  S1  UNL     1      22.338  26.056  10.443  1.00  0.00    -0.153 SA
HETATM    4  C6  UNL     1      22.808  27.704  11.125  1.00  0.00     0.076 C 
HETATM    5  C7  UNL     1      24.021  27.479  11.991  1.00  0.00     0.024 C 
HETATM    6  C8  UNL     1      21.655  28.113  12.046  1.00  0.00     0.175 C 
HETATM    7  C11 UNL     1      20.411  28.481  11.270  1.00  0.00     0.171 C 
HETATM    8  C24 UNL     1      20.246  27.609  10.045  1.00  0.00     0.064 C 
HETATM    9  C25 UNL     1      18.875  27.537   9.496  1.00  0.00     0.283 C 
HETATM   10  N4  UNL     1      18.633  26.150   9.096  1.00  0.00     0.113 N 
ENDROOT
BRANCH   7  11
HETATM   11  O4  UNL     1      19.292  28.473  12.094  1.00  0.00    -0.295 OA
BRANCH  11  12
HETATM   12  C12 UNL     1      18.580  29.627  12.436  1.00  0.00     0.361 C 
HETATM   13  O5  UNL     1      17.923  30.148  11.503  1.00  0.00    -0.239 OA
HETATM   14  N2  UNL     1      18.599  30.165  13.741  1.00  0.00    -0.337 N 
ATOM     15  H2  UNL     1      19.161  29.687  14.445  1.00  0.00     0.164 HD
BRANCH  14  16
HETATM   16  C13 UNL     1      17.885  31.334  14.141  1.00  0.00     0.126 C 
BRANCH  16  17
HETATM   17  C14 UNL     1      17.277  31.214  15.495  1.00  0.00     0.039 C 
BRANCH  17  18
HETATM   18  C15 UNL     1      16.183  32.275  15.631  1.00  0.00     0.123 C 
BRANCH  18  19
HETATM   19  N3  UNL     1      16.680  33.525  16.012  1.00  0.00    -0.393 N 
HETATM   20  C16 UNL     1      16.322  34.674  15.299  1.00  0.00     0.148 C 
BRANCH  19  21
HETATM   21  C17 UNL     1      17.425  33.579  17.178  1.00  0.00     0.099 C 
BRANCH  21  22
HETATM   22  C18 UNL     1      18.679  34.343  17.193  1.00  0.00     0.018 A 
HETATM   23  C19 UNL     1      19.727  34.048  16.362  1.00  0.00     0.017 A 
HETATM   24  C20 UNL     1      20.911  34.787  16.417  1.00  0.00     0.025 A 
HETATM   25  C21 UNL     1      21.027  35.821  17.314  1.00  0.00     0.037 A 
HETATM   26 CL1  UNL     1      22.490  36.750  17.397  1.00  0.00    -0.084 Cl
HETATM   27  C22 UNL     1      19.953  36.113  18.156  1.00  0.00     0.067 A 
HETATM   28  C23 UNL     1      18.786  35.394  18.111  1.00  0.00     0.129 A 
HETATM   29  F1  UNL     1      17.763  35.697  18.934  1.00  0.00    -0.205 F 
ENDBRANCH  21  22
ENDBRANCH  19  21
ENDBRANCH  18  19
ENDBRANCH  17  18
ENDBRANCH  16  17
ENDBRANCH  14  16
ENDBRANCH  11  12
ENDBRANCH   7  11
BRANCH   6  30
HETATM   30  O2  UNL     1      22.081  29.274  12.731  1.00  0.00    -0.312 OA
BRANCH  30  31
HETATM   31  C9  UNL     1      21.801  29.524  14.056  1.00  0.00     0.255 C 
HETATM   32  C10 UNL     1      22.150  30.867  14.600  1.00  0.00     0.126 C 
HETATM   33  O3  UNL     1      21.272  28.622  14.736  1.00  0.00    -0.266 OA
ENDBRANCH  30  31
ENDBRANCH   6  30
BRANCH   1  34
HETATM   34  N1  UNL     1      20.629  25.763   7.972  1.00  0.00    -0.326 N 
HETATM   35  C3  UNL     1      21.064  24.704   7.129  1.00  0.00     0.259 C 
HETATM   36  O1  UNL     1      20.850  23.496   7.390  1.00  0.00    -0.267 OA
ATOM     37  H1  UNL     1      20.825  26.730   7.714  1.00  0.00     0.165 HD
BRANCH  35  38
HETATM   38  C2  UNL     1      21.786  25.026   5.912  1.00  0.00     0.069 C 
HETATM   39  C1  UNL     1      21.162  25.418   4.826  1.00  0.00     0.037 C 
HETATM   40 BR1  UNL     1      23.679  24.870   5.891  1.00  0.00    -0.046 Br
ENDBRANCH  35  38
ENDBRANCH   1  34
BRANCH  10  41
HETATM   41  C26 UNL     1      17.659  25.517   9.927  1.00  0.00     0.275 C 
BRANCH  41  42
HETATM   42  C27 UNL     1      17.759  24.015   9.870  1.00  0.00     0.026 C 
HETATM   43  C28 UNL     1      17.492  23.408  11.250  1.00  0.00     0.007 C 
ENDBRANCH  41  42
ENDBRANCH  10  41
TORSDOF 14
ENDMDL
MODEL 5
REMARK VINA RESULT: -8.090896896      2.891      4.009
REMARK  14 active torsions:
REMARK  status: ('A' for Active; 'I' for Inactive)
REMARK    1  A    between atoms: C2_2  and  C3_4 
REMARK       I    between atoms: C3_4  and  N1_6 
REMARK    2  A    between atoms: N1_6  and  C4_8 
REMARK    3  A    between atoms: C8_13  and  O2_14 
REMARK    4  A    between atoms: O2_14  and  C9_15 
REMARK    5  A    between atoms: C11_18  and  O4_19 
REMARK    6  A    between atoms: O4_19  and  C12_20 
REMARK       I    between atoms: C12_20  and  N2_22 
REMARK    7  A    between atoms: N2_22  and  C13_24 
REMARK    8  A    between atoms: C13_24  and  C14_25 
REMARK    9  A    between atoms: C14_25  and  C15_26 
REMARK   10  A    between atoms: C15_26  and  N3_27 
REMARK   11  A    between atoms: N3_27  and  C17_29 
REMARK   12  A    between atoms: C17_29  and  C18_30 
REMARK   13  A    between atoms: N4_40  and  C26_41 
REMARK   14  A    between atoms: C26_41  and  C27_42 
ROOT
HETATM    1  C4  UNL     1      18.179  25.445   8.907  1.00  0.00     0.338 C 
HETATM    2  C5  UNL     1      19.629  25.249   9.151  1.00  0.00     0.109 C 
HETATM    3  S1  UNL     1      20.552  24.479   7.796  1.00  0.00    -0.153 SA
HETATM    4  C6  UNL     1      22.181  25.342   7.870  1.00  0.00     0.076 C 
HETATM    5  C7  UNL     1      23.221  24.327   7.471  1.00  0.00     0.024 C 
HETATM    6  C8  UNL     1      22.405  25.675   9.348  1.00  0.00     0.175 C 
HETATM    7  C11 UNL     1      21.488  26.776   9.828  1.00  0.00     0.171 C 
HETATM    8  C24 UNL     1      20.124  26.681   9.180  1.00  0.00     0.064 C 
HETATM    9  C25 UNL     1      19.029  27.366   9.899  1.00  0.00     0.283 C 
HETATM   10  N4  UNL     1      17.848  26.506   9.828  1.00  0.00     0.113 N 
ENDROOT
BRANCH   7  11
HETATM   11  O4  UNL     1      21.426  26.800  11.216  1.00  0.00    -0.295 OA
BRANCH  11  12
HETATM   12  C12 UNL     1      21.630  27.957  11.975  1.00  0.00     0.361 C 
HETATM   13  O5  UNL     1      21.987  28.969  11.324  1.00  0.00    -0.239 OA
HETATM   14  N2  UNL     1      21.445  27.983  13.375  1.00  0.00    -0.337 N 
ATOM     15  H2  UNL     1      21.159  27.119  13.833  1.00  0.00     0.164 HD
BRANCH  14  16
HETATM   16  C13 UNL     1      21.633  29.138  14.190  1.00  0.00     0.126 C 
BRANCH  16  17
HETATM   17  C14 UNL     1      20.406  29.535  14.935  1.00  0.00     0.039 C 
BRANCH  17  18
HETATM   18  C15 UNL     1      19.450  30.229  13.964  1.00  0.00     0.123 C 
BRANCH  18  19
HETATM   19  N3  UNL     1      19.166  31.549  14.327  1.00  0.00    -0.393 N 
HETATM   20  C16 UNL     1      20.098  32.297  15.053  1.00  0.00     0.148 C 
BRANCH  19  21
HETATM   21  C17 UNL     1      17.995  32.100  13.833  1.00  0.00     0.099 C 
BRANCH  21  22
HETATM   22  C18 UNL     1      17.139  32.886  14.731  1.00  0.00     0.018 A 
HETATM   23  C19 UNL     1      17.029  34.248  14.633  1.00  0.00     0.017 A 
HETATM   24  C20 UNL     1      16.219  34.963  15.517  1.00  0.00     0.025 A 
HETATM   25  C21 UNL     1      15.522  34.295  16.495  1.00  0.00     0.037 A 
HETATM   26 CL1  UNL     1      14.510  35.167  17.602  1.00  0.00    -0.084 Cl
HETATM   27  C22 UNL     1      15.640  32.907  16.585  1.00  0.00     0.067 A 
HETATM   28  C23 UNL     1      16.435  32.195  15.723  1.00  0.00     0.129 A 
HETATM   29  F1  UNL     1      16.531  30.855  15.830  1.00  0.00    -0.205 F 
ENDBRANCH  21  22
ENDBRANCH  19  21
ENDBRANCH  18  19
ENDBRANCH  17  18
ENDBRANCH  16  17
ENDBRANCH  14  16
ENDBRANCH  11  12
ENDBRANCH   7  11
BRANCH   6  30
HETATM   30  O2  UNL     1      23.729  26.156   9.454  1.00  0.00    -0.312 OA
BRANCH  30  31
HETATM   31  C9  UNL     1      24.455  26.140  10.625  1.00  0.00     0.255 C 
HETATM   32  C10 UNL     1      25.354  27.296  10.902  1.00  0.00     0.126 C 
HETATM   33  O3  UNL     1      24.329  25.166  11.393  1.00  0.00    -0.266 OA
ENDBRANCH  30  31
ENDBRANCH   6  30
BRANCH   1  34
HETATM   34  N1  UNL     1      17.942  25.978   7.567  1.00  0.00    -0.326 N 
HETATM   35  C3  UNL     1      17.005  25.353   6.700  1.00  0.00     0.259 C 
HETATM   36  O1  UNL     1      16.345  24.339   7.031  1.00  0.00    -0.267 OA
ATOM     37  H1  UNL     1      18.452  26.804   7.253  1.00  0.00     0.165 HD
BRANCH  35  38
HETATM   38  C2  UNL     1      16.797  25.905   5.375  1.00  0.00     0.069 C 
HETATM   39  C1  UNL     1      16.025  25.310   4.496  1.00  0.00     0.037 C 
HETATM   40 BR1  UNL     1      17.666  27.527   4.901  1.00  0.00    -0.046 Br
ENDBRANCH  35  38
ENDBRANCH   1  34
BRANCH  10  41
HETATM   41  C26 UNL     1      17.503  25.965  11.104  1.00  0.00     0.275 C 
BRANCH  41  42
HETATM   42  C27 UNL     1      18.188  26.695  12.230  1.00  0.00     0.026 C 
HETATM   43  C28 UNL     1      17.161  27.438  13.089  1.00  0.00     0.007 C 
ENDBRANCH  41  42
ENDBRANCH  10  41
TORSDOF 14
ENDMDL
