MODEL 1
REMARK VINA RESULT: -7.155101161      0.000      0.000
REMARK  14 active torsions:
REMARK  status: ('A' for Active; 'I' for Inactive)
REMARK    1  A    between atoms: C4_6  and  C5_7 
REMARK       I    between atoms: C5_7  and  N1_9 
REMARK    2  A    between atoms: N1_9  and  C6_11 
REMARK    3  A    between atoms: C6_11  and  C7_12 
REMARK    4  A    between atoms: C7_12  and  C8_13 
REMARK    5  A    between atoms: C8_13  and  C9_14 
REMARK    6  A    between atoms: C9_14  and  C10_15 
REMARK    7  A    between atoms: C10_15  and  N2_16 
REMARK    8  A    between atoms: N2_16  and  C11_17 
REMARK    9  A    between atoms: N2_16  and  C13_20 
REMARK   10  A    between atoms: C11_17  and  C12_18 
REMARK   11  A    between atoms: C13_20  and  C14_21 
REMARK   12  A    between atoms: C15_23  and  O3_24 
REMARK   13  A    between atoms: O3_24  and  C16_25 
REMARK   14  A    between atoms: C28_42  and  O7_43 
ROOT
HETATM    1  C1  UNL     1      18.135  25.642  10.811  1.00  0.00     0.024 C 
HETATM    2  C2  UNL     1      18.189  26.670   9.939  1.00  0.00    -0.005 C 
HETATM    3  C3  UNL     1      18.991  27.817  10.162  1.00  0.00     0.215 C 
HETATM    4  O1  UNL     1      20.093  27.852   9.534  1.00  0.00    -0.280 OA
HETATM    5  S1  UNL     1      18.937  29.349  11.135  1.00  0.00    -0.070 SA
HETATM    6  C4  UNL     1      20.678  29.672  11.714  1.00  0.00     0.179 C 
HETATM    7  C15 UNL     1      21.242  28.627  12.601  1.00  0.00     0.187 C 
HETATM    8  C18 UNL     1      22.575  28.074  12.289  1.00  0.00     0.188 A 
HETATM    9  O5  UNL     1      22.973  27.956  10.885  1.00  0.00    -0.367 OA
HETATM   10  C19 UNL     1      22.918  26.847  11.740  1.00  0.00     0.087 A 
HETATM   11  C20 UNL     1      24.386  26.366  11.979  1.00  0.00     0.049 C 
HETATM   12  C21 UNL     1      22.056  25.688  11.552  1.00  0.00     0.044 C 
HETATM   13  C22 UNL     1      22.128  24.804  10.372  1.00  0.00     0.032 C 
HETATM   14  C23 UNL     1      22.350  25.350   9.052  1.00  0.00    -0.002 C 
HETATM   15  C24 UNL     1      21.667  25.249   7.917  1.00  0.00     0.004 C 
HETATM   16  C25 UNL     1      22.335  26.029   6.776  1.00  0.00     0.068 C 
HETATM   17  N3  UNL     1      20.495  24.592   7.566  1.00  0.00    -0.331 N 
ATOM     18  H3  UNL     1      20.684  23.838   6.907  1.00  0.00     0.168 HD
HETATM   19  C26 UNL     1      19.104  24.669   7.862  1.00  0.00     0.229 C 
HETATM   20  O6  UNL     1      18.722  23.593   8.479  1.00  0.00    -0.273 OA
HETATM   21  C27 UNL     1      18.083  25.653   7.617  1.00  0.00     0.115 C 
HETATM   22  C28 UNL     1      16.693  25.108   7.231  1.00  0.00     0.132 C 
HETATM   23  C29 UNL     1      16.398  25.246   8.753  1.00  0.00     0.043 C 
HETATM   24  C30 UNL     1      17.354  26.346   8.712  1.00  0.00     0.040 C 
ENDROOT
BRANCH   6  25
HETATM   25  C5  UNL     1      20.787  31.058  12.097  1.00  0.00     0.234 C 
HETATM   26  O2  UNL     1      20.366  31.963  11.309  1.00  0.00    -0.272 OA
HETATM   27  N1  UNL     1      21.353  31.436  13.325  1.00  0.00    -0.360 N 
ATOM     28  H1  UNL     1      21.686  30.727  13.978  1.00  0.00     0.162 HD
BRANCH  27  29
HETATM   29  C6  UNL     1      21.461  32.842  13.657  1.00  0.00     0.122 C 
BRANCH  29  30
HETATM   30  C7  UNL     1      22.504  32.999  14.733  1.00  0.00     0.020 C 
BRANCH  30  31
HETATM   31  C8  UNL     1      21.900  33.646  15.932  1.00  0.00     0.003 C 
BRANCH  31  32
HETATM   32  C9  UNL     1      20.529  34.219  15.664  1.00  0.00     0.020 C 
BRANCH  32  33
HETATM   33  C10 UNL     1      19.628  33.988  16.878  1.00  0.00     0.122 C 
BRANCH  33  34
HETATM   34  N2  UNL     1      18.444  33.293  16.542  1.00  0.00    -0.391 N 
BRANCH  34  35
HETATM   35  C11 UNL     1      18.550  31.909  16.429  1.00  0.00     0.073 C 
BRANCH  35  36
HETATM   36  C12 UNL     1      17.569  31.251  15.525  1.00  0.00     0.159 C 
HETATM   37 CL1  UNL     1      17.693  31.662  13.813  1.00  0.00    -0.125 Cl
ENDBRANCH  35  36
ENDBRANCH  34  35
BRANCH  34  38
HETATM   38  C13 UNL     1      17.294  33.813  17.189  1.00  0.00     0.137 C 
BRANCH  38  39
HETATM   39  C14 UNL     1      16.769  35.082  16.540  1.00  0.00     0.134 C 
HETATM   40 CL2  UNL     1      16.407  34.843  14.837  1.00  0.00    -0.129 Cl
ENDBRANCH  38  39
ENDBRANCH  34  38
ENDBRANCH  33  34
ENDBRANCH  32  33
ENDBRANCH  31  32
ENDBRANCH  30  31
ENDBRANCH  29  30
ENDBRANCH  27  29
ENDBRANCH   6  25
BRANCH   7  41
HETATM   41  O3  UNL     1      20.283  27.699  13.071  1.00  0.00    -0.312 OA
BRANCH  41  42
HETATM   42  C16 UNL     1      19.337  27.944  14.037  1.00  0.00     0.255 C 
HETATM   43  C17 UNL     1      17.916  27.549  13.848  1.00  0.00     0.126 C 
HETATM   44  O4  UNL     1      19.702  28.515  15.093  1.00  0.00    -0.266 OA
ENDBRANCH  41  42
ENDBRANCH   7  41
BRANCH  22  45
HETATM   45  O7  UNL     1      16.697  23.820   6.767  1.00  0.00    -0.395 OA
ATOM     46  H7  UNL     1      17.220  23.685   5.986  1.00  0.00     0.210 HD
ENDBRANCH  22  45
TORSDOF 14
ENDMDL
MODEL 2
REMARK VINA RESULT: -7.059598099      0.636      1.493
REMARK  14 active torsions:
REMARK  status: ('A' for Active; 'I' for Inactive)
REMARK    1  A    between atoms: C4_6  and  C5_7 
REMARK       I    between atoms: C5_7  and  N1_9 
REMARK    2  A    between atoms: N1_9  and  C6_11 
REMARK    3  A    between atoms: C6_11  and  C7_12 
REMARK    4  A    between atoms: C7_12  and  C8_13 
REMARK    5  A    between atoms: C8_13  and  C9_14 
REMARK    6  A    between atoms: C9_14  and  C10_15 
REMARK    7  A    between atoms: C10_15  and  N2_16 
REMARK    8  A    between atoms: N2_16  and  C11_17 
REMARK    9  A    between atoms: N2_16  and  C13_20 
REMARK   10  A    between atoms: C11_17  and  C12_18 
REMARK   11  A    between atoms: C13_20  and  C14_21 
REMARK   12  A    between atoms: C15_23  and  O3_24 
REMARK   13  A    between atoms: O3_24  and  C16_25 
REMARK   14  A    between atoms: C28_42  and  O7_43 
ROOT
HETATM    1  C1  UNL     1      18.131  25.650  10.818  1.00  0.00     0.024 C 
HETATM    2  C2  UNL     1      18.185  26.676   9.943  1.00  0.00    -0.005 C 
HETATM    3  C3  UNL     1      18.987  27.823  10.161  1.00  0.00     0.215 C 
HETATM    4  O1  UNL     1      20.088  27.856   9.532  1.00  0.00    -0.280 OA
HETATM    5  S1  UNL     1      18.933  29.359  11.129  1.00  0.00    -0.070 SA
HETATM    6  C4  UNL     1      20.676  29.684  11.705  1.00  0.00     0.179 C 
HETATM    7  C15 UNL     1      21.240  28.642  12.596  1.00  0.00     0.187 C 
HETATM    8  C18 UNL     1      22.572  28.087  12.284  1.00  0.00     0.188 A 
HETATM    9  O5  UNL     1      22.969  27.964  10.881  1.00  0.00    -0.367 OA
HETATM   10  C19 UNL     1      22.915  26.858  11.740  1.00  0.00     0.087 A 
HETATM   11  C20 UNL     1      24.383  26.378  11.979  1.00  0.00     0.049 C 
HETATM   12  C21 UNL     1      22.053  25.699  11.557  1.00  0.00     0.044 C 
HETATM   13  C22 UNL     1      22.124  24.811  10.379  1.00  0.00     0.032 C 
HETATM   14  C23 UNL     1      22.345  25.352   9.057  1.00  0.00    -0.002 C 
HETATM   15  C24 UNL     1      21.661  25.247   7.924  1.00  0.00     0.004 C 
HETATM   16  C25 UNL     1      22.328  26.023   6.779  1.00  0.00     0.068 C 
HETATM   17  N3  UNL     1      20.488  24.589   7.576  1.00  0.00    -0.331 N 
ATOM     18  H3  UNL     1      20.677  23.833   6.919  1.00  0.00     0.168 HD
HETATM   19  C26 UNL     1      19.098  24.667   7.872  1.00  0.00     0.229 C 
HETATM   20  O6  UNL     1      18.717  23.594   8.493  1.00  0.00    -0.273 OA
HETATM   21  C27 UNL     1      18.077  25.650   7.624  1.00  0.00     0.115 C 
HETATM   22  C28 UNL     1      16.686  25.104   7.241  1.00  0.00     0.132 C 
HETATM   23  C29 UNL     1      16.392  25.248   8.764  1.00  0.00     0.043 C 
HETATM   24  C30 UNL     1      17.349  26.347   8.717  1.00  0.00     0.040 C 
ENDROOT
BRANCH   6  25
HETATM   25  C5  UNL     1      20.784  31.071  12.083  1.00  0.00     0.234 C 
HETATM   26  O2  UNL     1      20.267  31.966  11.344  1.00  0.00    -0.272 OA
HETATM   27  N1  UNL     1      21.456  31.461  13.253  1.00  0.00    -0.360 N 
ATOM     28  H1  UNL     1      21.869  30.758  13.868  1.00  0.00     0.162 HD
BRANCH  27  29
HETATM   29  C6  UNL     1      21.560  32.867  13.581  1.00  0.00     0.122 C 
BRANCH  29  30
HETATM   30  C7  UNL     1      22.525  33.020  14.727  1.00  0.00     0.020 C 
BRANCH  30  31
HETATM   31  C8  UNL     1      21.852  33.706  15.867  1.00  0.00     0.003 C 
BRANCH  31  32
HETATM   32  C9  UNL     1      20.697  32.915  16.431  1.00  0.00     0.020 C 
BRANCH  32  33
HETATM   33  C10 UNL     1      19.438  33.783  16.452  1.00  0.00     0.122 C 
BRANCH  33  34
HETATM   34  N2  UNL     1      18.294  33.059  16.855  1.00  0.00    -0.391 N 
BRANCH  34  35
HETATM   35  C11 UNL     1      17.066  33.691  16.677  1.00  0.00     0.073 C 
BRANCH  35  36
HETATM   36  C12 UNL     1      16.509  34.382  17.870  1.00  0.00     0.159 C 
HETATM   37 CL1  UNL     1      14.762  34.627  17.882  1.00  0.00    -0.125 Cl
ENDBRANCH  35  36
ENDBRANCH  34  35
BRANCH  34  38
HETATM   38  C13 UNL     1      18.373  31.678  16.538  1.00  0.00     0.137 C 
BRANCH  38  39
HETATM   39  C14 UNL     1      17.200  31.193  15.703  1.00  0.00     0.134 C 
HETATM   40 CL2  UNL     1      17.557  31.242  13.984  1.00  0.00    -0.129 Cl
ENDBRANCH  38  39
ENDBRANCH  34  38
ENDBRANCH  33  34
ENDBRANCH  32  33
ENDBRANCH  31  32
ENDBRANCH  30  31
ENDBRANCH  29  30
ENDBRANCH  27  29
ENDBRANCH   6  25
BRANCH   7  41
HETATM   41  O3  UNL     1      20.281  27.715  13.070  1.00  0.00    -0.312 OA
BRANCH  41  42
HETATM   42  C16 UNL     1      19.333  27.965  14.033  1.00  0.00     0.255 C 
HETATM   43  C17 UNL     1      17.921  27.533  13.860  1.00  0.00     0.126 C 
HETATM   44  O4  UNL     1      19.689  28.572  15.071  1.00  0.00    -0.266 OA
ENDBRANCH  41  42
ENDBRANCH   7  41
BRANCH  22  45
HETATM   45  O7  UNL     1      16.690  23.815   6.782  1.00  0.00    -0.395 OA
ATOM     46  H7  UNL     1      16.933  23.723   5.869  1.00  0.00     0.210 HD
ENDBRANCH  22  45
TORSDOF 14
ENDMDL
MODEL 3
REMARK VINA RESULT: -6.850243348      2.584      5.225
REMARK  14 active torsions:
REMARK  status: ('A' for Active; 'I' for Inactive)
REMARK    1  A    between atoms: C4_6  and  C5_7 
REMARK       I    between atoms: C5_7  and  N1_9 
REMARK    2  A    between atoms: N1_9  and  C6_11 
REMARK    3  A    between atoms: C6_11  and  C7_12 
REMARK    4  A    between atoms: C7_12  and  C8_13 
REMARK    5  A    between atoms: C8_13  and  C9_14 
REMARK    6  A    between atoms: C9_14  and  C10_15 
REMARK    7  A    between atoms: C10_15  and  N2_16 
REMARK    8  A    between atoms: N2_16  and  C11_17 
REMARK    9  A    between atoms: N2_16  and  C13_20 
REMARK   10  A    between atoms: C11_17  and  C12_18 
REMARK   11  A    between atoms: C13_20  and  C14_21 
REMARK   12  A    between atoms: C15_23  and  O3_24 
REMARK   13  A    between atoms: O3_24  and  C16_25 
REMARK   14  A    between atoms: C28_42  and  O7_43 
ROOT
HETATM    1  C1  UNL     1      21.991  28.834  10.694  1.00  0.00     0.024 C 
HETATM    2  C2  UNL     1      21.969  28.176  11.871  1.00  0.00    -0.005 C 
HETATM    3  C3  UNL     1      20.984  28.417  12.861  1.00  0.00     0.215 C 
HETATM    4  O1  UNL     1      20.038  27.572  12.918  1.00  0.00    -0.280 OA
HETATM    5  S1  UNL     1      20.622  29.640  14.154  1.00  0.00    -0.070 SA
HETATM    6  C4  UNL     1      18.772  29.857  14.175  1.00  0.00     0.179 C 
HETATM    7  C15 UNL     1      18.194  30.388  12.917  1.00  0.00     0.187 C 
HETATM    8  C18 UNL     1      17.044  29.686  12.313  1.00  0.00     0.188 A 
HETATM    9  O5  UNL     1      16.960  28.232  12.452  1.00  0.00    -0.367 OA
HETATM   10  C19 UNL     1      16.997  28.860  11.199  1.00  0.00     0.087 A 
HETATM   11  C20 UNL     1      15.594  28.668  10.536  1.00  0.00     0.049 C 
HETATM   12  C21 UNL     1      18.035  28.664  10.196  1.00  0.00     0.044 C 
HETATM   13  C22 UNL     1      18.330  27.357   9.576  1.00  0.00     0.032 C 
HETATM   14  C23 UNL     1      18.304  26.143  10.361  1.00  0.00    -0.002 C 
HETATM   15  C24 UNL     1      19.210  25.194  10.567  1.00  0.00     0.004 C 
HETATM   16  C25 UNL     1      18.683  24.093  11.499  1.00  0.00     0.068 C 
HETATM   17  N3  UNL     1      20.510  25.004  10.118  1.00  0.00    -0.331 N 
ATOM     18  H3  UNL     1      20.567  24.192   9.503  1.00  0.00     0.168 HD
HETATM   19  C26 UNL     1      21.787  25.616  10.268  1.00  0.00     0.229 C 
HETATM   20  O6  UNL     1      22.184  26.097   9.130  1.00  0.00    -0.273 OA
HETATM   21  C27 UNL     1      22.686  25.792  11.377  1.00  0.00     0.115 C 
HETATM   22  C28 UNL     1      24.189  25.638  11.066  1.00  0.00     0.132 C 
HETATM   23  C29 UNL     1      24.147  27.188  10.911  1.00  0.00     0.043 C 
HETATM   24  C30 UNL     1      23.073  27.132  11.895  1.00  0.00     0.040 C 
ENDROOT
BRANCH   6  25
HETATM   25  C5  UNL     1      18.393  30.452  15.433  1.00  0.00     0.234 C 
HETATM   26  O2  UNL     1      19.080  30.211  16.475  1.00  0.00    -0.272 OA
HETATM   27  N1  UNL     1      17.272  31.293  15.537  1.00  0.00    -0.360 N 
ATOM     28  H1  UNL     1      16.714  31.510  14.711  1.00  0.00     0.162 HD
BRANCH  27  29
HETATM   29  C6  UNL     1      16.917  31.850  16.826  1.00  0.00     0.122 C 
BRANCH  29  30
HETATM   30  C7  UNL     1      16.439  33.263  16.619  1.00  0.00     0.020 C 
BRANCH  30  31
HETATM   31  C8  UNL     1      17.572  34.120  16.168  1.00  0.00     0.003 C 
BRANCH  31  32
HETATM   32  C9  UNL     1      18.677  34.222  17.193  1.00  0.00     0.020 C 
BRANCH  32  33
HETATM   33  C10 UNL     1      20.025  33.942  16.526  1.00  0.00     0.122 C 
BRANCH  33  34
HETATM   34  N2  UNL     1      21.100  34.013  17.441  1.00  0.00    -0.391 N 
BRANCH  34  35
HETATM   35  C11 UNL     1      22.360  33.699  16.939  1.00  0.00     0.073 C 
BRANCH  35  36
HETATM   36  C12 UNL     1      22.430  32.514  16.044  1.00  0.00     0.159 C 
HETATM   37 CL1  UNL     1      23.154  32.779  14.457  1.00  0.00    -0.125 Cl
ENDBRANCH  35  36
ENDBRANCH  34  35
BRANCH  34  38
HETATM   38  C13 UNL     1      21.001  35.116  18.327  1.00  0.00     0.137 C 
BRANCH  38  39
HETATM   39  C14 UNL     1      22.029  36.198  18.044  1.00  0.00     0.134 C 
HETATM   40 CL2  UNL     1      21.504  37.279  16.763  1.00  0.00    -0.129 Cl
ENDBRANCH  38  39
ENDBRANCH  34  38
ENDBRANCH  33  34
ENDBRANCH  32  33
ENDBRANCH  31  32
ENDBRANCH  30  31
ENDBRANCH  29  30
ENDBRANCH  27  29
ENDBRANCH   6  25
BRANCH   7  41
HETATM   41  O3  UNL     1      19.160  30.886  12.011  1.00  0.00    -0.312 OA
BRANCH  41  42
HETATM   42  C16 UNL     1      19.984  31.963  12.229  1.00  0.00     0.255 C 
HETATM   43  C17 UNL     1      19.587  33.071  13.138  1.00  0.00     0.126 C 
HETATM   44  O4  UNL     1      21.090  31.992  11.638  1.00  0.00    -0.266 OA
ENDBRANCH  41  42
ENDBRANCH   7  41
BRANCH  22  45
HETATM   45  O7  UNL     1      24.461  24.959   9.909  1.00  0.00    -0.395 OA
ATOM     46  H7  UNL     1      24.465  24.014  10.000  1.00  0.00     0.210 HD
ENDBRANCH  22  45
TORSDOF 14
ENDMDL
MODEL 4
REMARK VINA RESULT: -6.825192264      2.434      5.130
REMARK  14 active torsions:
REMARK  status: ('A' for Active; 'I' for Inactive)
REMARK    1  A    between atoms: C4_6  and  C5_7 
REMARK       I    between atoms: C5_7  and  N1_9 
REMARK    2  A    between atoms: N1_9  and  C6_11 
REMARK    3  A    between atoms: C6_11  and  C7_12 
REMARK    4  A    between atoms: C7_12  and  C8_13 
REMARK    5  A    between atoms: C8_13  and  C9_14 
REMARK    6  A    between atoms: C9_14  and  C10_15 
REMARK    7  A    between atoms: C10_15  and  N2_16 
REMARK    8  A    between atoms: N2_16  and  C11_17 
REMARK    9  A    between atoms: N2_16  and  C13_20 
REMARK   10  A    between atoms: C11_17  and  C12_18 
REMARK   11  A    between atoms: C13_20  and  C14_21 
REMARK   12  A    between atoms: C15_23  and  O3_24 
REMARK   13  A    between atoms: O3_24  and  C16_25 
REMARK   14  A    between atoms: C28_42  and  O7_43 
ROOT
HETATM    1  C1  UNL     1      22.146  28.394  10.375  1.00  0.00     0.024 C 
HETATM    2  C2  UNL     1      22.126  27.663  11.509  1.00  0.00    -0.005 C 
HETATM    3  C3  UNL     1      21.253  27.952  12.587  1.00  0.00     0.215 C 
HETATM    4  O1  UNL     1      20.216  27.225  12.669  1.00  0.00    -0.280 OA
HETATM    5  S1  UNL     1      21.141  29.118  13.975  1.00  0.00    -0.070 SA
HETATM    6  C4  UNL     1      19.339  29.554  14.157  1.00  0.00     0.179 C 
HETATM    7  C15 UNL     1      18.743  30.236  12.983  1.00  0.00     0.187 C 
HETATM    8  C18 UNL     1      17.474  29.721  12.431  1.00  0.00     0.188 A 
HETATM    9  O5  UNL     1      17.218  28.281  12.490  1.00  0.00    -0.367 OA
HETATM   10  C19 UNL     1      17.244  28.984  11.278  1.00  0.00     0.087 A 
HETATM   11  C20 UNL     1      15.784  29.009  10.719  1.00  0.00     0.049 C 
HETATM   12  C21 UNL     1      18.174  28.735  10.186  1.00  0.00     0.044 C 
HETATM   13  C22 UNL     1      18.258  27.448   9.467  1.00  0.00     0.032 C 
HETATM   14  C23 UNL     1      18.137  26.195  10.178  1.00  0.00    -0.002 C 
HETATM   15  C24 UNL     1      18.930  25.132  10.254  1.00  0.00     0.004 C 
HETATM   16  C25 UNL     1      18.337  24.040  11.158  1.00  0.00     0.068 C 
HETATM   17  N3  UNL     1      20.160  24.818   9.692  1.00  0.00    -0.331 N 
ATOM     18  H3  UNL     1      20.071  24.050   9.027  1.00  0.00     0.168 HD
HETATM   19  C26 UNL     1      21.511  25.260   9.776  1.00  0.00     0.229 C 
HETATM   20  O6  UNL     1      21.882  25.767   8.641  1.00  0.00    -0.273 OA
HETATM   21  C27 UNL     1      22.502  25.250  10.818  1.00  0.00     0.115 C 
HETATM   22  C28 UNL     1      23.948  24.939  10.379  1.00  0.00     0.132 C 
HETATM   23  C29 UNL     1      24.089  26.489  10.320  1.00  0.00     0.043 C 
HETATM   24  C30 UNL     1      23.090  26.495  11.382  1.00  0.00     0.040 C 
ENDROOT
BRANCH   6  25
HETATM   25  C5  UNL     1      19.128  30.102  15.474  1.00  0.00     0.234 C 
HETATM   26  O2  UNL     1      19.681  29.553  16.479  1.00  0.00    -0.272 OA
HETATM   27  N1  UNL     1      18.319  31.232  15.677  1.00  0.00    -0.360 N 
ATOM     28  H1  UNL     1      17.875  31.695  14.883  1.00  0.00     0.162 HD
BRANCH  27  29
HETATM   29  C6  UNL     1      18.118  31.733  17.020  1.00  0.00     0.122 C 
BRANCH  29  30
HETATM   30  C7  UNL     1      17.842  33.212  16.941  1.00  0.00     0.020 C 
BRANCH  30  31
HETATM   31  C8  UNL     1      19.038  33.923  16.407  1.00  0.00     0.003 C 
BRANCH  31  32
HETATM   32  C9  UNL     1      19.594  34.945  17.369  1.00  0.00     0.020 C 
BRANCH  32  33
HETATM   33  C10 UNL     1      18.617  35.145  18.529  1.00  0.00     0.122 C 
BRANCH  33  34
HETATM   34  N2  UNL     1      18.197  36.489  18.649  1.00  0.00    -0.391 N 
BRANCH  34  35
HETATM   35  C11 UNL     1      19.163  37.463  18.408  1.00  0.00     0.073 C 
BRANCH  35  36
HETATM   36  C12 UNL     1      18.680  38.869  18.388  1.00  0.00     0.159 C 
HETATM   37 CL1  UNL     1      18.698  39.676  16.818  1.00  0.00    -0.125 Cl
ENDBRANCH  35  36
ENDBRANCH  34  35
BRANCH  34  38
HETATM   38  C13 UNL     1      16.896  36.712  18.129  1.00  0.00     0.137 C 
BRANCH  38  39
HETATM   39  C14 UNL     1      15.847  35.801  18.743  1.00  0.00     0.134 C 
HETATM   40 CL2  UNL     1      14.564  35.421  17.605  1.00  0.00    -0.129 Cl
ENDBRANCH  38  39
ENDBRANCH  34  38
ENDBRANCH  33  34
ENDBRANCH  32  33
ENDBRANCH  31  32
ENDBRANCH  30  31
ENDBRANCH  29  30
ENDBRANCH  27  29
ENDBRANCH   6  25
BRANCH   7  41
HETATM   41  O3  UNL     1      19.696  30.675  12.034  1.00  0.00    -0.312 OA
BRANCH  41  42
HETATM   42  C16 UNL     1      20.344  31.886  12.050  1.00  0.00     0.255 C 
HETATM   43  C17 UNL     1      21.342  32.217  13.101  1.00  0.00     0.126 C 
HETATM   44  O4  UNL     1      20.072  32.716  11.149  1.00  0.00    -0.266 OA
ENDBRANCH  41  42
ENDBRANCH   7  41
BRANCH  22  45
HETATM   45  O7  UNL     1      24.049  24.313   9.166  1.00  0.00    -0.395 OA
ATOM     46  H7  UNL     1      24.500  24.818   8.500  1.00  0.00     0.210 HD
ENDBRANCH  22  45
TORSDOF 14
ENDMDL
MODEL 5
REMARK VINA RESULT: -6.824395519      2.606      5.460
REMARK  14 active torsions:
REMARK  status: ('A' for Active; 'I' for Inactive)
REMARK    1  A    between atoms: C4_6  and  C5_7 
REMARK       I    between atoms: C5_7  and  N1_9 
REMARK    2  A    between atoms: N1_9  and  C6_11 
REMARK    3  A    between atoms: C6_11  and  C7_12 
REMARK    4  A    between atoms: C7_12  and  C8_13 
REMARK    5  A    between atoms: C8_13  and  C9_14 
REMARK    6  A    between atoms: C9_14  and  C10_15 
REMARK    7  A    between atoms: C10_15  and  N2_16 
REMARK    8  A    between atoms: N2_16  and  C11_17 
REMARK    9  A    between atoms: N2_16  and  C13_20 
REMARK   10  A    between atoms: C11_17  and  C12_18 
REMARK   11  A    between atoms: C13_20  and  C14_21 
REMARK   12  A    between atoms: C15_23  and  O3_24 
REMARK   13  A    between atoms: O3_24  and  C16_25 
REMARK   14  A    between atoms: C28_42  and  O7_43 
ROOT
HETATM    1  C1  UNL     1      22.005  28.966  10.812  1.00  0.00     0.024 C 
HETATM    2  C2  UNL     1      21.956  28.299  11.984  1.00  0.00    -0.005 C 
HETATM    3  C3  UNL     1      20.931  28.511  12.939  1.00  0.00     0.215 C 
HETATM    4  O1  UNL     1      20.003  27.646  12.956  1.00  0.00    -0.280 OA
HETATM    5  S1  UNL     1      20.495  29.717  14.224  1.00  0.00    -0.070 SA
HETATM    6  C4  UNL     1      18.640  29.893  14.180  1.00  0.00     0.179 C 
HETATM    7  C15 UNL     1      18.097  30.419  12.905  1.00  0.00     0.187 C 
HETATM    8  C18 UNL     1      16.986  29.696  12.256  1.00  0.00     0.188 A 
HETATM    9  O5  UNL     1      16.929  28.239  12.383  1.00  0.00    -0.367 OA
HETATM   10  C19 UNL     1      16.997  28.876  11.137  1.00  0.00     0.087 A 
HETATM   11  C20 UNL     1      15.624  28.657  10.422  1.00  0.00     0.049 C 
HETATM   12  C21 UNL     1      18.074  28.710  10.171  1.00  0.00     0.044 C 
HETATM   13  C22 UNL     1      18.421  27.414   9.554  1.00  0.00     0.032 C 
HETATM   14  C23 UNL     1      18.395  26.195  10.331  1.00  0.00    -0.002 C 
HETATM   15  C24 UNL     1      19.314  25.265  10.564  1.00  0.00     0.004 C 
HETATM   16  C25 UNL     1      18.778  24.146  11.469  1.00  0.00     0.068 C 
HETATM   17  N3  UNL     1      20.633  25.107  10.160  1.00  0.00    -0.331 N 
ATOM     18  H3  UNL     1      20.731  24.301   9.543  1.00  0.00     0.168 HD
HETATM   19  C26 UNL     1      21.889  25.746  10.360  1.00  0.00     0.229 C 
HETATM   20  O6  UNL     1      22.317  26.243   9.240  1.00  0.00    -0.273 OA
HETATM   21  C27 UNL     1      22.744  25.935  11.502  1.00  0.00     0.115 C 
HETATM   22  C28 UNL     1      24.260  25.817  11.244  1.00  0.00     0.132 C 
HETATM   23  C29 UNL     1      24.189  27.366  11.096  1.00  0.00     0.043 C 
HETATM   24  C30 UNL     1      23.081  27.280  12.041  1.00  0.00     0.040 C 
ENDROOT
BRANCH   6  25
HETATM   25  C5  UNL     1      18.203  30.471  15.427  1.00  0.00     0.234 C 
HETATM   26  O2  UNL     1      18.855  30.235  16.492  1.00  0.00    -0.272 OA
HETATM   27  N1  UNL     1      17.064  31.291  15.495  1.00  0.00    -0.360 N 
ATOM     28  H1  UNL     1      16.534  31.504  14.650  1.00  0.00     0.162 HD
BRANCH  27  29
HETATM   29  C6  UNL     1      16.650  31.831  16.773  1.00  0.00     0.122 C 
BRANCH  29  30
HETATM   30  C7  UNL     1      15.636  32.917  16.525  1.00  0.00     0.020 C 
BRANCH  30  31
HETATM   31  C8  UNL     1      16.041  33.727  15.341  1.00  0.00     0.003 C 
BRANCH  31  32
HETATM   32  C9  UNL     1      16.377  35.156  15.692  1.00  0.00     0.020 C 
BRANCH  32  33
HETATM   33  C10 UNL     1      16.024  35.423  17.157  1.00  0.00     0.122 C 
BRANCH  33  34
HETATM   34  N2  UNL     1      17.115  35.953  17.882  1.00  0.00    -0.391 N 
BRANCH  34  35
HETATM   35  C11 UNL     1      16.840  37.043  18.704  1.00  0.00     0.073 C 
BRANCH  35  36
HETATM   36  C12 UNL     1      15.942  38.081  18.132  1.00  0.00     0.159 C 
HETATM   37 CL1  UNL     1      16.724  39.354  17.193  1.00  0.00    -0.125 Cl
ENDBRANCH  35  36
ENDBRANCH  34  35
BRANCH  34  38
HETATM   38  C13 UNL     1      17.982  34.951  18.389  1.00  0.00     0.137 C 
BRANCH  38  39
HETATM   39  C14 UNL     1      19.393  35.053  17.836  1.00  0.00     0.134 C 
HETATM   40 CL2  UNL     1      19.755  33.745  16.721  1.00  0.00    -0.129 Cl
ENDBRANCH  38  39
ENDBRANCH  34  38
ENDBRANCH  33  34
ENDBRANCH  32  33
ENDBRANCH  31  32
ENDBRANCH  30  31
ENDBRANCH  29  30
ENDBRANCH  27  29
ENDBRANCH   6  25
BRANCH   7  41
HETATM   41  O3  UNL     1      19.083  30.944  12.037  1.00  0.00    -0.312 OA
BRANCH  41  42
HETATM   42  C16 UNL     1      19.894  32.020  12.304  1.00  0.00     0.255 C 
HETATM   43  C17 UNL     1      19.435  33.145  13.162  1.00  0.00     0.126 C 
HETATM   44  O4  UNL     1      21.044  32.034  11.801  1.00  0.00    -0.266 OA
ENDBRANCH  41  42
ENDBRANCH   7  41
BRANCH  22  45
HETATM   45  O7  UNL     1      24.589  25.152  10.094  1.00  0.00    -0.395 OA
ATOM     46  H7  UNL     1      24.975  25.699   9.420  1.00  0.00     0.210 HD
ENDBRANCH  22  45
TORSDOF 14
ENDMDL
