MODEL 1
REMARK VINA RESULT: -8.691166940      0.000      0.000
REMARK  14 active torsions:
REMARK  status: ('A' for Active; 'I' for Inactive)
REMARK    1  A    between atoms: C2_2  and  C3_3 
REMARK    2  A    between atoms: C3_3  and  C4_4 
REMARK    3  A    between atoms: C4_4  and  C5_5 
REMARK    4  A    between atoms: C5_5  and  O1_6 
REMARK    5  A    between atoms: O1_6  and  C6_7 
REMARK       I    between atoms: C6_7  and  N1_9 
REMARK       I    between atoms: N2_12  and  C9_13 
REMARK    6  A    between atoms: C9_13  and  C10_15 
REMARK    7  A    between atoms: C12_20  and  C13_21 
REMARK    8  A    between atoms: C13_21  and  N4_22 
REMARK    9  A    between atoms: N4_22  and  C14_23 
REMARK   10  A    between atoms: N4_22  and  C20_31 
REMARK   11  A    between atoms: C14_23  and  C15_24 
REMARK   12  A    between atoms: C15_24  and  N5_25 
REMARK   13  A    between atoms: C20_31  and  C21_32 
REMARK   14  A    between atoms: C25_38  and  C26_39 
ROOT
HETATM    1  C10 UNL     1      17.432  28.353  12.423  1.00  0.00     0.474 C 
HETATM    2  N3  UNL     1      18.603  28.034  13.246  1.00  0.00    -0.035 N 
ATOM      3  H31 UNL     1      19.494  28.384  12.893  1.00  0.00     0.280 HD
ATOM      4  H32 UNL     1      18.884  27.053  13.245  1.00  0.00     0.280 HD
HETATM    5  C11 UNL     1      18.192  28.564  14.537  1.00  0.00     0.273 C 
HETATM    6  C12 UNL     1      17.572  29.900  14.097  1.00  0.00     0.253 C 
HETATM    7  N6  UNL     1      17.298  29.760  12.698  1.00  0.00    -0.027 N 
ATOM      8  H61 UNL     1      16.399  30.150  12.414  1.00  0.00     0.281 HD
ATOM      9  H62 UNL     1      17.877  30.352  12.104  1.00  0.00     0.281 HD
ENDROOT
BRANCH   6  10
HETATM   10  C13 UNL     1      18.561  30.947  14.467  1.00  0.00     0.098 C 
BRANCH  10  11
HETATM   11  N4  UNL     1      18.732  32.065  13.631  1.00  0.00    -0.366 N 
BRANCH  11  12
HETATM   12  C14 UNL     1      19.865  32.190  12.840  1.00  0.00     0.093 C 
BRANCH  12  13
HETATM   13  C15 UNL     1      21.154  31.793  13.519  1.00  0.00     0.317 C 
BRANCH  13  14
HETATM   14  N5  UNL     1      21.797  30.699  12.854  1.00  0.00     0.097 N 
HETATM   15  C16 UNL     1      22.189  29.662  13.769  1.00  0.00     0.299 C 
HETATM   16  C17 UNL     1      21.645  28.300  13.392  1.00  0.00     0.198 C 
HETATM   17  O4  UNL     1      21.952  27.996  12.088  1.00  0.00    -0.388 OA
HETATM   18  C18 UNL     1      21.578  28.962  11.187  1.00  0.00     0.198 C 
HETATM   19  C19 UNL     1      20.918  30.173  11.834  1.00  0.00     0.299 C 
ENDBRANCH  13  14
ENDBRANCH  12  13
ENDBRANCH  11  12
BRANCH  11  20
HETATM   20  C20 UNL     1      17.950  33.193  13.984  1.00  0.00     0.165 C 
BRANCH  20  21
HETATM   21  C21 UNL     1      18.344  33.788  15.300  1.00  0.00    -0.038 A 
HETATM   22  C22 UNL     1      17.376  34.068  16.237  1.00  0.00     0.034 A 
HETATM   23  C23 UNL     1      17.676  34.606  17.459  1.00  0.00     0.057 A 
HETATM   24 CL1  UNL     1      16.442  34.962  18.651  1.00  0.00    -0.083 Cl
HETATM   25  C24 UNL     1      18.980  34.889  17.797  1.00  0.00     0.062 A 
HETATM   26 CL2  UNL     1      19.398  35.582  19.362  1.00  0.00    -0.082 Cl
HETATM   27  C25 UNL     1      19.973  34.619  16.875  1.00  0.00    -0.027 A 
HETATM   28  C30 UNL     1      19.643  34.077  15.650  1.00  0.00     0.018 A 
BRANCH  27  29
HETATM   29  C26 UNL     1      21.380  34.913  17.221  1.00  0.00    -0.022 C 
HETATM   30  C27 UNL     1      21.693  34.537  18.656  1.00  0.00     0.019 C 
HETATM   31  C28 UNL     1      21.662  36.372  17.000  1.00  0.00     0.019 C 
HETATM   32  C29 UNL     1      22.270  34.064  16.340  1.00  0.00     0.019 C 
ENDBRANCH  27  29
ENDBRANCH  20  21
ENDBRANCH  11  20
ENDBRANCH  10  11
ENDBRANCH   6  10
BRANCH   1  33
HETATM   33  C9  UNL     1      17.706  28.107  10.995  1.00  0.00     0.278 C 
HETATM   34  N2  UNL     1      17.886  26.811  10.494  1.00  0.00    -0.346 N 
HETATM   35  C8  UNL     1      17.843  25.670  11.386  1.00  0.00     0.146 C 
HETATM   36  C31 UNL     1      18.102  26.562   9.114  1.00  0.00     0.146 C 
HETATM   37  C7  UNL     1      18.838  24.615  10.894  1.00  0.00     0.148 C 
HETATM   38  N1  UNL     1      19.843  25.233  10.071  1.00  0.00    -0.325 N 
HETATM   39  C6  UNL     1      21.218  25.141  10.399  1.00  0.00     0.362 C 
HETATM   40  C32 UNL     1      19.458  25.959   8.893  1.00  0.00     0.148 C 
HETATM   41  O2  UNL     1      21.541  24.503  11.428  1.00  0.00    -0.238 OA
HETATM   42  O3  UNL     1      17.774  29.112  10.229  1.00  0.00    -0.269 OA
BRANCH  39  43
HETATM   43  O1  UNL     1      22.222  25.712   9.656  1.00  0.00    -0.304 OA
BRANCH  43  44
HETATM   44  C5  UNL     1      23.142  25.079   8.833  1.00  0.00     0.180 C 
BRANCH  44  45
HETATM   45  C4  UNL     1      24.351  25.915   8.482  1.00  0.00     0.027 C 
BRANCH  45  46
HETATM   46  C3  UNL     1      24.468  27.060   9.477  1.00  0.00     0.002 C 
BRANCH  46  47
HETATM   47  C2  UNL     1      25.510  26.705  10.512  1.00  0.00    -0.004 C 
HETATM   48  C1  UNL     1      24.873  26.814  11.877  1.00  0.00     0.005 C 
ENDBRANCH  46  47
ENDBRANCH  45  46
ENDBRANCH  44  45
ENDBRANCH  43  44
ENDBRANCH  39  43
ENDBRANCH   1  33
TORSDOF 14
ENDMDL
MODEL 2
REMARK VINA RESULT: -8.514049772      4.541     10.148
REMARK  14 active torsions:
REMARK  status: ('A' for Active; 'I' for Inactive)
REMARK    1  A    between atoms: C2_2  and  C3_3 
REMARK    2  A    between atoms: C3_3  and  C4_4 
REMARK    3  A    between atoms: C4_4  and  C5_5 
REMARK    4  A    between atoms: C5_5  and  O1_6 
REMARK    5  A    between atoms: O1_6  and  C6_7 
REMARK       I    between atoms: C6_7  and  N1_9 
REMARK       I    between atoms: N2_12  and  C9_13 
REMARK    6  A    between atoms: C9_13  and  C10_15 
REMARK    7  A    between atoms: C12_20  and  C13_21 
REMARK    8  A    between atoms: C13_21  and  N4_22 
REMARK    9  A    between atoms: N4_22  and  C14_23 
REMARK   10  A    between atoms: N4_22  and  C20_31 
REMARK   11  A    between atoms: C14_23  and  C15_24 
REMARK   12  A    between atoms: C15_24  and  N5_25 
REMARK   13  A    between atoms: C20_31  and  C21_32 
REMARK   14  A    between atoms: C25_38  and  C26_39 
ROOT
HETATM    1  C10 UNL     1      17.735  32.277  14.193  1.00  0.00     0.474 C 
HETATM    2  N3  UNL     1      19.182  32.198  14.415  1.00  0.00    -0.035 N 
ATOM      3  H31 UNL     1      19.480  31.523  15.119  1.00  0.00     0.280 HD
ATOM      4  H32 UNL     1      19.598  33.005  14.880  1.00  0.00     0.280 HD
HETATM    5  C11 UNL     1      19.660  31.942  13.064  1.00  0.00     0.273 C 
HETATM    6  C12 UNL     1      18.627  30.901  12.604  1.00  0.00     0.253 C 
HETATM    7  N6  UNL     1      17.512  31.039  13.492  1.00  0.00    -0.027 N 
ATOM      8  H61 UNL     1      16.606  30.987  13.026  1.00  0.00     0.281 HD
ATOM      9  H62 UNL     1      17.375  30.237  14.108  1.00  0.00     0.281 HD
ENDROOT
BRANCH   6  10
HETATM   10  C13 UNL     1      19.330  29.591  12.637  1.00  0.00     0.098 C 
BRANCH  10  11
HETATM   11  N4  UNL     1      19.401  28.812  11.467  1.00  0.00    -0.366 N 
BRANCH  11  12
HETATM   12  C14 UNL     1      20.628  28.447  10.933  1.00  0.00     0.093 C 
BRANCH  12  13
HETATM   13  C15 UNL     1      21.807  28.687  11.845  1.00  0.00     0.317 C 
BRANCH  13  14
HETATM   14  N5  UNL     1      22.568  27.493  12.065  1.00  0.00     0.097 N 
HETATM   15  C16 UNL     1      21.911  26.326  11.543  1.00  0.00     0.299 C 
HETATM   16  C17 UNL     1      22.777  25.537  10.584  1.00  0.00     0.198 C 
HETATM   17  O4  UNL     1      23.994  25.247  11.151  1.00  0.00    -0.388 OA
HETATM   18  C18 UNL     1      24.653  26.342  11.649  1.00  0.00     0.198 C 
HETATM   19  C19 UNL     1      23.880  27.645  11.479  1.00  0.00     0.299 C 
ENDBRANCH  13  14
ENDBRANCH  12  13
ENDBRANCH  11  12
BRANCH  11  20
HETATM   20  C20 UNL     1      18.226  28.828  10.675  1.00  0.00     0.165 C 
BRANCH  20  21
HETATM   21  C21 UNL     1      18.114  27.640   9.770  1.00  0.00    -0.038 A 
HETATM   22  C22 UNL     1      17.873  26.397  10.307  1.00  0.00     0.034 A 
HETATM   23  C23 UNL     1      17.754  25.276   9.530  1.00  0.00     0.057 A 
HETATM   24 CL1  UNL     1      17.447  23.693  10.216  1.00  0.00    -0.083 Cl
HETATM   25  C24 UNL     1      17.873  25.359   8.161  1.00  0.00     0.062 A 
HETATM   26 CL2  UNL     1      17.726  23.935   7.135  1.00  0.00    -0.082 Cl
HETATM   27  C25 UNL     1      18.117  26.595   7.595  1.00  0.00    -0.027 A 
HETATM   28  C30 UNL     1      18.232  27.708   8.401  1.00  0.00     0.018 A 
BRANCH  27  29
HETATM   29  C26 UNL     1      18.244  26.704   6.127  1.00  0.00    -0.022 C 
HETATM   30  C27 UNL     1      17.065  26.071   5.414  1.00  0.00     0.019 C 
HETATM   31  C28 UNL     1      19.523  26.055   5.679  1.00  0.00     0.019 C 
HETATM   32  C29 UNL     1      18.242  28.173   5.760  1.00  0.00     0.019 C 
ENDBRANCH  27  29
ENDBRANCH  20  21
ENDBRANCH  11  20
ENDBRANCH  10  11
ENDBRANCH   6  10
BRANCH   1  33
HETATM   33  C9  UNL     1      17.004  32.310  15.474  1.00  0.00     0.278 C 
HETATM   34  N2  UNL     1      16.292  33.444  15.884  1.00  0.00    -0.346 N 
HETATM   35  C8  UNL     1      16.287  34.640  15.066  1.00  0.00     0.146 C 
HETATM   36  C31 UNL     1      15.547  33.468  17.091  1.00  0.00     0.146 C 
HETATM   37  C7  UNL     1      16.254  35.869  15.979  1.00  0.00     0.148 C 
HETATM   38  N1  UNL     1      16.750  35.525  17.285  1.00  0.00    -0.325 N 
HETATM   39  C6  UNL     1      17.862  36.197  17.847  1.00  0.00     0.362 C 
HETATM   40  C32 UNL     1      16.114  34.482  18.041  1.00  0.00     0.148 C 
HETATM   41  O2  UNL     1      18.406  37.106  17.179  1.00  0.00    -0.238 OA
HETATM   42  O3  UNL     1      17.041  31.272  16.197  1.00  0.00    -0.269 OA
BRANCH  39  43
HETATM   43  O1  UNL     1      18.383  35.912  19.085  1.00  0.00    -0.304 OA
BRANCH  43  44
HETATM   44  C5  UNL     1      19.415  35.040  19.399  1.00  0.00     0.180 C 
BRANCH  44  45
HETATM   45  C4  UNL     1      20.715  35.319  18.681  1.00  0.00     0.027 C 
BRANCH  45  46
HETATM   46  C3  UNL     1      20.843  34.368  17.500  1.00  0.00     0.002 C 
BRANCH  46  47
HETATM   47  C2  UNL     1      22.170  33.651  17.590  1.00  0.00    -0.004 C 
HETATM   48  C1  UNL     1      22.358  32.849  16.323  1.00  0.00     0.005 C 
ENDBRANCH  46  47
ENDBRANCH  45  46
ENDBRANCH  44  45
ENDBRANCH  43  44
ENDBRANCH  39  43
ENDBRANCH   1  33
TORSDOF 14
ENDMDL
MODEL 3
REMARK VINA RESULT: -8.475335783      5.693     11.673
REMARK  14 active torsions:
REMARK  status: ('A' for Active; 'I' for Inactive)
REMARK    1  A    between atoms: C2_2  and  C3_3 
REMARK    2  A    between atoms: C3_3  and  C4_4 
REMARK    3  A    between atoms: C4_4  and  C5_5 
REMARK    4  A    between atoms: C5_5  and  O1_6 
REMARK    5  A    between atoms: O1_6  and  C6_7 
REMARK       I    between atoms: C6_7  and  N1_9 
REMARK       I    between atoms: N2_12  and  C9_13 
REMARK    6  A    between atoms: C9_13  and  C10_15 
REMARK    7  A    between atoms: C12_20  and  C13_21 
REMARK    8  A    between atoms: C13_21  and  N4_22 
REMARK    9  A    between atoms: N4_22  and  C14_23 
REMARK   10  A    between atoms: N4_22  and  C20_31 
REMARK   11  A    between atoms: C14_23  and  C15_24 
REMARK   12  A    between atoms: C15_24  and  N5_25 
REMARK   13  A    between atoms: C20_31  and  C21_32 
REMARK   14  A    between atoms: C25_38  and  C26_39 
ROOT
HETATM    1  C10 UNL     1      21.530  35.301  17.461  1.00  0.00     0.474 C 
HETATM    2  N3  UNL     1      21.653  34.025  18.174  1.00  0.00    -0.035 N 
ATOM      3  H31 UNL     1      20.793  33.677  18.598  1.00  0.00     0.280 HD
ATOM      4  H32 UNL     1      22.177  34.062  19.048  1.00  0.00     0.280 HD
HETATM    5  C11 UNL     1      22.225  33.178  17.138  1.00  0.00     0.273 C 
HETATM    6  C12 UNL     1      21.374  33.610  15.934  1.00  0.00     0.253 C 
HETATM    7  N6  UNL     1      20.805  34.875  16.292  1.00  0.00    -0.027 N 
ATOM      8  H61 UNL     1      20.811  35.558  15.534  1.00  0.00     0.281 HD
ATOM      9  H62 UNL     1      19.794  34.849  16.422  1.00  0.00     0.281 HD
ENDROOT
BRANCH   6  10
HETATM   10  C13 UNL     1      20.409  32.503  15.701  1.00  0.00     0.098 C 
BRANCH  10  11
HETATM   11  N4  UNL     1      19.420  32.641  14.710  1.00  0.00    -0.366 N 
BRANCH  11  12
HETATM   12  C14 UNL     1      18.085  32.411  15.006  1.00  0.00     0.093 C 
BRANCH  12  13
HETATM   13  C15 UNL     1      17.278  33.656  15.286  1.00  0.00     0.317 C 
BRANCH  13  14
HETATM   14  N5  UNL     1      16.674  33.625  16.585  1.00  0.00     0.097 N 
HETATM   15  C16 UNL     1      17.546  34.145  17.602  1.00  0.00     0.299 C 
HETATM   16  C17 UNL     1      16.917  35.263  18.407  1.00  0.00     0.198 C 
HETATM   17  O4  UNL     1      15.697  34.878  18.906  1.00  0.00    -0.388 OA
HETATM   18  C18 UNL     1      14.836  34.387  17.957  1.00  0.00     0.198 C 
HETATM   19  C19 UNL     1      15.430  34.359  16.554  1.00  0.00     0.299 C 
ENDBRANCH  13  14
ENDBRANCH  12  13
ENDBRANCH  11  12
BRANCH  11  20
HETATM   20  C20 UNL     1      19.904  32.576  13.380  1.00  0.00     0.165 C 
BRANCH  20  21
HETATM   21  C21 UNL     1      19.985  31.175  12.855  1.00  0.00    -0.038 A 
HETATM   22  C22 UNL     1      21.170  30.484  12.942  1.00  0.00     0.034 A 
HETATM   23  C23 UNL     1      21.303  29.200  12.486  1.00  0.00     0.057 A 
HETATM   24 CL1  UNL     1      22.814  28.321  12.598  1.00  0.00    -0.083 Cl
HETATM   25  C24 UNL     1      20.233  28.548  11.916  1.00  0.00     0.062 A 
HETATM   26 CL2  UNL     1      20.373  26.896  11.319  1.00  0.00    -0.082 Cl
HETATM   27  C25 UNL     1      19.030  29.218  11.815  1.00  0.00    -0.027 A 
HETATM   28  C30 UNL     1      18.924  30.512  12.282  1.00  0.00     0.018 A 
BRANCH  27  29
HETATM   29  C26 UNL     1      17.870  28.533  11.208  1.00  0.00    -0.022 C 
HETATM   30  C27 UNL     1      17.525  27.255  11.948  1.00  0.00     0.019 C 
HETATM   31  C28 UNL     1      18.157  28.228   9.766  1.00  0.00     0.019 C 
HETATM   32  C29 UNL     1      16.667  29.446  11.326  1.00  0.00     0.019 C 
ENDBRANCH  27  29
ENDBRANCH  20  21
ENDBRANCH  11  20
ENDBRANCH  10  11
ENDBRANCH   6  10
BRANCH   1  33
HETATM   33  C9  UNL     1      20.755  36.276  18.250  1.00  0.00     0.278 C 
HETATM   34  N2  UNL     1      20.648  37.617  17.860  1.00  0.00    -0.346 N 
HETATM   35  C8  UNL     1      21.336  38.092  16.677  1.00  0.00     0.146 C 
HETATM   36  C31 UNL     1      19.865  38.551  18.587  1.00  0.00     0.146 C 
HETATM   37  C7  UNL     1      21.798  39.533  16.912  1.00  0.00     0.148 C 
HETATM   38  N1  UNL     1      21.889  39.796  18.324  1.00  0.00    -0.325 N 
HETATM   39  C6  UNL     1      23.106  40.214  18.915  1.00  0.00     0.362 C 
HETATM   40  C32 UNL     1      20.732  39.634  19.160  1.00  0.00     0.148 C 
HETATM   41  O2  UNL     1      24.107  40.355  18.174  1.00  0.00    -0.238 OA
HETATM   42  O3  UNL     1      20.184  35.859  19.300  1.00  0.00    -0.269 OA
BRANCH  39  43
HETATM   43  O1  UNL     1      23.257  40.477  20.254  1.00  0.00    -0.304 OA
BRANCH  43  44
HETATM   44  C5  UNL     1      24.426  40.471  21.000  1.00  0.00     0.180 C 
BRANCH  44  45
HETATM   45  C4  UNL     1      24.629  39.233  21.843  1.00  0.00     0.027 C 
BRANCH  45  46
HETATM   46  C3  UNL     1      26.099  39.125  22.219  1.00  0.00     0.002 C 
BRANCH  46  47
HETATM   47  C2  UNL     1      26.417  37.684  22.543  1.00  0.00    -0.004 C 
HETATM   48  C1  UNL     1      25.147  36.879  22.401  1.00  0.00     0.005 C 
ENDBRANCH  46  47
ENDBRANCH  45  46
ENDBRANCH  44  45
ENDBRANCH  43  44
ENDBRANCH  39  43
ENDBRANCH   1  33
TORSDOF 14
ENDMDL
MODEL 4
REMARK VINA RESULT: -8.437484114      4.404     10.373
REMARK  14 active torsions:
REMARK  status: ('A' for Active; 'I' for Inactive)
REMARK    1  A    between atoms: C2_2  and  C3_3 
REMARK    2  A    between atoms: C3_3  and  C4_4 
REMARK    3  A    between atoms: C4_4  and  C5_5 
REMARK    4  A    between atoms: C5_5  and  O1_6 
REMARK    5  A    between atoms: O1_6  and  C6_7 
REMARK       I    between atoms: C6_7  and  N1_9 
REMARK       I    between atoms: N2_12  and  C9_13 
REMARK    6  A    between atoms: C9_13  and  C10_15 
REMARK    7  A    between atoms: C12_20  and  C13_21 
REMARK    8  A    between atoms: C13_21  and  N4_22 
REMARK    9  A    between atoms: N4_22  and  C14_23 
REMARK   10  A    between atoms: N4_22  and  C20_31 
REMARK   11  A    between atoms: C14_23  and  C15_24 
REMARK   12  A    between atoms: C15_24  and  N5_25 
REMARK   13  A    between atoms: C20_31  and  C21_32 
REMARK   14  A    between atoms: C25_38  and  C26_39 
ROOT
HETATM    1  C10 UNL     1      20.989  31.587  15.703  1.00  0.00     0.474 C 
HETATM    2  N3  UNL     1      19.663  31.213  16.203  1.00  0.00    -0.035 N 
ATOM      3  H31 UNL     1      18.875  31.611  15.691  1.00  0.00     0.280 HD
ATOM      4  H32 UNL     1      19.403  31.621  17.101  1.00  0.00     0.280 HD
HETATM    5  C11 UNL     1      19.753  29.761  16.180  1.00  0.00     0.273 C 
HETATM    6  C12 UNL     1      20.441  29.553  14.821  1.00  0.00     0.253 C 
HETATM    7  N6  UNL     1      21.037  30.813  14.490  1.00  0.00    -0.027 N 
ATOM      8  H61 UNL     1      21.972  30.733  14.090  1.00  0.00     0.281 HD
ATOM      9  H62 UNL     1      20.605  31.274  13.690  1.00  0.00     0.281 HD
ENDROOT
BRANCH   6  10
HETATM   10  C13 UNL     1      19.379  29.070  13.899  1.00  0.00     0.098 C 
BRANCH  10  11
HETATM   11  N4  UNL     1      19.741  28.407  12.712  1.00  0.00    -0.366 N 
BRANCH  11  12
HETATM   12  C14 UNL     1      21.008  27.863  12.564  1.00  0.00     0.093 C 
BRANCH  12  13
HETATM   13  C15 UNL     1      21.818  28.453  11.434  1.00  0.00     0.317 C 
BRANCH  13  14
HETATM   14  N5  UNL     1      22.609  27.463  10.765  1.00  0.00     0.097 N 
HETATM   15  C16 UNL     1      24.002  27.559  11.106  1.00  0.00     0.299 C 
HETATM   16  C17 UNL     1      24.575  26.259  11.629  1.00  0.00     0.198 C 
HETATM   17  O4  UNL     1      24.316  25.227  10.761  1.00  0.00    -0.388 OA
HETATM   18  C18 UNL     1      22.991  25.101  10.426  1.00  0.00     0.198 C 
HETATM   19  C19 UNL     1      22.096  26.148  11.078  1.00  0.00     0.299 C 
ENDBRANCH  13  14
ENDBRANCH  12  13
ENDBRANCH  11  12
BRANCH  11  20
HETATM   20  C20 UNL     1      18.938  28.725  11.590  1.00  0.00     0.165 C 
BRANCH  20  21
HETATM   21  C21 UNL     1      18.582  27.526  10.766  1.00  0.00    -0.038 A 
HETATM   22  C22 UNL     1      18.142  26.380  11.387  1.00  0.00     0.034 A 
HETATM   23  C23 UNL     1      17.796  25.256  10.686  1.00  0.00     0.057 A 
HETATM   24 CL1  UNL     1      17.236  23.798  11.480  1.00  0.00    -0.083 Cl
HETATM   25  C24 UNL     1      17.878  25.237   9.313  1.00  0.00     0.062 A 
HETATM   26 CL2  UNL     1      17.441  23.805   8.384  1.00  0.00    -0.082 Cl
HETATM   27  C25 UNL     1      18.318  26.373   8.662  1.00  0.00    -0.027 A 
HETATM   28  C30 UNL     1      18.660  27.492   9.393  1.00  0.00     0.018 A 
BRANCH  27  29
HETATM   29  C26 UNL     1      18.409  26.371   7.187  1.00  0.00    -0.022 C 
HETATM   30  C27 UNL     1      17.187  25.738   6.551  1.00  0.00     0.019 C 
HETATM   31  C28 UNL     1      19.649  25.640   6.756  1.00  0.00     0.019 C 
HETATM   32  C29 UNL     1      18.454  27.809   6.715  1.00  0.00     0.019 C 
ENDBRANCH  27  29
ENDBRANCH  20  21
ENDBRANCH  11  20
ENDBRANCH  10  11
ENDBRANCH   6  10
BRANCH   1  33
HETATM   33  C9  UNL     1      21.061  33.033  15.422  1.00  0.00     0.278 C 
HETATM   34  N2  UNL     1      21.476  33.951  16.395  1.00  0.00    -0.346 N 
HETATM   35  C8  UNL     1      21.814  33.499  17.730  1.00  0.00     0.146 C 
HETATM   36  C31 UNL     1      21.594  35.338  16.120  1.00  0.00     0.146 C 
HETATM   37  C7  UNL     1      21.393  34.569  18.741  1.00  0.00     0.148 C 
HETATM   38  N1  UNL     1      20.371  35.408  18.173  1.00  0.00    -0.325 N 
HETATM   39  C6  UNL     1      19.105  35.543  18.792  1.00  0.00     0.362 C 
HETATM   40  C32 UNL     1      20.628  36.126  16.955  1.00  0.00     0.148 C 
HETATM   41  O2  UNL     1      18.895  34.914  19.855  1.00  0.00    -0.238 OA
HETATM   42  O3  UNL     1      20.733  33.423  14.263  1.00  0.00    -0.269 OA
BRANCH  39  43
HETATM   43  O1  UNL     1      18.090  36.324  18.297  1.00  0.00    -0.304 OA
BRANCH  43  44
HETATM   44  C5  UNL     1      16.967  35.919  17.591  1.00  0.00     0.180 C 
BRANCH  44  45
HETATM   45  C4  UNL     1      15.789  35.525  18.453  1.00  0.00     0.027 C 
BRANCH  45  46
HETATM   46  C3  UNL     1      15.225  34.206  17.948  1.00  0.00     0.002 C 
BRANCH  46  47
HETATM   47  C2  UNL     1      15.561  34.058  16.482  1.00  0.00    -0.004 C 
HETATM   48  C1  UNL     1      15.553  32.585  16.144  1.00  0.00     0.005 C 
ENDBRANCH  46  47
ENDBRANCH  45  46
ENDBRANCH  44  45
ENDBRANCH  43  44
ENDBRANCH  39  43
ENDBRANCH   1  33
TORSDOF 14
ENDMDL
MODEL 5
REMARK VINA RESULT: -8.307222001      4.758     10.784
REMARK  14 active torsions:
REMARK  status: ('A' for Active; 'I' for Inactive)
REMARK    1  A    between atoms: C2_2  and  C3_3 
REMARK    2  A    between atoms: C3_3  and  C4_4 
REMARK    3  A    between atoms: C4_4  and  C5_5 
REMARK    4  A    between atoms: C5_5  and  O1_6 
REMARK    5  A    between atoms: O1_6  and  C6_7 
REMARK       I    between atoms: C6_7  and  N1_9 
REMARK       I    between atoms: N2_12  and  C9_13 
REMARK    6  A    between atoms: C9_13  and  C10_15 
REMARK    7  A    between atoms: C12_20  and  C13_21 
REMARK    8  A    between atoms: C13_21  and  N4_22 
REMARK    9  A    between atoms: N4_22  and  C14_23 
REMARK   10  A    between atoms: N4_22  and  C20_31 
REMARK   11  A    between atoms: C14_23  and  C15_24 
REMARK   12  A    between atoms: C15_24  and  N5_25 
REMARK   13  A    between atoms: C20_31  and  C21_32 
REMARK   14  A    between atoms: C25_38  and  C26_39 
ROOT
HETATM    1  C10 UNL     1      21.273  32.464  16.601  1.00  0.00     0.474 C 
HETATM    2  N3  UNL     1      19.849  32.120  16.678  1.00  0.00    -0.035 N 
ATOM      3  H31 UNL     1      19.254  32.566  15.980  1.00  0.00     0.280 HD
ATOM      4  H32 UNL     1      19.350  32.503  17.481  1.00  0.00     0.280 HD
HETATM    5  C11 UNL     1      19.906  30.667  16.615  1.00  0.00     0.273 C 
HETATM    6  C12 UNL     1      20.954  30.486  15.505  1.00  0.00     0.253 C 
HETATM    7  N6  UNL     1      21.651  31.734  15.419  1.00  0.00    -0.027 N 
ATOM      8  H61 UNL     1      22.660  31.634  15.303  1.00  0.00     0.281 HD
ATOM      9  H62 UNL     1      21.481  32.241  14.551  1.00  0.00     0.281 HD
ENDROOT
BRANCH   6  10
HETATM   10  C13 UNL     1      20.194  30.078  14.293  1.00  0.00     0.098 C 
BRANCH  10  11
HETATM   11  N4  UNL     1      20.032  30.991  13.235  1.00  0.00    -0.366 N 
BRANCH  11  12
HETATM   12  C14 UNL     1      18.890  31.773  13.144  1.00  0.00     0.093 C 
BRANCH  12  13
HETATM   13  C15 UNL     1      17.701  31.241  13.908  1.00  0.00     0.317 C 
BRANCH  13  14
HETATM   14  N5  UNL     1      16.824  32.290  14.335  1.00  0.00     0.097 N 
HETATM   15  C16 UNL     1      16.243  32.023  15.622  1.00  0.00     0.299 C 
HETATM   16  C17 UNL     1      16.477  33.137  16.621  1.00  0.00     0.198 C 
HETATM   17  O4  UNL     1      16.080  34.346  16.105  1.00  0.00    -0.388 OA
HETATM   18  C18 UNL     1      16.626  34.637  14.881  1.00  0.00     0.198 C 
HETATM   19  C19 UNL     1      17.545  33.543  14.350  1.00  0.00     0.299 C 
ENDBRANCH  13  14
ENDBRANCH  12  13
ENDBRANCH  11  12
BRANCH  11  20
HETATM   20  C20 UNL     1      20.843  30.732  12.103  1.00  0.00     0.165 C 
BRANCH  20  21
HETATM   21  C21 UNL     1      20.829  29.292  11.690  1.00  0.00    -0.038 A 
HETATM   22  C22 UNL     1      21.982  28.548  11.776  1.00  0.00     0.034 A 
HETATM   23  C23 UNL     1      22.027  27.227  11.420  1.00  0.00     0.057 A 
HETATM   24 CL1  UNL     1      23.498  26.281  11.531  1.00  0.00    -0.083 Cl
HETATM   25  C24 UNL     1      20.899  26.590  10.956  1.00  0.00     0.062 A 
HETATM   26 CL2  UNL     1      20.927  24.892  10.489  1.00  0.00    -0.082 Cl
HETATM   27  C25 UNL     1      19.727  27.313  10.857  1.00  0.00    -0.027 A 
HETATM   28  C30 UNL     1      19.709  28.643  11.223  1.00  0.00     0.018 A 
BRANCH  27  29
HETATM   29  C26 UNL     1      18.505  26.645  10.363  1.00  0.00    -0.022 C 
HETATM   30  C27 UNL     1      18.006  25.598  11.341  1.00  0.00     0.019 C 
HETATM   31  C28 UNL     1      18.776  26.011   9.029  1.00  0.00     0.019 C 
HETATM   32  C29 UNL     1      17.413  27.687  10.240  1.00  0.00     0.019 C 
ENDBRANCH  27  29
ENDBRANCH  20  21
ENDBRANCH  11  20
ENDBRANCH  10  11
ENDBRANCH   6  10
BRANCH   1  33
HETATM   33  C9  UNL     1      21.458  33.915  16.421  1.00  0.00     0.278 C 
HETATM   34  N2  UNL     1      21.283  34.815  17.480  1.00  0.00    -0.346 N 
HETATM   35  C8  UNL     1      20.874  34.337  18.786  1.00  0.00     0.146 C 
HETATM   36  C31 UNL     1      21.506  36.208  17.328  1.00  0.00     0.146 C 
HETATM   37  C7  UNL     1      19.966  35.384  19.438  1.00  0.00     0.148 C 
HETATM   38  N1  UNL     1      19.384  36.228  18.428  1.00  0.00    -0.325 N 
HETATM   39  C6  UNL     1      17.979  36.342  18.289  1.00  0.00     0.362 C 
HETATM   40  C32 UNL     1      20.232  36.973  17.540  1.00  0.00     0.148 C 
HETATM   41  O2  UNL     1      17.251  35.690  19.072  1.00  0.00    -0.238 OA
HETATM   42  O3  UNL     1      21.784  34.326  15.269  1.00  0.00    -0.269 OA
BRANCH  39  43
HETATM   43  O1  UNL     1      17.365  37.127  17.344  1.00  0.00    -0.304 OA
BRANCH  43  44
HETATM   44  C5  UNL     1      16.591  38.260  17.545  1.00  0.00     0.180 C 
BRANCH  44  45
HETATM   45  C4  UNL     1      17.376  39.506  17.886  1.00  0.00     0.027 C 
BRANCH  45  46
HETATM   46  C3  UNL     1      17.043  40.594  16.876  1.00  0.00     0.002 C 
BRANCH  46  47
HETATM   47  C2  UNL     1      18.296  41.383  16.576  1.00  0.00    -0.004 C 
HETATM   48  C1  UNL     1      19.373  40.413  16.149  1.00  0.00     0.005 C 
ENDBRANCH  46  47
ENDBRANCH  45  46
ENDBRANCH  44  45
ENDBRANCH  43  44
ENDBRANCH  39  43
ENDBRANCH   1  33
TORSDOF 14
ENDMDL
