MODEL 1
REMARK VINA RESULT: -8.533525873      0.000      0.000
REMARK  17 active torsions:
REMARK  status: ('A' for Active; 'I' for Inactive)
REMARK    1  A    between atoms: C2_2  and  C3_3 
REMARK    2  A    between atoms: C3_3  and  C4_4 
REMARK    3  A    between atoms: C4_4  and  C5_5 
REMARK    4  A    between atoms: C5_5  and  O1_6 
REMARK    5  A    between atoms: O1_6  and  C6_7 
REMARK       I    between atoms: C6_7  and  N1_9 
REMARK    6  A    between atoms: N2_12  and  C9_13 
REMARK    7  A    between atoms: C9_13  and  O3_14 
REMARK    8  A    between atoms: C10_16  and  N3_17 
REMARK    9  A    between atoms: C10_16  and  C29_47 
REMARK       I    between atoms: N3_17  and  C11_19 
REMARK       I    between atoms: C11_19  and  N4_21 
REMARK   10  A    between atoms: N5_24  and  C14_25 
REMARK   11  A    between atoms: C14_25  and  C15_26 
REMARK   12  A    between atoms: C16_27  and  O5_28 
REMARK   13  A    between atoms: O5_28  and  C17_29 
REMARK   14  A    between atoms: C17_29  and  C18_30 
REMARK   15  A    between atoms: C18_30  and  C19_31 
REMARK   16  A    between atoms: C19_31  and  N6_32 
REMARK   17  A    between atoms: C21_37  and  O6_38 
ROOT
HETATM    1  C15 UNL     1      22.263  25.824   7.107  1.00  0.00     0.020 A 
HETATM    2  C16 UNL     1      20.861  26.054   6.755  1.00  0.00     0.083 A 
HETATM    3  C20 UNL     1      20.429  25.596   5.544  1.00  0.00     0.076 A 
HETATM    4  C21 UNL     1      21.274  24.943   4.680  1.00  0.00     0.092 A 
HETATM    5  C23 UNL     1      22.585  24.734   5.020  1.00  0.00     0.085 A 
HETATM    6  C24 UNL     1      23.457  24.048   4.106  1.00  0.00     0.103 C 
HETATM    7  N7  UNL     1      24.146  23.501   3.354  1.00  0.00    -0.191 NA
HETATM    8  C25 UNL     1      23.093  25.179   6.256  1.00  0.00    -0.024 A 
HETATM    9  C26 UNL     1      24.522  24.861   6.566  1.00  0.00     0.051 C 
ENDROOT
BRANCH   4  10
HETATM   10  O6  UNL     1      20.779  24.502   3.463  1.00  0.00    -0.354 OA
HETATM   11  C22 UNL     1      19.396  24.531   3.228  1.00  0.00     0.210 C 
ENDBRANCH   4  10
BRANCH   1  12
HETATM   12  C14 UNL     1      22.570  26.316   8.435  1.00  0.00     0.100 C 
BRANCH  12  13
HETATM   13  N5  UNL     1      23.002  25.535   9.491  1.00  0.00    -0.386 N 
HETATM   14  C13 UNL     1      24.085  26.022  10.306  1.00  0.00     0.142 C 
HETATM   15  C12 UNL     1      23.634  26.594  11.613  1.00  0.00     0.147 C 
HETATM   16  N4  UNL     1      22.234  26.766  11.790  1.00  0.00    -0.331 N 
HETATM   17  C11 UNL     1      21.705  27.927  12.484  1.00  0.00     0.322 C 
HETATM   18  C28 UNL     1      21.323  25.763  11.258  1.00  0.00     0.147 C 
HETATM   19  N3  UNL     1      20.349  28.082  12.693  1.00  0.00    -0.308 N 
HETATM   20  O4  UNL     1      22.560  28.741  12.859  1.00  0.00    -0.247 OA
ATOM     21  H3  UNL     1      19.768  27.323  12.338  1.00  0.00     0.170 HD
HETATM   22  C27 UNL     1      22.037  24.849  10.288  1.00  0.00     0.142 C 
BRANCH  19  23
HETATM   23  C10 UNL     1      19.618  29.169  13.347  1.00  0.00     0.072 C 
HETATM   24  C9  UNL     1      20.304  29.480  14.574  1.00  0.00     0.162 C 
BRANCH  24  25
HETATM   25  N2  UNL     1      20.531  30.553  15.421  1.00  0.00    -0.357 N 
HETATM   26  C8  UNL     1      21.631  31.465  15.535  1.00  0.00     0.145 C 
HETATM   27  C7  UNL     1      21.417  32.581  16.555  1.00  0.00     0.148 C 
HETATM   28  N1  UNL     1      20.105  33.108  16.593  1.00  0.00    -0.325 N 
HETATM   29  C6  UNL     1      19.862  34.407  17.094  1.00  0.00     0.362 C 
HETATM   30  C34 UNL     1      19.007  32.265  16.103  1.00  0.00     0.148 C 
HETATM   31  O2  UNL     1      20.836  35.102  17.495  1.00  0.00    -0.238 OA
HETATM   32  C33 UNL     1      19.452  30.849  16.438  1.00  0.00     0.145 C 
BRANCH  29  33
HETATM   33  O1  UNL     1      18.607  34.968  17.174  1.00  0.00    -0.304 OA
BRANCH  33  34
HETATM   34  C5  UNL     1      17.691  34.809  18.219  1.00  0.00     0.180 C 
BRANCH  34  35
HETATM   35  C4  UNL     1      16.352  34.285  17.796  1.00  0.00     0.027 C 
BRANCH  35  36
HETATM   36  C3  UNL     1      15.985  34.869  16.437  1.00  0.00     0.002 C 
BRANCH  36  37
HETATM   37  C2  UNL     1      15.767  33.745  15.458  1.00  0.00    -0.004 C 
HETATM   38  C1  UNL     1      15.402  32.505  16.217  1.00  0.00     0.005 C 
ENDBRANCH  36  37
ENDBRANCH  35  36
ENDBRANCH  34  35
ENDBRANCH  33  34
ENDBRANCH  29  33
ENDBRANCH  24  25
BRANCH  24  39
HETATM   39  O3  UNL     1      20.947  28.383  15.083  1.00  0.00    -0.345 OA
ATOM     40  H3  UNL     1      21.805  28.652  15.388  1.00  0.00     0.219 HD
ENDBRANCH  24  39
BRANCH  23  41
HETATM   41  C29 UNL     1      18.907  30.109  12.495  1.00  0.00    -0.004 C 
HETATM   42  C30 UNL     1      19.880  31.187  11.977  1.00  0.00     0.021 C 
HETATM   43  C31 UNL     1      17.694  30.807  13.006  1.00  0.00     0.021 C 
HETATM   44  C32 UNL     1      18.530  29.369  11.184  1.00  0.00     0.021 C 
ENDBRANCH  23  41
ENDBRANCH  19  23
ENDBRANCH  12  13
ENDBRANCH   1  12
BRANCH   2  45
HETATM   45  O5  UNL     1      20.085  26.673   7.599  1.00  0.00    -0.350 OA
BRANCH  45  46
HETATM   46  C17 UNL     1      19.049  27.375   7.960  1.00  0.00     0.177 C 
BRANCH  46  47
HETATM   47  C18 UNL     1      17.833  26.784   8.609  1.00  0.00     0.054 C 
BRANCH  47  48
HETATM   48  C19 UNL     1      17.518  25.367   8.335  1.00  0.00     0.231 C 
BRANCH  48  49
HETATM   49  N6  UNL     1      18.479  24.463   8.999  1.00  0.00    -0.079 N 
ATOM     50  H63 UNL     1      19.357  24.406   8.483  1.00  0.00     0.274 HD
ATOM     51  H62 UNL     1      18.831  24.865   9.867  1.00  0.00     0.274 HD
ATOM     52  H61 UNL     1      18.075  23.538   9.152  1.00  0.00     0.274 HD
ENDBRANCH  48  49
ENDBRANCH  47  48
ENDBRANCH  46  47
ENDBRANCH  45  46
ENDBRANCH   2  45
TORSDOF 17
ENDMDL
MODEL 2
REMARK VINA RESULT: -8.381342011      1.256      2.919
REMARK  17 active torsions:
REMARK  status: ('A' for Active; 'I' for Inactive)
REMARK    1  A    between atoms: C2_2  and  C3_3 
REMARK    2  A    between atoms: C3_3  and  C4_4 
REMARK    3  A    between atoms: C4_4  and  C5_5 
REMARK    4  A    between atoms: C5_5  and  O1_6 
REMARK    5  A    between atoms: O1_6  and  C6_7 
REMARK       I    between atoms: C6_7  and  N1_9 
REMARK    6  A    between atoms: N2_12  and  C9_13 
REMARK    7  A    between atoms: C9_13  and  O3_14 
REMARK    8  A    between atoms: C10_16  and  N3_17 
REMARK    9  A    between atoms: C10_16  and  C29_47 
REMARK       I    between atoms: N3_17  and  C11_19 
REMARK       I    between atoms: C11_19  and  N4_21 
REMARK   10  A    between atoms: N5_24  and  C14_25 
REMARK   11  A    between atoms: C14_25  and  C15_26 
REMARK   12  A    between atoms: C16_27  and  O5_28 
REMARK   13  A    between atoms: O5_28  and  C17_29 
REMARK   14  A    between atoms: C17_29  and  C18_30 
REMARK   15  A    between atoms: C18_30  and  C19_31 
REMARK   16  A    between atoms: C19_31  and  N6_32 
REMARK   17  A    between atoms: C21_37  and  O6_38 
ROOT
HETATM    1  C15 UNL     1      21.533  25.856   7.294  1.00  0.00     0.020 A 
HETATM    2  C16 UNL     1      22.268  25.183   6.222  1.00  0.00     0.083 A 
HETATM    3  C20 UNL     1      21.553  24.737   5.149  1.00  0.00     0.076 A 
HETATM    4  C21 UNL     1      20.192  24.907   5.071  1.00  0.00     0.092 A 
HETATM    5  C23 UNL     1      19.515  25.538   6.081  1.00  0.00     0.085 A 
HETATM    6  C24 UNL     1      18.091  25.711   5.985  1.00  0.00     0.103 C 
HETATM    7  N7  UNL     1      16.943  25.833   5.894  1.00  0.00    -0.191 NA
HETATM    8  C25 UNL     1      20.193  26.024   7.215  1.00  0.00    -0.024 A 
HETATM    9  C26 UNL     1      19.382  26.748   8.244  1.00  0.00     0.051 C 
ENDROOT
BRANCH   4  10
HETATM   10  O6  UNL     1      19.519  24.431   3.957  1.00  0.00    -0.354 OA
HETATM   11  C22 UNL     1      20.237  24.140   2.787  1.00  0.00     0.210 C 
ENDBRANCH   4  10
BRANCH   1  12
HETATM   12  C14 UNL     1      22.420  26.319   8.342  1.00  0.00     0.100 C 
BRANCH  12  13
HETATM   13  N5  UNL     1      22.894  25.542   9.383  1.00  0.00    -0.386 N 
HETATM   14  C13 UNL     1      23.994  26.042  10.167  1.00  0.00     0.142 C 
HETATM   15  C12 UNL     1      23.575  26.604  11.487  1.00  0.00     0.147 C 
HETATM   16  N4  UNL     1      22.179  26.758  11.707  1.00  0.00    -0.331 N 
HETATM   17  C11 UNL     1      21.656  27.911  12.419  1.00  0.00     0.322 C 
HETATM   18  C28 UNL     1      21.265  25.744  11.200  1.00  0.00     0.147 C 
HETATM   19  N3  UNL     1      20.305  28.047  12.669  1.00  0.00    -0.308 N 
HETATM   20  O4  UNL     1      22.511  28.735  12.770  1.00  0.00    -0.247 OA
ATOM     21  H3  UNL     1      19.723  27.282  12.330  1.00  0.00     0.170 HD
HETATM   22  C27 UNL     1      21.962  24.842  10.207  1.00  0.00     0.142 C 
BRANCH  19  23
HETATM   23  C10 UNL     1      19.580  29.124  13.347  1.00  0.00     0.072 C 
HETATM   24  C9  UNL     1      20.292  29.434  14.560  1.00  0.00     0.162 C 
BRANCH  24  25
HETATM   25  N2  UNL     1      20.529  30.504  15.407  1.00  0.00    -0.357 N 
HETATM   26  C8  UNL     1      21.645  31.394  15.535  1.00  0.00     0.145 C 
HETATM   27  C7  UNL     1      21.440  32.516  16.550  1.00  0.00     0.148 C 
HETATM   28  N1  UNL     1      20.139  33.069  16.570  1.00  0.00    -0.325 N 
HETATM   29  C6  UNL     1      19.916  34.374  17.065  1.00  0.00     0.362 C 
HETATM   30  C34 UNL     1      19.031  32.247  16.066  1.00  0.00     0.148 C 
HETATM   31  O2  UNL     1      20.898  35.049  17.478  1.00  0.00    -0.238 OA
HETATM   32  C33 UNL     1      19.443  30.823  16.409  1.00  0.00     0.145 C 
BRANCH  29  33
HETATM   33  O1  UNL     1      18.672  34.960  17.127  1.00  0.00    -0.304 OA
BRANCH  33  34
HETATM   34  C5  UNL     1      17.744  34.833  18.168  1.00  0.00     0.180 C 
BRANCH  34  35
HETATM   35  C4  UNL     1      16.416  34.281  17.750  1.00  0.00     0.027 C 
BRANCH  35  36
HETATM   36  C3  UNL     1      16.018  34.876  16.405  1.00  0.00     0.002 C 
BRANCH  36  37
HETATM   37  C2  UNL     1      15.780  33.761  15.421  1.00  0.00    -0.004 C 
HETATM   38  C1  UNL     1      15.417  32.518  16.177  1.00  0.00     0.005 C 
ENDBRANCH  36  37
ENDBRANCH  35  36
ENDBRANCH  34  35
ENDBRANCH  33  34
ENDBRANCH  29  33
ENDBRANCH  24  25
BRANCH  24  39
HETATM   39  O3  UNL     1      20.956  28.340  15.045  1.00  0.00    -0.345 OA
ATOM     40  H3  UNL     1      20.723  27.586  14.517  1.00  0.00     0.219 HD
ENDBRANCH  24  39
BRANCH  23  41
HETATM   41  C29 UNL     1      18.840  30.062  12.518  1.00  0.00    -0.004 C 
HETATM   42  C30 UNL     1      19.760  31.225  12.093  1.00  0.00     0.021 C 
HETATM   43  C31 UNL     1      17.568  30.656  13.018  1.00  0.00     0.021 C 
HETATM   44  C32 UNL     1      18.557  29.373  11.157  1.00  0.00     0.021 C 
ENDBRANCH  23  41
ENDBRANCH  19  23
ENDBRANCH  12  13
ENDBRANCH   1  12
BRANCH   2  45
HETATM   45  O5  UNL     1      23.558  25.041   6.325  1.00  0.00    -0.350 OA
BRANCH  45  46
HETATM   46  C17 UNL     1      24.759  24.775   5.896  1.00  0.00     0.177 C 
BRANCH  46  47
HETATM   47  C18 UNL     1      25.350  23.396   5.891  1.00  0.00     0.054 C 
BRANCH  47  48
HETATM   48  C19 UNL     1      24.617  22.322   6.591  1.00  0.00     0.231 C 
BRANCH  48  49
HETATM   49  N6  UNL     1      24.392  22.660   8.012  1.00  0.00    -0.079 N 
ATOM     50  H63 UNL     1      23.576  22.176   8.387  1.00  0.00     0.274 HD
ATOM     51  H62 UNL     1      25.108  22.250   8.611  1.00  0.00     0.274 HD
ATOM     52  H61 UNL     1      24.324  23.669   8.148  1.00  0.00     0.274 HD
ENDBRANCH  48  49
ENDBRANCH  47  48
ENDBRANCH  46  47
ENDBRANCH  45  46
ENDBRANCH   2  45
TORSDOF 17
ENDMDL
MODEL 3
REMARK VINA RESULT: -8.339922866      0.962      1.221
REMARK  17 active torsions:
REMARK  status: ('A' for Active; 'I' for Inactive)
REMARK    1  A    between atoms: C2_2  and  C3_3 
REMARK    2  A    between atoms: C3_3  and  C4_4 
REMARK    3  A    between atoms: C4_4  and  C5_5 
REMARK    4  A    between atoms: C5_5  and  O1_6 
REMARK    5  A    between atoms: O1_6  and  C6_7 
REMARK       I    between atoms: C6_7  and  N1_9 
REMARK    6  A    between atoms: N2_12  and  C9_13 
REMARK    7  A    between atoms: C9_13  and  O3_14 
REMARK    8  A    between atoms: C10_16  and  N3_17 
REMARK    9  A    between atoms: C10_16  and  C29_47 
REMARK       I    between atoms: N3_17  and  C11_19 
REMARK       I    between atoms: C11_19  and  N4_21 
REMARK   10  A    between atoms: N5_24  and  C14_25 
REMARK   11  A    between atoms: C14_25  and  C15_26 
REMARK   12  A    between atoms: C16_27  and  O5_28 
REMARK   13  A    between atoms: O5_28  and  C17_29 
REMARK   14  A    between atoms: C17_29  and  C18_30 
REMARK   15  A    between atoms: C18_30  and  C19_31 
REMARK   16  A    between atoms: C19_31  and  N6_32 
REMARK   17  A    between atoms: C21_37  and  O6_38 
ROOT
HETATM    1  C15 UNL     1      22.177  25.810   7.103  1.00  0.00     0.020 A 
HETATM    2  C16 UNL     1      20.912  26.013   6.394  1.00  0.00     0.083 A 
HETATM    3  C20 UNL     1      20.855  25.640   5.083  1.00  0.00     0.076 A 
HETATM    4  C21 UNL     1      21.942  25.095   4.443  1.00  0.00     0.092 A 
HETATM    5  C23 UNL     1      23.121  24.911   5.116  1.00  0.00     0.085 A 
HETATM    6  C24 UNL     1      24.249  24.338   4.434  1.00  0.00     0.103 C 
HETATM    7  N7  UNL     1      25.149  23.884   3.866  1.00  0.00    -0.191 NA
HETATM    8  C25 UNL     1      23.245  25.272   6.472  1.00  0.00    -0.024 A 
HETATM    9  C26 UNL     1      24.552  24.986   7.143  1.00  0.00     0.051 C 
ENDROOT
BRANCH   4  10
HETATM   10  O6  UNL     1      21.825  24.737   3.109  1.00  0.00    -0.354 OA
HETATM   11  C22 UNL     1      20.552  24.514   2.562  1.00  0.00     0.210 C 
ENDBRANCH   4  10
BRANCH   1  12
HETATM   12  C14 UNL     1      22.080  26.203   8.494  1.00  0.00     0.100 C 
BRANCH  12  13
HETATM   13  N5  UNL     1      22.567  25.471   9.562  1.00  0.00    -0.386 N 
HETATM   14  C13 UNL     1      23.706  25.980  10.280  1.00  0.00     0.142 C 
HETATM   15  C12 UNL     1      23.349  26.627  11.580  1.00  0.00     0.147 C 
HETATM   16  N4  UNL     1      21.965  26.834  11.835  1.00  0.00    -0.331 N 
HETATM   17  C11 UNL     1      21.498  28.039  12.498  1.00  0.00     0.322 C 
HETATM   18  C28 UNL     1      21.007  25.821  11.416  1.00  0.00     0.147 C 
HETATM   19  N3  UNL     1      20.161  28.230  12.783  1.00  0.00    -0.308 N 
HETATM   20  O4  UNL     1      22.388  28.857  12.774  1.00  0.00    -0.247 OA
ATOM     21  H3  UNL     1      19.548  27.464  12.507  1.00  0.00     0.170 HD
HETATM   22  C27 UNL     1      21.644  24.845  10.453  1.00  0.00     0.142 C 
BRANCH  19  23
HETATM   23  C10 UNL     1      19.490  29.363  13.422  1.00  0.00     0.072 C 
HETATM   24  C9  UNL     1      20.172  29.633  14.662  1.00  0.00     0.162 C 
BRANCH  24  25
HETATM   25  N2  UNL     1      20.451  30.691  15.510  1.00  0.00    -0.357 N 
HETATM   26  C8  UNL     1      21.584  31.565  15.609  1.00  0.00     0.145 C 
HETATM   27  C7  UNL     1      21.428  32.679  16.641  1.00  0.00     0.148 C 
HETATM   28  N1  UNL     1      20.136  33.250  16.709  1.00  0.00    -0.325 N 
HETATM   29  C6  UNL     1      19.947  34.553  17.223  1.00  0.00     0.362 C 
HETATM   30  C34 UNL     1      19.001  32.448  16.235  1.00  0.00     0.148 C 
HETATM   31  O2  UNL     1      20.952  35.211  17.610  1.00  0.00    -0.238 OA
HETATM   32  C33 UNL     1      19.404  31.016  16.551  1.00  0.00     0.145 C 
BRANCH  29  33
HETATM   33  O1  UNL     1      18.714  35.155  17.332  1.00  0.00    -0.304 OA
BRANCH  33  34
HETATM   34  C5  UNL     1      17.848  35.085  18.429  1.00  0.00     0.180 C 
BRANCH  34  35
HETATM   35  C4  UNL     1      16.406  35.317  18.096  1.00  0.00     0.027 C 
BRANCH  35  36
HETATM   36  C3  UNL     1      15.771  34.008  17.645  1.00  0.00     0.002 C 
BRANCH  36  37
HETATM   37  C2  UNL     1      15.749  33.962  16.139  1.00  0.00    -0.004 C 
HETATM   38  C1  UNL     1      15.335  32.589  15.703  1.00  0.00     0.005 C 
ENDBRANCH  36  37
ENDBRANCH  35  36
ENDBRANCH  34  35
ENDBRANCH  33  34
ENDBRANCH  29  33
ENDBRANCH  24  25
BRANCH  24  39
HETATM   39  O3  UNL     1      20.734  28.498  15.183  1.00  0.00    -0.345 OA
ATOM     40  H3  UNL     1      20.103  27.791  15.115  1.00  0.00     0.219 HD
ENDBRANCH  24  39
BRANCH  23  41
HETATM   41  C29 UNL     1      18.855  30.344  12.556  1.00  0.00    -0.004 C 
HETATM   42  C30 UNL     1      18.299  29.651  11.297  1.00  0.00     0.021 C 
HETATM   43  C31 UNL     1      19.616  31.546  12.109  1.00  0.00     0.021 C 
HETATM   44  C32 UNL     1      17.554  30.821  13.254  1.00  0.00     0.021 C 
ENDBRANCH  23  41
ENDBRANCH  19  23
ENDBRANCH  12  13
ENDBRANCH   1  12
BRANCH   2  45
HETATM   45  O5  UNL     1      19.900  26.528   7.031  1.00  0.00    -0.350 OA
BRANCH  45  46
HETATM   46  C17 UNL     1      18.946  27.390   7.239  1.00  0.00     0.177 C 
BRANCH  46  47
HETATM   47  C18 UNL     1      18.252  28.140   6.140  1.00  0.00     0.054 C 
BRANCH  47  48
HETATM   48  C19 UNL     1      17.552  27.359   5.100  1.00  0.00     0.231 C 
BRANCH  48  49
HETATM   49  N6  UNL     1      17.204  26.007   5.584  1.00  0.00    -0.079 N 
ATOM     50  H63 UNL     1      17.836  25.701   6.324  1.00  0.00     0.274 HD
ATOM     51  H62 UNL     1      16.332  26.012   6.113  1.00  0.00     0.274 HD
ATOM     52  H61 UNL     1      17.173  25.335   4.817  1.00  0.00     0.274 HD
ENDBRANCH  48  49
ENDBRANCH  47  48
ENDBRANCH  46  47
ENDBRANCH  45  46
ENDBRANCH   2  45
TORSDOF 17
ENDMDL
MODEL 4
REMARK VINA RESULT: -8.283684966      2.738     12.631
REMARK  17 active torsions:
REMARK  status: ('A' for Active; 'I' for Inactive)
REMARK    1  A    between atoms: C2_2  and  C3_3 
REMARK    2  A    between atoms: C3_3  and  C4_4 
REMARK    3  A    between atoms: C4_4  and  C5_5 
REMARK    4  A    between atoms: C5_5  and  O1_6 
REMARK    5  A    between atoms: O1_6  and  C6_7 
REMARK       I    between atoms: C6_7  and  N1_9 
REMARK    6  A    between atoms: N2_12  and  C9_13 
REMARK    7  A    between atoms: C9_13  and  O3_14 
REMARK    8  A    between atoms: C10_16  and  N3_17 
REMARK    9  A    between atoms: C10_16  and  C29_47 
REMARK       I    between atoms: N3_17  and  C11_19 
REMARK       I    between atoms: C11_19  and  N4_21 
REMARK   10  A    between atoms: N5_24  and  C14_25 
REMARK   11  A    between atoms: C14_25  and  C15_26 
REMARK   12  A    between atoms: C16_27  and  O5_28 
REMARK   13  A    between atoms: O5_28  and  C17_29 
REMARK   14  A    between atoms: C17_29  and  C18_30 
REMARK   15  A    between atoms: C18_30  and  C19_31 
REMARK   16  A    between atoms: C19_31  and  N6_32 
REMARK   17  A    between atoms: C21_37  and  O6_38 
ROOT
HETATM    1  C15 UNL     1      18.209  35.528  17.759  1.00  0.00     0.020 A 
HETATM    2  C16 UNL     1      19.597  35.477  17.298  1.00  0.00     0.083 A 
HETATM    3  C20 UNL     1      20.383  36.566  17.538  1.00  0.00     0.076 A 
HETATM    4  C21 UNL     1      19.897  37.674  18.187  1.00  0.00     0.092 A 
HETATM    5  C23 UNL     1      18.596  37.711  18.614  1.00  0.00     0.085 A 
HETATM    6  C24 UNL     1      18.102  38.877  19.294  1.00  0.00     0.103 C 
HETATM    7  N7  UNL     1      17.719  39.828  19.831  1.00  0.00    -0.191 NA
HETATM    8  C25 UNL     1      17.732  36.620  18.400  1.00  0.00    -0.024 A 
HETATM    9  C26 UNL     1      16.343  36.724  18.947  1.00  0.00     0.051 C 
ENDROOT
BRANCH   4  10
HETATM   10  O6  UNL     1      20.743  38.751  18.401  1.00  0.00    -0.354 OA
HETATM   11  C22 UNL     1      21.858  38.598  19.239  1.00  0.00     0.210 C 
ENDBRANCH   4  10
BRANCH   1  12
HETATM   12  C14 UNL     1      17.506  34.291  17.483  1.00  0.00     0.100 C 
BRANCH  12  13
HETATM   13  N5  UNL     1      16.384  34.176  16.682  1.00  0.00    -0.386 N 
HETATM   14  C13 UNL     1      16.420  34.754  15.364  1.00  0.00     0.142 C 
HETATM   15  C12 UNL     1      16.637  33.748  14.280  1.00  0.00     0.147 C 
HETATM   16  N4  UNL     1      16.974  32.428  14.686  1.00  0.00    -0.331 N 
HETATM   17  C11 UNL     1      17.942  31.640  13.944  1.00  0.00     0.322 C 
HETATM   18  C28 UNL     1      16.340  31.867  15.871  1.00  0.00     0.147 C 
HETATM   19  N3  UNL     1      18.246  30.344  14.311  1.00  0.00    -0.308 N 
HETATM   20  O4  UNL     1      18.455  32.224  12.979  1.00  0.00    -0.247 OA
ATOM     21  H3  UNL     1      17.735  29.994  15.120  1.00  0.00     0.170 HD
HETATM   22  C27 UNL     1      15.657  32.948  16.678  1.00  0.00     0.142 C 
BRANCH  19  23
HETATM   23  C10 UNL     1      19.190  29.397  13.715  1.00  0.00     0.072 C 
HETATM   24  C9  UNL     1      18.509  28.716  12.644  1.00  0.00     0.162 C 
BRANCH  24  25
HETATM   25  N2  UNL     1      18.781  28.111  11.429  1.00  0.00    -0.357 N 
HETATM   26  C8  UNL     1      19.054  28.655  10.130  1.00  0.00     0.145 C 
HETATM   27  C7  UNL     1      19.406  27.609   9.074  1.00  0.00     0.148 C 
HETATM   28  N1  UNL     1      20.215  26.546   9.537  1.00  0.00    -0.325 N 
HETATM   29  C6  UNL     1      21.006  25.795   8.638  1.00  0.00     0.362 C 
HETATM   30  C34 UNL     1      20.205  26.245  10.974  1.00  0.00     0.148 C 
HETATM   31  O2  UNL     1      20.994  26.096   7.412  1.00  0.00    -0.238 OA
HETATM   32  C33 UNL     1      18.792  26.600  11.415  1.00  0.00     0.145 C 
BRANCH  29  33
HETATM   33  O1  UNL     1      21.800  24.739   9.024  1.00  0.00    -0.304 OA
BRANCH  33  34
HETATM   34  C5  UNL     1      23.192  24.660   8.909  1.00  0.00     0.180 C 
BRANCH  34  35
HETATM   35  C4  UNL     1      23.946  25.296  10.037  1.00  0.00     0.027 C 
BRANCH  35  36
HETATM   36  C3  UNL     1      24.714  26.505   9.517  1.00  0.00     0.002 C 
BRANCH  36  37
HETATM   37  C2  UNL     1      25.443  27.157  10.661  1.00  0.00    -0.004 C 
HETATM   38  C1  UNL     1      24.521  27.240  11.841  1.00  0.00     0.005 C 
ENDBRANCH  36  37
ENDBRANCH  35  36
ENDBRANCH  34  35
ENDBRANCH  33  34
ENDBRANCH  29  33
ENDBRANCH  24  25
BRANCH  24  39
HETATM   39  O3  UNL     1      17.163  28.631  12.880  1.00  0.00    -0.345 OA
ATOM     40  H3  UNL     1      17.029  28.158  13.693  1.00  0.00     0.219 HD
ENDBRANCH  24  39
BRANCH  23  41
HETATM   41  C29 UNL     1      20.603  29.739  13.758  1.00  0.00    -0.004 C 
HETATM   42  C30 UNL     1      20.983  30.223  15.171  1.00  0.00     0.021 C 
HETATM   43  C31 UNL     1      21.163  30.717  12.782  1.00  0.00     0.021 C 
HETATM   44  C32 UNL     1      21.414  28.421  13.648  1.00  0.00     0.021 C 
ENDBRANCH  23  41
ENDBRANCH  19  23
ENDBRANCH  12  13
ENDBRANCH   1  12
BRANCH   2  45
HETATM   45  O5  UNL     1      20.027  34.410  16.688  1.00  0.00    -0.350 OA
BRANCH  45  46
HETATM   46  C17 UNL     1      20.507  33.730  15.686  1.00  0.00     0.177 C 
BRANCH  46  47
HETATM   47  C18 UNL     1      21.973  33.610  15.393  1.00  0.00     0.054 C 
BRANCH  47  48
HETATM   48  C19 UNL     1      22.874  33.220  16.496  1.00  0.00     0.231 C 
BRANCH  48  49
HETATM   49  N6  UNL     1      22.155  32.452  17.533  1.00  0.00    -0.079 N 
ATOM     50  H63 UNL     1      21.164  32.695  17.559  1.00  0.00     0.274 HD
ATOM     51  H62 UNL     1      22.069  31.469  17.278  1.00  0.00     0.274 HD
ATOM     52  H61 UNL     1      22.590  32.564  18.449  1.00  0.00     0.274 HD
ENDBRANCH  48  49
ENDBRANCH  47  48
ENDBRANCH  46  47
ENDBRANCH  45  46
ENDBRANCH   2  45
TORSDOF 17
ENDMDL
MODEL 5
REMARK VINA RESULT: -7.990959201      2.791     12.292
REMARK  17 active torsions:
REMARK  status: ('A' for Active; 'I' for Inactive)
REMARK    1  A    between atoms: C2_2  and  C3_3 
REMARK    2  A    between atoms: C3_3  and  C4_4 
REMARK    3  A    between atoms: C4_4  and  C5_5 
REMARK    4  A    between atoms: C5_5  and  O1_6 
REMARK    5  A    between atoms: O1_6  and  C6_7 
REMARK       I    between atoms: C6_7  and  N1_9 
REMARK    6  A    between atoms: N2_12  and  C9_13 
REMARK    7  A    between atoms: C9_13  and  O3_14 
REMARK    8  A    between atoms: C10_16  and  N3_17 
REMARK    9  A    between atoms: C10_16  and  C29_47 
REMARK       I    between atoms: N3_17  and  C11_19 
REMARK       I    between atoms: C11_19  and  N4_21 
REMARK   10  A    between atoms: N5_24  and  C14_25 
REMARK   11  A    between atoms: C14_25  and  C15_26 
REMARK   12  A    between atoms: C16_27  and  O5_28 
REMARK   13  A    between atoms: O5_28  and  C17_29 
REMARK   14  A    between atoms: C17_29  and  C18_30 
REMARK   15  A    between atoms: C18_30  and  C19_31 
REMARK   16  A    between atoms: C19_31  and  N6_32 
REMARK   17  A    between atoms: C21_37  and  O6_38 
ROOT
HETATM    1  C15 UNL     1      19.559  35.469  17.949  1.00  0.00     0.020 A 
HETATM    2  C16 UNL     1      18.103  35.377  17.835  1.00  0.00     0.083 A 
HETATM    3  C20 UNL     1      17.369  36.470  18.194  1.00  0.00     0.076 A 
HETATM    4  C21 UNL     1      17.968  37.619  18.648  1.00  0.00     0.092 A 
HETATM    5  C23 UNL     1      19.333  37.694  18.752  1.00  0.00     0.085 A 
HETATM    6  C24 UNL     1      19.946  38.904  19.227  1.00  0.00     0.103 C 
HETATM    7  N7  UNL     1      20.421  39.884  19.621  1.00  0.00    -0.191 NA
HETATM    8  C25 UNL     1      20.147  36.602  18.395  1.00  0.00    -0.024 A 
HETATM    9  C26 UNL     1      21.629  36.791  18.488  1.00  0.00     0.051 C 
ENDROOT
BRANCH   4  10
HETATM   10  O6  UNL     1      17.171  38.697  19.000  1.00  0.00    -0.354 OA
HETATM   11  C22 UNL     1      15.995  38.952  18.279  1.00  0.00     0.210 C 
ENDBRANCH   4  10
BRANCH   1  12
HETATM   12  C14 UNL     1      20.210  34.259  17.490  1.00  0.00     0.100 C 
BRANCH  12  13
HETATM   13  N5  UNL     1      21.485  34.196  16.956  1.00  0.00    -0.386 N 
HETATM   14  C13 UNL     1      22.296  33.044  17.252  1.00  0.00     0.142 C 
HETATM   15  C12 UNL     1      22.358  32.058  16.129  1.00  0.00     0.147 C 
HETATM   16  N4  UNL     1      21.477  32.274  15.034  1.00  0.00    -0.331 N 
HETATM   17  C11 UNL     1      20.827  31.160  14.366  1.00  0.00     0.322 C 
HETATM   18  C28 UNL     1      21.222  33.636  14.587  1.00  0.00     0.147 C 
HETATM   19  N3  UNL     1      20.000  31.360  13.279  1.00  0.00    -0.308 N 
HETATM   20  O4  UNL     1      21.076  30.048  14.850  1.00  0.00    -0.247 OA
ATOM     21  H3  UNL     1      19.899  32.331  12.986  1.00  0.00     0.170 HD
HETATM   22  C27 UNL     1      21.699  34.636  15.615  1.00  0.00     0.142 C 
BRANCH  19  23
HETATM   23  C10 UNL     1      19.247  30.390  12.482  1.00  0.00     0.072 C 
HETATM   24  C9  UNL     1      20.198  29.579  11.766  1.00  0.00     0.162 C 
BRANCH  24  25
HETATM   25  N2  UNL     1      20.327  28.300  11.250  1.00  0.00    -0.357 N 
HETATM   26  C8  UNL     1      21.004  27.135  11.741  1.00  0.00     0.145 C 
HETATM   27  C7  UNL     1      20.799  25.886  10.888  1.00  0.00     0.148 C 
HETATM   28  N1  UNL     1      19.495  25.730  10.365  1.00  0.00    -0.325 N 
HETATM   29  C6  UNL     1      19.015  24.455   9.988  1.00  0.00     0.362 C 
HETATM   30  C34 UNL     1      18.660  26.929  10.221  1.00  0.00     0.148 C 
HETATM   31  O2  UNL     1      19.762  23.449  10.139  1.00  0.00    -0.238 OA
HETATM   32  C33 UNL     1      19.658  28.039   9.920  1.00  0.00     0.145 C 
BRANCH  29  33
HETATM   33  O1  UNL     1      17.763  24.242   9.457  1.00  0.00    -0.304 OA
BRANCH  33  34
HETATM   34  C5  UNL     1      17.466  23.938   8.124  1.00  0.00     0.180 C 
BRANCH  34  35
HETATM   35  C4  UNL     1      18.295  24.679   7.120  1.00  0.00     0.027 C 
BRANCH  35  36
HETATM   36  C3  UNL     1      17.577  25.960   6.714  1.00  0.00     0.002 C 
BRANCH  36  37
HETATM   37  C2  UNL     1      18.596  27.042   6.469  1.00  0.00    -0.004 C 
HETATM   38  C1  UNL     1      19.968  26.442   6.543  1.00  0.00     0.005 C 
ENDBRANCH  36  37
ENDBRANCH  35  36
ENDBRANCH  34  35
ENDBRANCH  33  34
ENDBRANCH  29  33
ENDBRANCH  24  25
BRANCH  24  39
HETATM   39  O3  UNL     1      21.350  30.271  11.503  1.00  0.00    -0.345 OA
ATOM     40  H3  UNL     1      21.132  31.190  11.400  1.00  0.00     0.219 HD
ENDBRANCH  24  39
BRANCH  23  41
HETATM   41  C29 UNL     1      17.958  29.954  12.995  1.00  0.00    -0.004 C 
HETATM   42  C30 UNL     1      17.297  31.096  13.793  1.00  0.00     0.021 C 
HETATM   43  C31 UNL     1      17.864  28.717  13.821  1.00  0.00     0.021 C 
HETATM   44  C32 UNL     1      16.990  29.812  11.790  1.00  0.00     0.021 C 
ENDBRANCH  23  41
ENDBRANCH  19  23
ENDBRANCH  12  13
ENDBRANCH   1  12
BRANCH   2  45
HETATM   45  O5  UNL     1      17.567  34.274  17.397  1.00  0.00    -0.350 OA
BRANCH  45  46
HETATM   46  C17 UNL     1      16.607  33.527  16.928  1.00  0.00     0.177 C 
BRANCH  46  47
HETATM   47  C18 UNL     1      15.770  33.902  15.742  1.00  0.00     0.054 C 
BRANCH  47  48
HETATM   48  C19 UNL     1      16.368  34.785  14.720  1.00  0.00     0.231 C 
BRANCH  48  49
HETATM   49  N6  UNL     1      17.785  34.446  14.477  1.00  0.00    -0.079 N 
ATOM     50  H63 UNL     1      18.407  34.998  15.067  1.00  0.00     0.274 HD
ATOM     51  H62 UNL     1      18.013  33.518  14.831  1.00  0.00     0.274 HD
ATOM     52  H61 UNL     1      18.026  34.539  13.490  1.00  0.00     0.274 HD
ENDBRANCH  48  49
ENDBRANCH  47  48
ENDBRANCH  46  47
ENDBRANCH  45  46
ENDBRANCH   2  45
TORSDOF 17
ENDMDL
