MODEL 1
REMARK VINA RESULT: -8.916174250      0.000      0.000
REMARK  16 active torsions:
REMARK  status: ('A' for Active; 'I' for Inactive)
REMARK    1  A    between atoms: C2_2  and  C3_3 
REMARK    2  A    between atoms: C3_3  and  C4_4 
REMARK    3  A    between atoms: C6_7  and  O1_8 
REMARK    4  A    between atoms: O1_8  and  C7_9 
REMARK    5  A    between atoms: C7_9  and  C8_10 
REMARK    6  A    between atoms: C8_10  and  O2_11 
REMARK    7  A    between atoms: C8_10  and  N1_13 
REMARK    8  A    between atoms: N1_13  and  C9_14 
REMARK    9  A    between atoms: N1_13  and  C12_18 
REMARK   10  A    between atoms: C9_14  and  C10_15 
REMARK   11  A    between atoms: C10_15  and  O3_16 
REMARK   12  A    between atoms: C15_21  and  N2_22 
REMARK   13  A    between atoms: N2_22  and  C16_24 
REMARK   14  A    between atoms: C16_24  and  C17_25 
REMARK   15  A    between atoms: C26_39  and  C27_40 
REMARK       I    between atoms: C27_40  and  N5_42 
REMARK   16  A    between atoms: N6_45  and  C30_46 
ROOT
HETATM    1  C8  UNL     1      19.004  28.488  13.613  1.00  0.00     0.143 C 
ENDROOT
BRANCH   1   2
HETATM    2  C7  UNL     1      17.817  27.645  13.748  1.00  0.00     0.260 C 
BRANCH   2   3
HETATM    3  O1  UNL     1      17.129  27.323  12.589  1.00  0.00    -0.341 OA
BRANCH   3   4
HETATM    4  C6  UNL     1      17.747  26.649  11.548  1.00  0.00     0.094 A 
HETATM    5  C5  UNL     1      17.980  27.214  10.326  1.00  0.00     0.074 A 
HETATM    6  C4  UNL     1      18.609  26.504   9.291  1.00  0.00    -0.015 A 
HETATM    7 CL1  UNL     1      17.463  28.868  10.019  1.00  0.00    -0.081 Cl
HETATM    8  C26 UNL     1      18.999  25.201   9.515  1.00  0.00     0.078 A 
HETATM    9  C25 UNL     1      18.760  24.620  10.767  1.00  0.00     0.135 A 
HETATM   10  C24 UNL     1      18.145  25.348  11.751  1.00  0.00     0.081 A 
HETATM   11  F2  UNL     1      19.138  23.329  11.015  1.00  0.00    -0.205 F 
BRANCH   6  12
HETATM   12  C3  UNL     1      18.822  27.118   7.968  1.00  0.00     0.041 C 
BRANCH  12  13
HETATM   13  C2  UNL     1      17.800  26.847   6.929  1.00  0.00     0.000 C 
HETATM   14  C1  UNL     1      18.078  27.603   5.665  1.00  0.00     0.005 C 
ENDBRANCH  12  13
ENDBRANCH   6  12
BRANCH   8  15
HETATM   15  C27 UNL     1      19.624  24.330   8.534  1.00  0.00     0.257 C 
HETATM   16  O4  UNL     1      18.960  23.554   7.843  1.00  0.00    -0.267 OA
HETATM   17  N5  UNL     1      21.028  24.393   8.388  1.00  0.00    -0.344 N 
HETATM   18  C28 UNL     1      21.668  23.533   7.419  1.00  0.00     0.156 C 
HETATM   19  C33 UNL     1      21.859  25.275   9.158  1.00  0.00     0.156 C 
HETATM   20  C29 UNL     1      23.100  23.342   7.883  1.00  0.00     0.292 C 
HETATM   21  N6  UNL     1      23.825  24.589   7.850  1.00  0.00     0.091 N 
HETATM   22  C32 UNL     1      23.128  25.677   8.446  1.00  0.00     0.292 C 
BRANCH  21  23
HETATM   23  C30 UNL     1      24.250  24.959   6.530  1.00  0.00     0.268 C 
HETATM   24  C31 UNL     1      25.110  23.902   5.877  1.00  0.00     0.037 C 
ENDBRANCH  21  23
ENDBRANCH   8  15
ENDBRANCH   3   4
ENDBRANCH   2   3
ENDBRANCH   1   2
BRANCH   1  25
HETATM   25  O2  UNL     1      20.144  27.870  13.729  1.00  0.00    -0.348 OA
ATOM     26  H2  UNL     1      20.761  28.013  13.021  1.00  0.00     0.219 HD
ENDBRANCH   1  25
BRANCH   1  27
HETATM   27  N1  UNL     1      19.074  29.856  13.378  1.00  0.00    -0.325 N 
BRANCH  27  28
HETATM   28  C9  UNL     1      19.727  30.477  12.241  1.00  0.00     0.157 C 
BRANCH  28  29
HETATM   29  C10 UNL     1      21.123  30.909  12.569  1.00  0.00     0.187 C 
BRANCH  29  30
HETATM   30  O3  UNL     1      21.211  32.209  12.953  1.00  0.00    -0.394 OA
HETATM   31  C11 UNL     1      21.976  32.415  14.064  1.00  0.00     0.201 C 
ENDBRANCH  29  30
ENDBRANCH  28  29
ENDBRANCH  27  28
BRANCH  27  32
HETATM   32  C12 UNL     1      18.454  30.782  14.301  1.00  0.00     0.078 A 
HETATM   33  C13 UNL     1      17.408  31.579  13.923  1.00  0.00     0.037 A 
HETATM   34  C14 UNL     1      16.828  32.476  14.841  1.00  0.00     0.050 A 
HETATM   35  C15 UNL     1      17.325  32.540  16.114  1.00  0.00     0.102 A 
HETATM   36  N3  UNL     1      18.350  31.753  16.468  1.00  0.00    -0.329 N 
HETATM   37  C23 UNL     1      18.923  30.878  15.591  1.00  0.00     0.145 A 
ATOM     38  H3  UNL     1      18.712  31.809  17.420  1.00  0.00     0.168 HD
HETATM   39  N4  UNL     1      19.996  30.073  16.010  1.00  0.00    -0.080 NA
BRANCH  35  40
HETATM   40  N2  UNL     1      16.854  33.331  16.986  1.00  0.00    -0.373 N 
ATOM     41  H2  UNL     1      16.131  33.002  17.625  1.00  0.00     0.161 HD
BRANCH  40  42
HETATM   42  C16 UNL     1      17.326  34.689  17.085  1.00  0.00     0.164 C 
BRANCH  42  43
HETATM   43  C17 UNL     1      16.304  35.665  16.522  1.00  0.00     0.119 C 
HETATM   44  F1  UNL     1      16.359  35.642  15.135  1.00  0.00    -0.241 F 
HETATM   45  C18 UNL     1      14.929  35.281  17.023  1.00  0.00     0.045 C 
HETATM   46  C19 UNL     1      14.440  36.114  18.160  1.00  0.00     0.003 C 
HETATM   47  C20 UNL     1      15.506  36.552  19.112  1.00  0.00     0.000 C 
HETATM   48  C21 UNL     1      16.719  37.137  18.454  1.00  0.00     0.003 C 
HETATM   49  C22 UNL     1      16.696  37.048  16.952  1.00  0.00     0.045 C 
ENDBRANCH  42  43
ENDBRANCH  40  42
ENDBRANCH  35  40
ENDBRANCH  27  32
ENDBRANCH   1  27
TORSDOF 16
ENDMDL
MODEL 2
REMARK VINA RESULT: -8.886955279      1.379      1.754
REMARK  16 active torsions:
REMARK  status: ('A' for Active; 'I' for Inactive)
REMARK    1  A    between atoms: C2_2  and  C3_3 
REMARK    2  A    between atoms: C3_3  and  C4_4 
REMARK    3  A    between atoms: C6_7  and  O1_8 
REMARK    4  A    between atoms: O1_8  and  C7_9 
REMARK    5  A    between atoms: C7_9  and  C8_10 
REMARK    6  A    between atoms: C8_10  and  O2_11 
REMARK    7  A    between atoms: C8_10  and  N1_13 
REMARK    8  A    between atoms: N1_13  and  C9_14 
REMARK    9  A    between atoms: N1_13  and  C12_18 
REMARK   10  A    between atoms: C9_14  and  C10_15 
REMARK   11  A    between atoms: C10_15  and  O3_16 
REMARK   12  A    between atoms: C15_21  and  N2_22 
REMARK   13  A    between atoms: N2_22  and  C16_24 
REMARK   14  A    between atoms: C16_24  and  C17_25 
REMARK   15  A    between atoms: C26_39  and  C27_40 
REMARK       I    between atoms: C27_40  and  N5_42 
REMARK   16  A    between atoms: N6_45  and  C30_46 
ROOT
HETATM    1  C8  UNL     1      18.960  28.556  13.897  1.00  0.00     0.143 C 
ENDROOT
BRANCH   1   2
HETATM    2  C7  UNL     1      17.827  27.634  13.876  1.00  0.00     0.260 C 
BRANCH   2   3
HETATM    3  O1  UNL     1      17.072  27.579  12.713  1.00  0.00    -0.341 OA
BRANCH   3   4
HETATM    4  C6  UNL     1      17.463  26.800  11.637  1.00  0.00     0.094 A 
HETATM    5  C5  UNL     1      17.298  27.187  10.336  1.00  0.00     0.074 A 
HETATM    6  C4  UNL     1      17.705  26.374   9.266  1.00  0.00    -0.015 A 
HETATM    7 CL1  UNL     1      16.537  28.732   9.978  1.00  0.00    -0.081 Cl
HETATM    8  C26 UNL     1      18.284  25.152   9.537  1.00  0.00     0.078 A 
HETATM    9  C25 UNL     1      18.453  24.755  10.869  1.00  0.00     0.135 A 
HETATM   10  C24 UNL     1      18.043  25.578  11.885  1.00  0.00     0.081 A 
HETATM   11  F2  UNL     1      19.025  23.548  11.165  1.00  0.00    -0.205 F 
BRANCH   6  12
HETATM   12  C3  UNL     1      17.490  26.792   7.870  1.00  0.00     0.041 C 
BRANCH  12  13
HETATM   13  C2  UNL     1      18.549  27.620   7.245  1.00  0.00     0.000 C 
HETATM   14  C1  UNL     1      18.951  27.090   5.903  1.00  0.00     0.005 C 
ENDBRANCH  12  13
ENDBRANCH   6  12
BRANCH   8  15
HETATM   15  C27 UNL     1      18.720  24.189   8.540  1.00  0.00     0.257 C 
HETATM   16  O4  UNL     1      17.966  23.307   8.121  1.00  0.00    -0.267 OA
HETATM   17  N5  UNL     1      20.043  24.286   8.056  1.00  0.00    -0.344 N 
HETATM   18  C28 UNL     1      20.495  23.336   7.065  1.00  0.00     0.156 C 
HETATM   19  C33 UNL     1      20.970  25.289   8.498  1.00  0.00     0.156 C 
HETATM   20  C29 UNL     1      22.006  23.259   7.191  1.00  0.00     0.292 C 
HETATM   21  N6  UNL     1      22.618  24.519   6.844  1.00  0.00     0.091 N 
HETATM   22  C32 UNL     1      22.008  25.647   7.462  1.00  0.00     0.292 C 
BRANCH  21  23
HETATM   23  C30 UNL     1      22.697  24.736   5.427  1.00  0.00     0.268 C 
HETATM   24  C31 UNL     1      24.121  24.778   4.923  1.00  0.00     0.037 C 
ENDBRANCH  21  23
ENDBRANCH   8  15
ENDBRANCH   3   4
ENDBRANCH   2   3
ENDBRANCH   1   2
BRANCH   1  25
HETATM   25  O2  UNL     1      19.959  28.196  14.651  1.00  0.00    -0.348 OA
ATOM     26  H2  UNL     1      20.812  28.209  14.233  1.00  0.00     0.219 HD
ENDBRANCH   1  25
BRANCH   1  27
HETATM   27  N1  UNL     1      19.111  29.761  13.221  1.00  0.00    -0.325 N 
BRANCH  27  28
HETATM   28  C9  UNL     1      19.515  29.898  11.834  1.00  0.00     0.157 C 
BRANCH  28  29
HETATM   29  C10 UNL     1      20.512  28.854  11.440  1.00  0.00     0.187 C 
BRANCH  29  30
HETATM   30  O3  UNL     1      21.709  28.983  12.070  1.00  0.00    -0.394 OA
HETATM   31  C11 UNL     1      22.462  27.845  12.084  1.00  0.00     0.201 C 
ENDBRANCH  29  30
ENDBRANCH  28  29
ENDBRANCH  27  28
BRANCH  27  32
HETATM   32  C12 UNL     1      18.846  31.011  13.901  1.00  0.00     0.078 A 
HETATM   33  C13 UNL     1      17.611  31.596  13.870  1.00  0.00     0.037 A 
HETATM   34  C14 UNL     1      17.383  32.817  14.537  1.00  0.00     0.050 A 
HETATM   35  C15 UNL     1      18.416  33.408  15.212  1.00  0.00     0.102 A 
HETATM   36  N3  UNL     1      19.620  32.821  15.233  1.00  0.00    -0.329 N 
HETATM   37  C23 UNL     1      19.856  31.639  14.593  1.00  0.00     0.145 A 
ATOM     38  H3  UNL     1      20.382  33.271  15.741  1.00  0.00     0.168 HD
HETATM   39  N4  UNL     1      21.138  31.063  14.644  1.00  0.00    -0.080 NA
BRANCH  35  40
HETATM   40  N2  UNL     1      18.281  34.510  15.825  1.00  0.00    -0.373 N 
ATOM     41  H2  UNL     1      19.096  35.102  15.981  1.00  0.00     0.161 HD
BRANCH  40  42
HETATM   42  C16 UNL     1      16.991  34.937  16.305  1.00  0.00     0.164 C 
BRANCH  42  43
HETATM   43  C17 UNL     1      16.883  34.762  17.812  1.00  0.00     0.119 C 
HETATM   44  F1  UNL     1      17.867  33.882  18.247  1.00  0.00    -0.241 F 
HETATM   45  C18 UNL     1      17.025  36.114  18.475  1.00  0.00     0.045 C 
HETATM   46  C19 UNL     1      15.731  36.724  18.900  1.00  0.00     0.003 C 
HETATM   47  C20 UNL     1      14.581  36.435  17.990  1.00  0.00     0.000 C 
HETATM   48  C21 UNL     1      14.438  34.991  17.615  1.00  0.00     0.003 C 
HETATM   49  C22 UNL     1      15.560  34.121  18.113  1.00  0.00     0.045 C 
ENDBRANCH  42  43
ENDBRANCH  40  42
ENDBRANCH  35  40
ENDBRANCH  27  32
ENDBRANCH   1  27
TORSDOF 16
ENDMDL
MODEL 3
REMARK VINA RESULT: -8.699625980      2.149      3.081
REMARK  16 active torsions:
REMARK  status: ('A' for Active; 'I' for Inactive)
REMARK    1  A    between atoms: C2_2  and  C3_3 
REMARK    2  A    between atoms: C3_3  and  C4_4 
REMARK    3  A    between atoms: C6_7  and  O1_8 
REMARK    4  A    between atoms: O1_8  and  C7_9 
REMARK    5  A    between atoms: C7_9  and  C8_10 
REMARK    6  A    between atoms: C8_10  and  O2_11 
REMARK    7  A    between atoms: C8_10  and  N1_13 
REMARK    8  A    between atoms: N1_13  and  C9_14 
REMARK    9  A    between atoms: N1_13  and  C12_18 
REMARK   10  A    between atoms: C9_14  and  C10_15 
REMARK   11  A    between atoms: C10_15  and  O3_16 
REMARK   12  A    between atoms: C15_21  and  N2_22 
REMARK   13  A    between atoms: N2_22  and  C16_24 
REMARK   14  A    between atoms: C16_24  and  C17_25 
REMARK   15  A    between atoms: C26_39  and  C27_40 
REMARK       I    between atoms: C27_40  and  N5_42 
REMARK   16  A    between atoms: N6_45  and  C30_46 
ROOT
HETATM    1  C8  UNL     1      20.221  30.757  15.830  1.00  0.00     0.143 C 
ENDROOT
BRANCH   1   2
HETATM    2  C7  UNL     1      20.136  29.369  15.381  1.00  0.00     0.260 C 
BRANCH   2   3
HETATM    3  O1  UNL     1      19.015  29.002  14.653  1.00  0.00    -0.341 OA
BRANCH   3   4
HETATM    4  C6  UNL     1      19.123  28.497  13.368  1.00  0.00     0.094 A 
HETATM    5  C5  UNL     1      18.238  27.596  12.843  1.00  0.00     0.074 A 
HETATM    6  C4  UNL     1      18.375  27.103  11.536  1.00  0.00    -0.015 A 
HETATM    7 CL1  UNL     1      16.900  27.015  13.826  1.00  0.00    -0.081 Cl
HETATM    8  C26 UNL     1      19.432  27.538  10.764  1.00  0.00     0.078 A 
HETATM    9  C25 UNL     1      20.339  28.459  11.302  1.00  0.00     0.135 A 
HETATM   10  C24 UNL     1      20.169  28.918  12.582  1.00  0.00     0.081 A 
HETATM   11  F2  UNL     1      21.396  28.907  10.557  1.00  0.00    -0.205 F 
BRANCH   6  12
HETATM   12  C3  UNL     1      17.433  26.108  10.996  1.00  0.00     0.041 C 
BRANCH  12  13
HETATM   13  C2  UNL     1      17.725  24.682  11.279  1.00  0.00     0.000 C 
HETATM   14  C1  UNL     1      17.874  23.884  10.020  1.00  0.00     0.005 C 
ENDBRANCH  12  13
ENDBRANCH   6  12
BRANCH   8  15
HETATM   15  C27 UNL     1      19.727  27.091   9.413  1.00  0.00     0.257 C 
HETATM   16  O4  UNL     1      19.150  27.571   8.433  1.00  0.00    -0.267 OA
HETATM   17  N5  UNL     1      20.700  26.081   9.245  1.00  0.00    -0.344 N 
HETATM   18  C28 UNL     1      21.006  25.622   7.909  1.00  0.00     0.156 C 
HETATM   19  C33 UNL     1      21.410  25.483  10.340  1.00  0.00     0.156 C 
HETATM   20  C29 UNL     1      21.550  24.212   8.045  1.00  0.00     0.292 C 
HETATM   21  N6  UNL     1      22.801  24.209   8.765  1.00  0.00     0.091 N 
HETATM   22  C32 UNL     1      22.780  24.976   9.963  1.00  0.00     0.292 C 
BRANCH  21  23
HETATM   23  C30 UNL     1      23.916  24.614   7.957  1.00  0.00     0.268 C 
HETATM   24  C31 UNL     1      24.166  23.679   6.796  1.00  0.00     0.037 C 
ENDBRANCH  21  23
ENDBRANCH   8  15
ENDBRANCH   3   4
ENDBRANCH   2   3
ENDBRANCH   1   2
BRANCH   1  25
HETATM   25  O2  UNL     1      20.945  30.958  16.893  1.00  0.00    -0.348 OA
ATOM     26  H2  UNL     1      20.913  31.839  17.248  1.00  0.00     0.219 HD
ENDBRANCH   1  25
BRANCH   1  27
HETATM   27  N1  UNL     1      19.632  31.886  15.272  1.00  0.00    -0.325 N 
BRANCH  27  28
HETATM   28  C9  UNL     1      19.935  32.427  13.960  1.00  0.00     0.157 C 
BRANCH  28  29
HETATM   29  C10 UNL     1      21.359  32.177  13.571  1.00  0.00     0.187 C 
BRANCH  29  30
HETATM   30  O3  UNL     1      22.224  33.101  14.064  1.00  0.00    -0.394 OA
HETATM   31  C11 UNL     1      23.372  32.574  14.582  1.00  0.00     0.201 C 
ENDBRANCH  29  30
ENDBRANCH  28  29
ENDBRANCH  27  28
BRANCH  27  32
HETATM   32  C12 UNL     1      18.621  32.615  16.008  1.00  0.00     0.078 A 
HETATM   33  C13 UNL     1      17.294  32.307  15.899  1.00  0.00     0.037 A 
HETATM   34  C14 UNL     1      16.330  33.037  16.623  1.00  0.00     0.050 A 
HETATM   35  C15 UNL     1      16.742  34.058  17.435  1.00  0.00     0.102 A 
HETATM   36  N3  UNL     1      18.047  34.348  17.530  1.00  0.00    -0.329 N 
HETATM   37  C23 UNL     1      18.992  33.649  16.836  1.00  0.00     0.145 A 
ATOM     38  H3  UNL     1      18.342  35.111  18.139  1.00  0.00     0.168 HD
HETATM   39  N4  UNL     1      20.349  33.991  16.970  1.00  0.00    -0.080 NA
BRANCH  35  40
HETATM   40  N2  UNL     1      15.927  34.760  18.107  1.00  0.00    -0.373 N 
ATOM     41  H2  UNL     1      14.940  34.504  18.124  1.00  0.00     0.161 HD
BRANCH  40  42
HETATM   42  C16 UNL     1      16.376  35.913  18.845  1.00  0.00     0.164 C 
BRANCH  42  43
HETATM   43  C17 UNL     1      15.667  37.173  18.374  1.00  0.00     0.119 C 
HETATM   44  F1  UNL     1      14.397  36.846  17.918  1.00  0.00    -0.241 F 
HETATM   45  C18 UNL     1      15.602  38.158  19.521  1.00  0.00     0.045 C 
HETATM   46  C19 UNL     1      16.625  39.242  19.454  1.00  0.00     0.003 C 
HETATM   47  C20 UNL     1      17.940  38.818  18.883  1.00  0.00     0.000 C 
HETATM   48  C21 UNL     1      17.838  38.046  17.602  1.00  0.00     0.003 C 
HETATM   49  C22 UNL     1      16.425  37.722  17.201  1.00  0.00     0.045 C 
ENDBRANCH  42  43
ENDBRANCH  40  42
ENDBRANCH  35  40
ENDBRANCH  27  32
ENDBRANCH   1  27
TORSDOF 16
ENDMDL
MODEL 4
REMARK VINA RESULT: -8.598456794      2.067      3.117
REMARK  16 active torsions:
REMARK  status: ('A' for Active; 'I' for Inactive)
REMARK    1  A    between atoms: C2_2  and  C3_3 
REMARK    2  A    between atoms: C3_3  and  C4_4 
REMARK    3  A    between atoms: C6_7  and  O1_8 
REMARK    4  A    between atoms: O1_8  and  C7_9 
REMARK    5  A    between atoms: C7_9  and  C8_10 
REMARK    6  A    between atoms: C8_10  and  O2_11 
REMARK    7  A    between atoms: C8_10  and  N1_13 
REMARK    8  A    between atoms: N1_13  and  C9_14 
REMARK    9  A    between atoms: N1_13  and  C12_18 
REMARK   10  A    between atoms: C9_14  and  C10_15 
REMARK   11  A    between atoms: C10_15  and  O3_16 
REMARK   12  A    between atoms: C15_21  and  N2_22 
REMARK   13  A    between atoms: N2_22  and  C16_24 
REMARK   14  A    between atoms: C16_24  and  C17_25 
REMARK   15  A    between atoms: C26_39  and  C27_40 
REMARK       I    between atoms: C27_40  and  N5_42 
REMARK   16  A    between atoms: N6_45  and  C30_46 
ROOT
HETATM    1  C8  UNL     1      19.466  30.112  15.004  1.00  0.00     0.143 C 
ENDROOT
BRANCH   1   2
HETATM    2  C7  UNL     1      18.996  28.837  14.466  1.00  0.00     0.260 C 
BRANCH   2   3
HETATM    3  O1  UNL     1      18.518  28.832  13.164  1.00  0.00    -0.341 OA
BRANCH   3   4
HETATM    4  C6  UNL     1      18.993  27.931  12.225  1.00  0.00     0.094 A 
HETATM    5  C5  UNL     1      18.263  26.865  11.779  1.00  0.00     0.074 A 
HETATM    6  C4  UNL     1      18.773  25.968  10.826  1.00  0.00    -0.015 A 
HETATM    7 CL1  UNL     1      16.650  26.582  12.422  1.00  0.00    -0.081 Cl
HETATM    8  C26 UNL     1      20.044  26.170  10.330  1.00  0.00     0.078 A 
HETATM    9  C25 UNL     1      20.792  27.262  10.788  1.00  0.00     0.135 A 
HETATM   10  C24 UNL     1      20.258  28.114  11.718  1.00  0.00     0.081 A 
HETATM   11  F2  UNL     1      22.055  27.484  10.312  1.00  0.00    -0.205 F 
BRANCH   6  12
HETATM   12  C3  UNL     1      17.986  24.805  10.380  1.00  0.00     0.041 C 
BRANCH  12  13
HETATM   13  C2  UNL     1      18.130  23.555  11.164  1.00  0.00     0.000 C 
HETATM   14  C1  UNL     1      16.806  22.901  11.417  1.00  0.00     0.005 C 
ENDBRANCH  12  13
ENDBRANCH   6  12
BRANCH   8  15
HETATM   15  C27 UNL     1      20.719  25.310   9.373  1.00  0.00     0.257 C 
HETATM   16  O4  UNL     1      21.481  24.411   9.737  1.00  0.00    -0.267 OA
HETATM   17  N5  UNL     1      20.479  25.530   7.998  1.00  0.00    -0.344 N 
HETATM   18  C28 UNL     1      21.143  24.687   7.030  1.00  0.00     0.156 C 
HETATM   19  C33 UNL     1      19.603  26.556   7.507  1.00  0.00     0.156 C 
HETATM   20  C29 UNL     1      21.222  25.481   5.740  1.00  0.00     0.292 C 
HETATM   21  N6  UNL     1      19.904  25.736   5.209  1.00  0.00     0.091 N 
HETATM   22  C32 UNL     1      18.979  26.225   6.174  1.00  0.00     0.292 C 
BRANCH  21  23
HETATM   23  C30 UNL     1      19.338  24.602   4.535  1.00  0.00     0.268 C 
HETATM   24  C31 UNL     1      19.012  24.888   3.087  1.00  0.00     0.037 C 
ENDBRANCH  21  23
ENDBRANCH   8  15
ENDBRANCH   3   4
ENDBRANCH   2   3
ENDBRANCH   1   2
BRANCH   1  25
HETATM   25  O2  UNL     1      20.389  30.026  15.919  1.00  0.00    -0.348 OA
ATOM     26  H2  UNL     1      20.951  30.787  16.004  1.00  0.00     0.219 HD
ENDBRANCH   1  25
BRANCH   1  27
HETATM   27  N1  UNL     1      19.057  31.398  14.669  1.00  0.00    -0.325 N 
BRANCH  27  28
HETATM   28  C9  UNL     1      19.516  32.147  13.514  1.00  0.00     0.157 C 
BRANCH  28  29
HETATM   29  C10 UNL     1      20.918  31.785  13.137  1.00  0.00     0.187 C 
BRANCH  29  30
HETATM   30  O3  UNL     1      21.841  32.691  13.552  1.00  0.00    -0.394 OA
HETATM   31  C11 UNL     1      22.707  32.218  14.495  1.00  0.00     0.201 C 
ENDBRANCH  29  30
ENDBRANCH  28  29
ENDBRANCH  27  28
BRANCH  27  32
HETATM   32  C12 UNL     1      18.092  32.090  15.496  1.00  0.00     0.078 A 
HETATM   33  C13 UNL     1      16.747  31.920  15.322  1.00  0.00     0.037 A 
HETATM   34  C14 UNL     1      15.829  32.611  16.138  1.00  0.00     0.050 A 
HETATM   35  C15 UNL     1      16.303  33.455  17.104  1.00  0.00     0.102 A 
HETATM   36  N3  UNL     1      17.624  33.610  17.262  1.00  0.00    -0.329 N 
HETATM   37  C23 UNL     1      18.526  32.947  16.481  1.00  0.00     0.145 A 
ATOM     38  H3  UNL     1      17.966  34.242  17.987  1.00  0.00     0.168 HD
HETATM   39  N4  UNL     1      19.903  33.144  16.685  1.00  0.00    -0.080 NA
BRANCH  35  40
HETATM   40  N2  UNL     1      15.532  34.113  17.866  1.00  0.00    -0.373 N 
ATOM     41  H2  UNL     1      14.558  33.826  17.965  1.00  0.00     0.161 HD
BRANCH  40  42
HETATM   42  C16 UNL     1      16.012  35.260  18.594  1.00  0.00     0.164 C 
BRANCH  42  43
HETATM   43  C17 UNL     1      15.441  36.548  18.022  1.00  0.00     0.119 C 
HETATM   44  F1  UNL     1      14.193  36.294  17.466  1.00  0.00    -0.241 F 
HETATM   45  C18 UNL     1      15.349  37.578  19.127  1.00  0.00     0.045 C 
HETATM   46  C19 UNL     1      16.451  38.584  19.115  1.00  0.00     0.003 C 
HETATM   47  C20 UNL     1      17.776  38.048  18.677  1.00  0.00     0.000 C 
HETATM   48  C21 UNL     1      17.727  37.237  17.417  1.00  0.00     0.003 C 
HETATM   49  C22 UNL     1      16.334  36.998  16.903  1.00  0.00     0.045 C 
ENDBRANCH  42  43
ENDBRANCH  40  42
ENDBRANCH  35  40
ENDBRANCH  27  32
ENDBRANCH   1  27
TORSDOF 16
ENDMDL
MODEL 5
REMARK VINA RESULT: -8.535310127      2.051      3.303
REMARK  16 active torsions:
REMARK  status: ('A' for Active; 'I' for Inactive)
REMARK    1  A    between atoms: C2_2  and  C3_3 
REMARK    2  A    between atoms: C3_3  and  C4_4 
REMARK    3  A    between atoms: C6_7  and  O1_8 
REMARK    4  A    between atoms: O1_8  and  C7_9 
REMARK    5  A    between atoms: C7_9  and  C8_10 
REMARK    6  A    between atoms: C8_10  and  O2_11 
REMARK    7  A    between atoms: C8_10  and  N1_13 
REMARK    8  A    between atoms: N1_13  and  C9_14 
REMARK    9  A    between atoms: N1_13  and  C12_18 
REMARK   10  A    between atoms: C9_14  and  C10_15 
REMARK   11  A    between atoms: C10_15  and  O3_16 
REMARK   12  A    between atoms: C15_21  and  N2_22 
REMARK   13  A    between atoms: N2_22  and  C16_24 
REMARK   14  A    between atoms: C16_24  and  C17_25 
REMARK   15  A    between atoms: C26_39  and  C27_40 
REMARK       I    between atoms: C27_40  and  N5_42 
REMARK   16  A    between atoms: N6_45  and  C30_46 
ROOT
HETATM    1  C8  UNL     1      19.748  30.095  15.118  1.00  0.00     0.143 C 
ENDROOT
BRANCH   1   2
HETATM    2  C7  UNL     1      19.529  28.799  14.479  1.00  0.00     0.260 C 
BRANCH   2   3
HETATM    3  O1  UNL     1      18.967  28.800  13.212  1.00  0.00    -0.341 OA
BRANCH   3   4
HETATM    4  C6  UNL     1      19.281  27.822  12.283  1.00  0.00     0.094 A 
HETATM    5  C5  UNL     1      20.547  27.624  11.806  1.00  0.00     0.074 A 
HETATM    6  C4  UNL     1      20.833  26.623  10.865  1.00  0.00    -0.015 A 
HETATM    7 CL1  UNL     1      21.858  28.658  12.361  1.00  0.00    -0.081 Cl
HETATM    8  C26 UNL     1      19.808  25.820  10.409  1.00  0.00     0.078 A 
HETATM    9  C25 UNL     1      18.511  26.022  10.897  1.00  0.00     0.135 A 
HETATM   10  C24 UNL     1      18.274  27.010  11.816  1.00  0.00     0.081 A 
HETATM   11  F2  UNL     1      17.477  25.240  10.462  1.00  0.00    -0.205 F 
BRANCH   6  12
HETATM   12  C3  UNL     1      22.196  26.444  10.335  1.00  0.00     0.041 C 
BRANCH  12  13
HETATM   13  C2  UNL     1      23.105  25.557  11.102  1.00  0.00     0.000 C 
HETATM   14  C1  UNL     1      24.381  26.251  11.469  1.00  0.00     0.005 C 
ENDBRANCH  12  13
ENDBRANCH   6  12
BRANCH   8  15
HETATM   15  C27 UNL     1      19.942  24.772   9.412  1.00  0.00     0.257 C 
HETATM   16  O4  UNL     1      20.096  23.590   9.732  1.00  0.00    -0.267 OA
HETATM   17  N5  UNL     1      19.890  25.141   8.049  1.00  0.00    -0.344 N 
HETATM   18  C28 UNL     1      20.022  24.113   7.042  1.00  0.00     0.156 C 
HETATM   19  C33 UNL     1      19.710  26.495   7.608  1.00  0.00     0.156 C 
HETATM   20  C29 UNL     1      20.544  24.793   5.790  1.00  0.00     0.292 C 
HETATM   21  N6  UNL     1      19.580  25.735   5.274  1.00  0.00     0.091 N 
HETATM   22  C32 UNL     1      19.037  26.604   6.261  1.00  0.00     0.292 C 
BRANCH  21  23
HETATM   23  C30 UNL     1      18.512  25.109   4.548  1.00  0.00     0.268 C 
HETATM   24  C31 UNL     1      17.151  25.633   4.945  1.00  0.00     0.037 C 
ENDBRANCH  21  23
ENDBRANCH   8  15
ENDBRANCH   3   4
ENDBRANCH   2   3
ENDBRANCH   1   2
BRANCH   1  25
HETATM   25  O2  UNL     1      20.476  30.071  16.197  1.00  0.00    -0.348 OA
ATOM     26  H2  UNL     1      21.123  30.763  16.269  1.00  0.00     0.219 HD
ENDBRANCH   1  25
BRANCH   1  27
HETATM   27  N1  UNL     1      19.282  31.345  14.726  1.00  0.00    -0.325 N 
BRANCH  27  28
HETATM   28  C9  UNL     1      19.736  32.080  13.560  1.00  0.00     0.157 C 
BRANCH  28  29
HETATM   29  C10 UNL     1      21.193  31.861  13.298  1.00  0.00     0.187 C 
BRANCH  29  30
HETATM   30  O3  UNL     1      21.982  32.869  13.754  1.00  0.00    -0.394 OA
HETATM   31  C11 UNL     1      22.967  32.467  14.609  1.00  0.00     0.201 C 
ENDBRANCH  29  30
ENDBRANCH  28  29
ENDBRANCH  27  28
BRANCH  27  32
HETATM   32  C12 UNL     1      18.253  32.009  15.498  1.00  0.00     0.078 A 
HETATM   33  C13 UNL     1      16.925  31.771  15.277  1.00  0.00     0.037 A 
HETATM   34  C14 UNL     1      15.945  32.437  16.039  1.00  0.00     0.050 A 
HETATM   35  C15 UNL     1      16.341  33.325  17.002  1.00  0.00     0.102 A 
HETATM   36  N3  UNL     1      17.646  33.546  17.206  1.00  0.00    -0.329 N 
HETATM   37  C23 UNL     1      18.608  32.909  16.476  1.00  0.00     0.145 A 
ATOM     38  H3  UNL     1      17.930  34.210  17.927  1.00  0.00     0.168 HD
HETATM   39  N4  UNL     1      19.965  33.175  16.728  1.00  0.00    -0.080 NA
BRANCH  35  40
HETATM   40  N2  UNL     1      15.511  33.963  17.717  1.00  0.00    -0.373 N 
ATOM     41  H2  UNL     1      14.533  33.673  17.732  1.00  0.00     0.161 HD
BRANCH  40  42
HETATM   42  C16 UNL     1      15.929  35.092  18.508  1.00  0.00     0.164 C 
BRANCH  42  43
HETATM   43  C17 UNL     1      15.306  36.381  17.995  1.00  0.00     0.119 C 
HETATM   44  F1  UNL     1      14.047  36.109  17.474  1.00  0.00    -0.241 F 
HETATM   45  C18 UNL     1      15.226  37.375  19.133  1.00  0.00     0.045 C 
HETATM   46  C19 UNL     1      16.301  38.410  19.115  1.00  0.00     0.003 C 
HETATM   47  C20 UNL     1      17.623  37.922  18.616  1.00  0.00     0.000 C 
HETATM   48  C21 UNL     1      17.552  37.147  17.335  1.00  0.00     0.003 C 
HETATM   49  C22 UNL     1      16.149  36.886  16.861  1.00  0.00     0.045 C 
ENDBRANCH  42  43
ENDBRANCH  40  42
ENDBRANCH  35  40
ENDBRANCH  27  32
ENDBRANCH   1  27
TORSDOF 16
ENDMDL
