MODEL 1
REMARK VINA RESULT: -8.954800083      0.000      0.000
REMARK  16 active torsions:
REMARK  status: ('A' for Active; 'I' for Inactive)
REMARK    1  A    between atoms: C2_5  and  C3_6 
REMARK    2  A    between atoms: C5_11  and  C6_12 
REMARK    3  A    between atoms: C6_12  and  C7_13 
REMARK    4  A    between atoms: C6_12  and  N4_35 
REMARK    5  A    between atoms: C6_12  and  C28_45 
REMARK    6  A    between atoms: C7_13  and  C8_14 
REMARK    7  A    between atoms: C8_14  and  C9_15 
REMARK    8  A    between atoms: C9_15  and  C10_16 
REMARK    9  A    between atoms: N3_18  and  S1_19 
REMARK   10  A    between atoms: S1_19  and  C12_22 
REMARK   11  A    between atoms: C12_22  and  C13_23 
REMARK   12  A    between atoms: N4_35  and  S2_37 
REMARK   13  A    between atoms: S2_37  and  C25_40 
REMARK   14  A    between atoms: C25_40  and  C26_41 
REMARK   15  A    between atoms: C26_41  and  C27_42 
REMARK   16  A    between atoms: C27_42  and  O5_43 
ROOT
HETATM    1  C6  UNL     1      19.750  27.103  10.461  1.00  0.00     0.087 C 
ENDROOT
BRANCH   1   2
HETATM    2  C5  UNL     1      18.992  27.483   9.240  1.00  0.00     0.059 A 
HETATM    3  N1  UNL     1      17.870  28.195   9.128  1.00  0.00    -0.298 N 
HETATM    4  C1  UNL     1      17.024  28.819  10.137  1.00  0.00     0.177 C 
HETATM    5  N2  UNL     1      17.560  28.301   7.815  1.00  0.00    -0.294 N 
HETATM    6  C2  UNL     1      18.455  27.678   7.077  1.00  0.00     0.134 A 
ATOM      7  H2  UNL     1      16.746  28.795   7.448  1.00  0.00     0.187 HD
HETATM    8  C4  UNL     1      19.384  27.141   7.938  1.00  0.00     0.065 A 
BRANCH   6   9
HETATM    9  C3  UNL     1      18.514  27.557   5.581  1.00  0.00     0.434 C 
HETATM   10  F1  UNL     1      18.716  28.849   5.070  1.00  0.00    -0.165 F 
HETATM   11  F2  UNL     1      17.367  27.015   5.080  1.00  0.00    -0.165 F 
HETATM   12  F3  UNL     1      19.624  26.802   5.237  1.00  0.00    -0.165 F 
ENDBRANCH   6   9
ENDBRANCH   1   2
BRANCH   1  13
HETATM   13  C7  UNL     1      19.771  28.232  11.425  1.00  0.00     0.038 C 
BRANCH  13  14
HETATM   14  C8  UNL     1      21.021  29.102  11.448  1.00  0.00     0.004 C 
BRANCH  14  15
HETATM   15  C9  UNL     1      21.251  29.593  12.831  1.00  0.00     0.011 C 
BRANCH  15  16
HETATM   16  C10 UNL     1      20.999  30.995  13.222  1.00  0.00     0.033 C 
HETATM   17  C11 UNL     1      19.530  31.083  13.582  1.00  0.00     0.081 C 
HETATM   18  N3  UNL     1      19.049  30.883  14.861  1.00  0.00    -0.290 N 
HETATM   19  C19 UNL     1      19.854  30.883  16.003  1.00  0.00     0.141 C 
HETATM   20  C20 UNL     1      21.288  30.463  15.674  1.00  0.00     0.031 C 
HETATM   21  C21 UNL     1      21.737  31.337  14.542  1.00  0.00    -0.031 C 
HETATM   22  C22 UNL     1      21.375  32.808  14.873  1.00  0.00     0.010 C 
HETATM   23  C24 UNL     1      23.130  31.768  14.551  1.00  0.00     0.010 C 
HETATM   24  C23 UNL     1      22.708  33.215  14.217  1.00  0.00     0.002 C 
BRANCH  18  25
HETATM   25  S1  UNL     1      17.478  31.563  15.075  1.00  0.00     0.232 S 
HETATM   26  O1  UNL     1      16.700  30.648  15.984  1.00  0.00    -0.205 OA
HETATM   27  O2  UNL     1      16.793  31.506  13.714  1.00  0.00    -0.205 OA
BRANCH  25  28
HETATM   28  C12 UNL     1      17.496  33.212  15.589  1.00  0.00     0.168 C 
BRANCH  28  29
HETATM   29  C13 UNL     1      16.389  34.117  15.231  1.00  0.00     0.001 C 
HETATM   30  C14 UNL     1      15.160  33.673  16.045  1.00  0.00     0.005 C 
HETATM   31  C15 UNL     1      15.436  33.669  17.498  1.00  0.00     0.000 C 
HETATM   32  C16 UNL     1      16.022  34.938  18.053  1.00  0.00     0.000 C 
HETATM   33  C17 UNL     1      17.087  35.523  17.168  1.00  0.00     0.000 C 
HETATM   34  C18 UNL     1      16.646  35.547  15.748  1.00  0.00     0.005 C 
ENDBRANCH  28  29
ENDBRANCH  25  28
ENDBRANCH  18  25
ENDBRANCH  15  16
ENDBRANCH  14  15
ENDBRANCH  13  14
ENDBRANCH   1  13
BRANCH   1  35
HETATM   35  N4  UNL     1      21.155  27.005   9.992  1.00  0.00    -0.303 N 
ATOM     36  H4  UNL     1      21.618  27.807   9.564  1.00  0.00     0.173 HD
BRANCH  35  37
HETATM   37  S2  UNL     1      21.954  25.570  10.177  1.00  0.00     0.227 S 
HETATM   38  O3  UNL     1      21.912  25.019  11.594  1.00  0.00    -0.206 OA
HETATM   39  O4  UNL     1      21.436  24.440   9.331  1.00  0.00    -0.206 OA
BRANCH  37  40
HETATM   40  C25 UNL     1      23.681  25.728   9.800  1.00  0.00     0.165 C 
BRANCH  40  41
HETATM   41  C26 UNL     1      24.289  27.021  10.205  1.00  0.00     0.043 C 
BRANCH  41  42
HETATM   42  C27 UNL     1      24.592  27.199  11.649  1.00  0.00     0.165 C 
BRANCH  42  43
HETATM   43  O5  UNL     1      24.804  25.893  12.177  1.00  0.00    -0.401 OA
ATOM     44  H5  UNL     1      25.668  25.902  12.571  1.00  0.00     0.209 HD
ENDBRANCH  42  43
ENDBRANCH  41  42
ENDBRANCH  40  41
ENDBRANCH  37  40
ENDBRANCH  35  37
ENDBRANCH   1  35
BRANCH   1  45
HETATM   45  C28 UNL     1      19.321  25.822  11.054  1.00  0.00     0.020 A 
HETATM   46  C29 UNL     1      18.045  25.699  11.826  1.00  0.00     0.008 A 
HETATM   47  C30 UNL     1      18.161  25.071  10.487  1.00  0.00     0.008 A 
ENDBRANCH   1  45
TORSDOF 16
ENDMDL
MODEL 2
REMARK VINA RESULT: -8.925042971      1.089      1.651
REMARK  16 active torsions:
REMARK  status: ('A' for Active; 'I' for Inactive)
REMARK    1  A    between atoms: C2_5  and  C3_6 
REMARK    2  A    between atoms: C5_11  and  C6_12 
REMARK    3  A    between atoms: C6_12  and  C7_13 
REMARK    4  A    between atoms: C6_12  and  N4_35 
REMARK    5  A    between atoms: C6_12  and  C28_45 
REMARK    6  A    between atoms: C7_13  and  C8_14 
REMARK    7  A    between atoms: C8_14  and  C9_15 
REMARK    8  A    between atoms: C9_15  and  C10_16 
REMARK    9  A    between atoms: N3_18  and  S1_19 
REMARK   10  A    between atoms: S1_19  and  C12_22 
REMARK   11  A    between atoms: C12_22  and  C13_23 
REMARK   12  A    between atoms: N4_35  and  S2_37 
REMARK   13  A    between atoms: S2_37  and  C25_40 
REMARK   14  A    between atoms: C25_40  and  C26_41 
REMARK   15  A    between atoms: C26_41  and  C27_42 
REMARK   16  A    between atoms: C27_42  and  O5_43 
ROOT
HETATM    1  C6  UNL     1      19.614  26.998  10.565  1.00  0.00     0.087 C 
ENDROOT
BRANCH   1   2
HETATM    2  C5  UNL     1      18.892  27.435   9.341  1.00  0.00     0.059 A 
HETATM    3  N1  UNL     1      17.777  28.160   9.230  1.00  0.00    -0.298 N 
HETATM    4  C1  UNL     1      16.910  28.748  10.241  1.00  0.00     0.177 C 
HETATM    5  N2  UNL     1      17.504  28.323   7.915  1.00  0.00    -0.294 N 
HETATM    6  C2  UNL     1      18.414  27.724   7.175  1.00  0.00     0.134 A 
ATOM      7  H2  UNL     1      16.704  28.839   7.547  1.00  0.00     0.187 HD
HETATM    8  C4  UNL     1      19.315  27.145   8.037  1.00  0.00     0.065 A 
BRANCH   6   9
HETATM    9  C3  UNL     1      18.512  27.666   5.677  1.00  0.00     0.434 C 
HETATM   10  F1  UNL     1      19.628  26.873   5.367  1.00  0.00    -0.165 F 
HETATM   11  F2  UNL     1      18.644  28.914   5.139  1.00  0.00    -0.165 F 
HETATM   12  F3  UNL     1      17.394  27.015   5.181  1.00  0.00    -0.165 F 
ENDBRANCH   6   9
ENDBRANCH   1   2
BRANCH   1  13
HETATM   13  C7  UNL     1      19.471  28.016  11.636  1.00  0.00     0.038 C 
BRANCH  13  14
HETATM   14  C8  UNL     1      20.335  29.265  11.527  1.00  0.00     0.004 C 
BRANCH  14  15
HETATM   15  C9  UNL     1      19.563  30.440  12.007  1.00  0.00     0.011 C 
BRANCH  15  16
HETATM   16  C10 UNL     1      20.150  31.458  12.900  1.00  0.00     0.033 C 
HETATM   17  C11 UNL     1      18.991  32.255  13.465  1.00  0.00     0.081 C 
HETATM   18  N3  UNL     1      18.348  31.928  14.641  1.00  0.00    -0.290 N 
HETATM   19  C19 UNL     1      18.864  31.040  15.588  1.00  0.00     0.141 C 
HETATM   20  C20 UNL     1      19.794  30.012  14.940  1.00  0.00     0.031 C 
HETATM   21  C21 UNL     1      20.796  30.791  14.143  1.00  0.00    -0.031 C 
HETATM   22  C22 UNL     1      21.343  31.947  15.019  1.00  0.00     0.010 C 
HETATM   23  C24 UNL     1      22.162  30.280  14.114  1.00  0.00     0.010 C 
HETATM   24  C23 UNL     1      22.721  31.695  14.376  1.00  0.00     0.002 C 
BRANCH  18  25
HETATM   25  S1  UNL     1      17.476  33.266  15.295  1.00  0.00     0.232 S 
HETATM   26  O1  UNL     1      16.092  32.786  15.646  1.00  0.00    -0.205 OA
HETATM   27  O2  UNL     1      17.310  34.270  14.159  1.00  0.00    -0.205 OA
BRANCH  25  28
HETATM   28  C12 UNL     1      18.291  34.064  16.591  1.00  0.00     0.168 C 
BRANCH  28  29
HETATM   29  C13 UNL     1      17.637  34.216  17.903  1.00  0.00     0.001 C 
HETATM   30  C14 UNL     1      18.628  34.957  18.821  1.00  0.00     0.005 C 
HETATM   31  C15 UNL     1      19.043  36.254  18.246  1.00  0.00     0.000 C 
HETATM   32  C16 UNL     1      17.925  37.162  17.813  1.00  0.00     0.000 C 
HETATM   33  C17 UNL     1      16.826  36.431  17.095  1.00  0.00     0.000 C 
HETATM   34  C18 UNL     1      16.446  35.192  17.825  1.00  0.00     0.005 C 
ENDBRANCH  28  29
ENDBRANCH  25  28
ENDBRANCH  18  25
ENDBRANCH  15  16
ENDBRANCH  14  15
ENDBRANCH  13  14
ENDBRANCH   1  13
BRANCH   1  35
HETATM   35  N4  UNL     1      21.046  27.079  10.181  1.00  0.00    -0.303 N 
ATOM     36  H4  UNL     1      21.461  27.969   9.905  1.00  0.00     0.173 HD
BRANCH  35  37
HETATM   37  S2  UNL     1      21.954  25.699  10.211  1.00  0.00     0.227 S 
HETATM   38  O3  UNL     1      21.954  24.990  11.557  1.00  0.00    -0.206 OA
HETATM   39  O4  UNL     1      21.525  24.634   9.239  1.00  0.00    -0.206 OA
BRANCH  37  40
HETATM   40  C25 UNL     1      23.663  26.030   9.870  1.00  0.00     0.165 C 
BRANCH  40  41
HETATM   41  C26 UNL     1      24.174  27.303  10.439  1.00  0.00     0.043 C 
BRANCH  41  42
HETATM   42  C27 UNL     1      24.691  27.257  11.832  1.00  0.00     0.165 C 
BRANCH  42  43
HETATM   43  O5  UNL     1      24.815  25.878  12.168  1.00  0.00    -0.401 OA
ATOM     44  H5  UNL     1      25.110  25.849  13.070  1.00  0.00     0.209 HD
ENDBRANCH  42  43
ENDBRANCH  41  42
ENDBRANCH  40  41
ENDBRANCH  37  40
ENDBRANCH  35  37
ENDBRANCH   1  35
BRANCH   1  45
HETATM   45  C28 UNL     1      19.279  25.628  10.996  1.00  0.00     0.020 A 
HETATM   46  C29 UNL     1      18.014  25.320  11.734  1.00  0.00     0.008 A 
HETATM   47  C30 UNL     1      18.180  24.866  10.331  1.00  0.00     0.008 A 
ENDBRANCH   1  45
TORSDOF 16
ENDMDL
MODEL 3
REMARK VINA RESULT: -8.910381107      3.285      5.222
REMARK  16 active torsions:
REMARK  status: ('A' for Active; 'I' for Inactive)
REMARK    1  A    between atoms: C2_5  and  C3_6 
REMARK    2  A    between atoms: C5_11  and  C6_12 
REMARK    3  A    between atoms: C6_12  and  C7_13 
REMARK    4  A    between atoms: C6_12  and  N4_35 
REMARK    5  A    between atoms: C6_12  and  C28_45 
REMARK    6  A    between atoms: C7_13  and  C8_14 
REMARK    7  A    between atoms: C8_14  and  C9_15 
REMARK    8  A    between atoms: C9_15  and  C10_16 
REMARK    9  A    between atoms: N3_18  and  S1_19 
REMARK   10  A    between atoms: S1_19  and  C12_22 
REMARK   11  A    between atoms: C12_22  and  C13_23 
REMARK   12  A    between atoms: N4_35  and  S2_37 
REMARK   13  A    between atoms: S2_37  and  C25_40 
REMARK   14  A    between atoms: C25_40  and  C26_41 
REMARK   15  A    between atoms: C26_41  and  C27_42 
REMARK   16  A    between atoms: C27_42  and  O5_43 
ROOT
HETATM    1  C6  UNL     1      20.341  29.159  12.952  1.00  0.00     0.087 C 
ENDROOT
BRANCH   1   2
HETATM    2  C5  UNL     1      21.294  28.391  12.108  1.00  0.00     0.059 A 
HETATM    3  N1  UNL     1      21.105  27.833  10.911  1.00  0.00    -0.298 N 
HETATM    4  C1  UNL     1      19.931  27.783  10.051  1.00  0.00     0.177 C 
HETATM    5  N2  UNL     1      22.263  27.252  10.523  1.00  0.00    -0.294 N 
HETATM    6  C2  UNL     1      23.196  27.422  11.437  1.00  0.00     0.134 A 
ATOM      7  H2  UNL     1      22.397  26.751   9.644  1.00  0.00     0.187 HD
HETATM    8  C4  UNL     1      22.626  28.139  12.464  1.00  0.00     0.065 A 
BRANCH   6   9
HETATM    9  C3  UNL     1      24.625  26.963  11.412  1.00  0.00     0.434 C 
HETATM   10  F1  UNL     1      24.609  25.561  11.343  1.00  0.00    -0.165 F 
HETATM   11  F2  UNL     1      25.301  27.383  12.521  1.00  0.00    -0.165 F 
HETATM   12  F3  UNL     1      25.223  27.425  10.250  1.00  0.00    -0.165 F 
ENDBRANCH   6   9
ENDBRANCH   1   2
BRANCH   1  13
HETATM   13  C7  UNL     1      20.985  29.547  14.232  1.00  0.00     0.038 C 
BRANCH  13  14
HETATM   14  C8  UNL     1      20.145  29.425  15.496  1.00  0.00     0.004 C 
BRANCH  14  15
HETATM   15  C9  UNL     1      20.307  30.656  16.313  1.00  0.00     0.011 C 
BRANCH  15  16
HETATM   16  C10 UNL     1      20.561  31.977  15.707  1.00  0.00     0.033 C 
HETATM   17  C11 UNL     1      19.773  32.983  16.521  1.00  0.00     0.081 C 
HETATM   18  N3  UNL     1      20.291  33.644  17.616  1.00  0.00    -0.290 N 
HETATM   19  C19 UNL     1      21.654  33.704  17.915  1.00  0.00     0.141 C 
HETATM   20  C20 UNL     1      22.401  32.489  17.360  1.00  0.00     0.031 C 
HETATM   21  C21 UNL     1      22.040  32.398  15.908  1.00  0.00    -0.031 C 
HETATM   22  C22 UNL     1      22.182  33.804  15.269  1.00  0.00     0.010 C 
HETATM   23  C24 UNL     1      23.090  31.969  14.991  1.00  0.00     0.010 C 
HETATM   24  C23 UNL     1      22.726  33.104  14.009  1.00  0.00     0.002 C 
BRANCH  18  25
HETATM   25  S1  UNL     1      19.398  35.072  17.992  1.00  0.00     0.232 S 
HETATM   26  O1  UNL     1      19.971  36.202  17.178  1.00  0.00    -0.205 OA
HETATM   27  O2  UNL     1      19.696  35.396  19.452  1.00  0.00    -0.205 OA
BRANCH  25  28
HETATM   28  C12 UNL     1      17.688  34.888  17.831  1.00  0.00     0.168 C 
BRANCH  28  29
HETATM   29  C13 UNL     1      17.004  35.322  16.599  1.00  0.00     0.001 C 
HETATM   30  C14 UNL     1      15.706  34.499  16.488  1.00  0.00     0.005 C 
HETATM   31  C15 UNL     1      14.855  34.652  17.687  1.00  0.00     0.000 C 
HETATM   32  C16 UNL     1      14.564  36.067  18.103  1.00  0.00     0.000 C 
HETATM   33  C17 UNL     1      15.770  36.959  18.018  1.00  0.00     0.000 C 
HETATM   34  C18 UNL     1      16.484  36.768  16.727  1.00  0.00     0.005 C 
ENDBRANCH  28  29
ENDBRANCH  25  28
ENDBRANCH  18  25
ENDBRANCH  15  16
ENDBRANCH  14  15
ENDBRANCH  13  14
ENDBRANCH   1  13
BRANCH   1  35
HETATM   35  N4  UNL     1      19.326  28.152  13.350  1.00  0.00    -0.303 N 
ATOM     36  H4  UNL     1      19.608  27.275  13.789  1.00  0.00     0.173 HD
BRANCH  35  37
HETATM   37  S2  UNL     1      17.731  28.478  13.070  1.00  0.00     0.227 S 
HETATM   38  O3  UNL     1      17.053  29.250  14.191  1.00  0.00    -0.206 OA
HETATM   39  O4  UNL     1      17.457  29.304  11.843  1.00  0.00    -0.206 OA
BRANCH  37  40
HETATM   40  C25 UNL     1      16.777  26.992  12.897  1.00  0.00     0.165 C 
BRANCH  40  41
HETATM   41  C26 UNL     1      16.795  26.398  11.537  1.00  0.00     0.043 C 
BRANCH  41  42
HETATM   42  C27 UNL     1      17.584  25.150  11.357  1.00  0.00     0.165 C 
BRANCH  42  43
HETATM   43  O5  UNL     1      18.725  25.274  12.200  1.00  0.00    -0.401 OA
ATOM     44  H5  UNL     1      19.371  24.664  11.865  1.00  0.00     0.209 HD
ENDBRANCH  42  43
ENDBRANCH  41  42
ENDBRANCH  40  41
ENDBRANCH  37  40
ENDBRANCH  35  37
ENDBRANCH   1  35
BRANCH   1  45
HETATM   45  C28 UNL     1      19.693  30.281  12.247  1.00  0.00     0.020 A 
HETATM   46  C29 UNL     1      19.615  31.650  12.847  1.00  0.00     0.008 A 
HETATM   47  C30 UNL     1      20.508  31.403  11.688  1.00  0.00     0.008 A 
ENDBRANCH   1  45
TORSDOF 16
ENDMDL
MODEL 4
REMARK VINA RESULT: -8.850548739      2.279      3.231
REMARK  16 active torsions:
REMARK  status: ('A' for Active; 'I' for Inactive)
REMARK    1  A    between atoms: C2_5  and  C3_6 
REMARK    2  A    between atoms: C5_11  and  C6_12 
REMARK    3  A    between atoms: C6_12  and  C7_13 
REMARK    4  A    between atoms: C6_12  and  N4_35 
REMARK    5  A    between atoms: C6_12  and  C28_45 
REMARK    6  A    between atoms: C7_13  and  C8_14 
REMARK    7  A    between atoms: C8_14  and  C9_15 
REMARK    8  A    between atoms: C9_15  and  C10_16 
REMARK    9  A    between atoms: N3_18  and  S1_19 
REMARK   10  A    between atoms: S1_19  and  C12_22 
REMARK   11  A    between atoms: C12_22  and  C13_23 
REMARK   12  A    between atoms: N4_35  and  S2_37 
REMARK   13  A    between atoms: S2_37  and  C25_40 
REMARK   14  A    between atoms: C25_40  and  C26_41 
REMARK   15  A    between atoms: C26_41  and  C27_42 
REMARK   16  A    between atoms: C27_42  and  O5_43 
ROOT
HETATM    1  C6  UNL     1      19.805  26.950  10.328  1.00  0.00     0.087 C 
ENDROOT
BRANCH   1   2
HETATM    2  C5  UNL     1      19.046  27.378   9.124  1.00  0.00     0.059 A 
HETATM    3  N1  UNL     1      17.936  28.114   9.041  1.00  0.00    -0.298 N 
HETATM    4  C1  UNL     1      17.111  28.725  10.074  1.00  0.00     0.177 C 
HETATM    5  N2  UNL     1      17.619  28.263   7.734  1.00  0.00    -0.294 N 
HETATM    6  C2  UNL     1      18.496  27.644   6.972  1.00  0.00     0.134 A 
ATOM      7  H2  UNL     1      16.813  28.782   7.387  1.00  0.00     0.187 HD
HETATM    8  C4  UNL     1      19.421  27.066   7.810  1.00  0.00     0.065 A 
BRANCH   6   9
HETATM    9  C3  UNL     1      18.543  27.565   5.473  1.00  0.00     0.434 C 
HETATM   10  F1  UNL     1      18.748  28.869   4.996  1.00  0.00    -0.165 F 
HETATM   11  F2  UNL     1      17.387  27.043   4.967  1.00  0.00    -0.165 F 
HETATM   12  F3  UNL     1      19.645  26.812   5.099  1.00  0.00    -0.165 F 
ENDBRANCH   6   9
ENDBRANCH   1   2
BRANCH   1  13
HETATM   13  C7  UNL     1      19.885  28.062  11.308  1.00  0.00     0.038 C 
BRANCH  13  14
HETATM   14  C8  UNL     1      21.184  28.855  11.353  1.00  0.00     0.004 C 
BRANCH  14  15
HETATM   15  C9  UNL     1      20.960  30.122  12.096  1.00  0.00     0.011 C 
BRANCH  15  16
HETATM   16  C10 UNL     1      20.469  30.143  13.489  1.00  0.00     0.033 C 
HETATM   17  C11 UNL     1      21.429  31.017  14.270  1.00  0.00     0.081 C 
HETATM   18  N3  UNL     1      21.254  32.376  14.433  1.00  0.00    -0.290 N 
HETATM   19  C19 UNL     1      20.054  33.043  14.176  1.00  0.00     0.141 C 
HETATM   20  C20 UNL     1      19.225  32.309  13.119  1.00  0.00     0.031 C 
HETATM   21  C21 UNL     1      19.112  30.888  13.581  1.00  0.00    -0.031 C 
HETATM   22  C22 UNL     1      18.714  30.879  15.080  1.00  0.00     0.010 C 
HETATM   23  C24 UNL     1      17.846  30.208  13.329  1.00  0.00     0.010 C 
HETATM   24  C23 UNL     1      17.831  29.655  14.771  1.00  0.00     0.002 C 
BRANCH  18  25
HETATM   25  S1  UNL     1      22.156  32.989  15.770  1.00  0.00     0.232 S 
HETATM   26  O1  UNL     1      23.604  33.047  15.363  1.00  0.00    -0.205 OA
HETATM   27  O2  UNL     1      22.059  31.940  16.874  1.00  0.00    -0.205 OA
BRANCH  25  28
HETATM   28  C12 UNL     1      21.544  34.476  16.401  1.00  0.00     0.168 C 
BRANCH  28  29
HETATM   29  C13 UNL     1      21.952  34.943  17.738  1.00  0.00     0.001 C 
HETATM   30  C14 UNL     1      22.376  36.417  17.594  1.00  0.00     0.005 C 
HETATM   31  C15 UNL     1      21.297  37.244  17.015  1.00  0.00     0.000 C 
HETATM   32  C16 UNL     1      19.957  37.132  17.687  1.00  0.00     0.000 C 
HETATM   33  C17 UNL     1      19.601  35.715  18.041  1.00  0.00     0.000 C 
HETATM   34  C18 UNL     1      20.745  35.025  18.695  1.00  0.00     0.005 C 
ENDBRANCH  28  29
ENDBRANCH  25  28
ENDBRANCH  18  25
ENDBRANCH  15  16
ENDBRANCH  14  15
ENDBRANCH  13  14
ENDBRANCH   1  13
BRANCH   1  35
HETATM   35  N4  UNL     1      21.199  26.803   9.837  1.00  0.00    -0.303 N 
ATOM     36  H4  UNL     1      21.658  27.565   9.339  1.00  0.00     0.173 HD
BRANCH  35  37
HETATM   37  S2  UNL     1      21.991  25.379  10.113  1.00  0.00     0.227 S 
HETATM   38  O3  UNL     1      21.880  24.880  11.546  1.00  0.00    -0.206 OA
HETATM   39  O4  UNL     1      21.518  24.216   9.285  1.00  0.00    -0.206 OA
BRANCH  37  40
HETATM   40  C25 UNL     1      23.734  25.530   9.816  1.00  0.00     0.165 C 
BRANCH  40  41
HETATM   41  C26 UNL     1      24.292  26.882  10.073  1.00  0.00     0.043 C 
BRANCH  41  42
HETATM   42  C27 UNL     1      24.900  27.117  11.409  1.00  0.00     0.165 C 
BRANCH  42  43
HETATM   43  O5  UNL     1      24.775  25.892  12.126  1.00  0.00    -0.401 OA
ATOM     44  H5  UNL     1      24.582  26.128  13.025  1.00  0.00     0.209 HD
ENDBRANCH  42  43
ENDBRANCH  41  42
ENDBRANCH  40  41
ENDBRANCH  37  40
ENDBRANCH  35  37
ENDBRANCH   1  35
BRANCH   1  45
HETATM   45  C28 UNL     1      19.334  25.678  10.908  1.00  0.00     0.020 A 
HETATM   46  C29 UNL     1      18.090  25.602  11.737  1.00  0.00     0.008 A 
HETATM   47  C30 UNL     1      18.109  25.006  10.379  1.00  0.00     0.008 A 
ENDBRANCH   1  45
TORSDOF 16
ENDMDL
MODEL 5
REMARK VINA RESULT: -8.830703760      1.345      1.946
REMARK  16 active torsions:
REMARK  status: ('A' for Active; 'I' for Inactive)
REMARK    1  A    between atoms: C2_5  and  C3_6 
REMARK    2  A    between atoms: C5_11  and  C6_12 
REMARK    3  A    between atoms: C6_12  and  C7_13 
REMARK    4  A    between atoms: C6_12  and  N4_35 
REMARK    5  A    between atoms: C6_12  and  C28_45 
REMARK    6  A    between atoms: C7_13  and  C8_14 
REMARK    7  A    between atoms: C8_14  and  C9_15 
REMARK    8  A    between atoms: C9_15  and  C10_16 
REMARK    9  A    between atoms: N3_18  and  S1_19 
REMARK   10  A    between atoms: S1_19  and  C12_22 
REMARK   11  A    between atoms: C12_22  and  C13_23 
REMARK   12  A    between atoms: N4_35  and  S2_37 
REMARK   13  A    between atoms: S2_37  and  C25_40 
REMARK   14  A    between atoms: C25_40  and  C26_41 
REMARK   15  A    between atoms: C26_41  and  C27_42 
REMARK   16  A    between atoms: C27_42  and  O5_43 
ROOT
HETATM    1  C6  UNL     1      18.742  27.616  11.168  1.00  0.00     0.087 C 
ENDROOT
BRANCH   1   2
HETATM    2  C5  UNL     1      18.454  27.024   9.834  1.00  0.00     0.059 A 
HETATM    3  N1  UNL     1      18.107  25.775   9.520  1.00  0.00    -0.298 N 
HETATM    4  C1  UNL     1      17.904  24.597  10.353  1.00  0.00     0.177 C 
HETATM    5  N2  UNL     1      17.930  25.705   8.181  1.00  0.00    -0.294 N 
HETATM    6  C2  UNL     1      18.153  26.876   7.623  1.00  0.00     0.134 A 
ATOM      7  H2  UNL     1      17.662  24.861   7.673  1.00  0.00     0.187 HD
HETATM    8  C4  UNL     1      18.490  27.746   8.634  1.00  0.00     0.065 A 
BRANCH   6   9
HETATM    9  C3  UNL     1      18.055  27.256   6.173  1.00  0.00     0.434 C 
HETATM   10  F1  UNL     1      19.335  27.104   5.618  1.00  0.00    -0.165 F 
HETATM   11  F2  UNL     1      17.614  28.539   6.024  1.00  0.00    -0.165 F 
HETATM   12  F3  UNL     1      17.219  26.356   5.531  1.00  0.00    -0.165 F 
ENDBRANCH   6   9
ENDBRANCH   1   2
BRANCH   1  13
HETATM   13  C7  UNL     1      19.706  28.737  11.035  1.00  0.00     0.038 C 
BRANCH  13  14
HETATM   14  C8  UNL     1      19.461  29.969  11.896  1.00  0.00     0.004 C 
BRANCH  14  15
HETATM   15  C9  UNL     1      20.763  30.604  12.226  1.00  0.00     0.011 C 
BRANCH  15  16
HETATM   16  C10 UNL     1      20.869  31.753  13.146  1.00  0.00     0.033 C 
HETATM   17  C11 UNL     1      19.467  32.034  13.647  1.00  0.00     0.081 C 
HETATM   18  N3  UNL     1      18.941  31.464  14.789  1.00  0.00    -0.290 N 
HETATM   19  C19 UNL     1      19.711  30.825  15.764  1.00  0.00     0.141 C 
HETATM   20  C20 UNL     1      20.996  30.244  15.168  1.00  0.00     0.031 C 
HETATM   21  C21 UNL     1      21.659  31.363  14.422  1.00  0.00    -0.031 C 
HETATM   22  C22 UNL     1      21.677  32.624  15.324  1.00  0.00     0.010 C 
HETATM   23  C24 UNL     1      23.116  31.415  14.467  1.00  0.00     0.010 C 
HETATM   24  C23 UNL     1      23.075  32.932  14.755  1.00  0.00     0.002 C 
BRANCH  18  25
HETATM   25  S1  UNL     1      17.591  32.352  15.392  1.00  0.00     0.232 S 
HETATM   26  O1  UNL     1      16.612  31.366  15.973  1.00  0.00    -0.205 OA
HETATM   27  O2  UNL     1      16.908  32.978  14.180  1.00  0.00    -0.205 OA
BRANCH  25  28
HETATM   28  C12 UNL     1      18.022  33.630  16.473  1.00  0.00     0.168 C 
BRANCH  28  29
HETATM   29  C13 UNL     1      17.255  33.850  17.712  1.00  0.00     0.001 C 
HETATM   30  C14 UNL     1      17.964  34.974  18.490  1.00  0.00     0.005 C 
HETATM   31  C15 UNL     1      18.092  36.205  17.681  1.00  0.00     0.000 C 
HETATM   32  C16 UNL     1      16.822  36.704  17.049  1.00  0.00     0.000 C 
HETATM   33  C17 UNL     1      15.991  35.598  16.462  1.00  0.00     0.000 C 
HETATM   34  C18 UNL     1      15.871  34.460  17.412  1.00  0.00     0.005 C 
ENDBRANCH  28  29
ENDBRANCH  25  28
ENDBRANCH  18  25
ENDBRANCH  15  16
ENDBRANCH  14  15
ENDBRANCH  13  14
ENDBRANCH   1  13
BRANCH   1  35
HETATM   35  N4  UNL     1      19.515  26.558  11.866  1.00  0.00    -0.303 N 
ATOM     36  H4  UNL     1      19.094  26.021  12.625  1.00  0.00     0.173 HD
BRANCH  35  37
HETATM   37  S2  UNL     1      21.071  26.269  11.392  1.00  0.00     0.227 S 
HETATM   38  O3  UNL     1      21.524  24.833  11.608  1.00  0.00    -0.206 OA
HETATM   39  O4  UNL     1      21.351  26.524   9.936  1.00  0.00    -0.206 OA
BRANCH  37  40
HETATM   40  C25 UNL     1      22.230  27.255  12.305  1.00  0.00     0.165 C 
BRANCH  40  41
HETATM   41  C26 UNL     1      23.463  27.613  11.559  1.00  0.00     0.043 C 
BRANCH  41  42
HETATM   42  C27 UNL     1      24.705  26.882  11.923  1.00  0.00     0.165 C 
BRANCH  42  43
HETATM   43  O5  UNL     1      24.461  25.509  11.633  1.00  0.00    -0.401 OA
ATOM     44  H5  UNL     1      25.268  25.166  11.269  1.00  0.00     0.209 HD
ENDBRANCH  42  43
ENDBRANCH  41  42
ENDBRANCH  40  41
ENDBRANCH  37  40
ENDBRANCH  35  37
ENDBRANCH   1  35
BRANCH   1  45
HETATM   45  C28 UNL     1      17.534  27.957  11.941  1.00  0.00     0.020 A 
HETATM   46  C29 UNL     1      16.175  27.978  11.313  1.00  0.00     0.008 A 
HETATM   47  C30 UNL     1      16.524  26.910  12.280  1.00  0.00     0.008 A 
ENDBRANCH   1  45
TORSDOF 16
ENDMDL
