MODEL 1
REMARK VINA RESULT: -8.795244040      0.000      0.000
REMARK  16 active torsions:
REMARK  status: ('A' for Active; 'I' for Inactive)
REMARK    1  A    between atoms: C2_2  and  O1_3 
REMARK    2  A    between atoms: C2_2  and  N1_5 
REMARK    3  A    between atoms: C6_9  and  C7_10 
REMARK       I    between atoms: C7_10  and  N2_12 
REMARK    4  A    between atoms: N2_12  and  C8_14 
REMARK    5  A    between atoms: C10_16  and  O3_17 
REMARK    6  A    between atoms: O3_17  and  C11_18 
REMARK    7  A    between atoms: C11_18  and  C12_19 
REMARK    8  A    between atoms: C12_19  and  O4_20 
REMARK    9  A    between atoms: O4_20  and  C13_21 
REMARK   10  A    between atoms: C13_21  and  C14_22 
REMARK   11  A    between atoms: C14_22  and  O5_23 
REMARK   12  A    between atoms: O5_23  and  C15_24 
REMARK   13  A    between atoms: C15_24  and  C16_25 
REMARK   14  A    between atoms: C16_25  and  N3_26 
REMARK   15  A    between atoms: C23_34  and  N4_35 
REMARK   16  A    between atoms: N4_35  and  C24_37 
ROOT
HETATM    1  C8  UNL     1      20.458  29.043  12.445  1.00  0.00     0.132 C 
HETATM    2  C9  UNL     1      21.240  30.269  12.919  1.00  0.00     0.063 C 
HETATM    3  C10 UNL     1      20.578  31.207  13.817  1.00  0.00     0.124 C 
HETATM    4  C21 UNL     1      19.128  30.899  14.006  1.00  0.00     0.037 C 
HETATM    5  C22 UNL     1      18.598  30.708  12.571  1.00  0.00     0.057 C 
HETATM    6  C23 UNL     1      19.060  29.283  12.174  1.00  0.00     0.006 C 
ENDROOT
BRANCH   1   7
HETATM    7  N2  UNL     1      21.286  28.529  11.318  1.00  0.00    -0.351 N 
HETATM    8  C7  UNL     1      22.086  27.343  11.561  1.00  0.00     0.228 C 
HETATM    9  O2  UNL     1      21.998  26.858  12.717  1.00  0.00    -0.273 OA
ATOM     10  H2  UNL     1      21.291  28.993  10.410  1.00  0.00     0.163 HD
BRANCH   8  11
HETATM   11  C6  UNL     1      22.902  26.781  10.529  1.00  0.00     0.129 C 
HETATM   12  C5  UNL     1      24.299  26.410  10.970  1.00  0.00     0.022 C 
HETATM   13  C4  UNL     1      25.239  26.550   9.748  1.00  0.00     0.021 C 
HETATM   14  C3  UNL     1      24.427  26.466   8.458  1.00  0.00     0.131 C 
HETATM   15  N1  UNL     1      23.408  25.390   8.627  1.00  0.00    -0.334 N 
HETATM   16  C28 UNL     1      22.425  25.692   9.643  1.00  0.00     0.040 C 
HETATM   17  C29 UNL     1      21.101  25.193   9.604  1.00  0.00     0.032 A 
HETATM   18  C30 UNL     1      20.460  24.584  10.712  1.00  0.00     0.059 A 
HETATM   19  C34 UNL     1      20.378  25.078   8.438  1.00  0.00     0.167 A 
HETATM   20  C31 UNL     1      19.239  23.954  10.579  1.00  0.00     0.120 A 
HETATM   21  F1  UNL     1      18.639  23.374  11.677  1.00  0.00    -0.206 F 
HETATM   22  C32 UNL     1      18.582  23.877   9.398  1.00  0.00     0.087 A 
HETATM   23  C33 UNL     1      19.177  24.459   8.299  1.00  0.00     0.158 A 
HETATM   24  F2  UNL     1      18.553  24.398   7.081  1.00  0.00    -0.203 F 
HETATM   25  F3  UNL     1      20.854  25.717   7.327  1.00  0.00    -0.202 F 
BRANCH  15  26
HETATM   26  C2  UNL     1      23.576  24.279   7.846  1.00  0.00     0.113 C 
HETATM   27  C1  UNL     1      23.518  24.070   6.429  1.00  0.00     0.097 C 
BRANCH  26  28
HETATM   28  O1  UNL     1      23.838  23.167   8.520  1.00  0.00    -0.349 OA
ATOM     29  H1  UNL     1      24.558  23.268   9.132  1.00  0.00     0.219 HD
ENDBRANCH  26  28
ENDBRANCH  15  26
ENDBRANCH   8  11
ENDBRANCH   1   7
BRANCH   6  30
HETATM   30  N4  UNL     1      18.397  28.888  11.040  1.00  0.00    -0.387 N 
ATOM     31  H4  UNL     1      18.761  29.285  10.174  1.00  0.00     0.160 HD
BRANCH  30  32
HETATM   32  C24 UNL     1      17.331  28.050  10.879  1.00  0.00     0.019 C 
HETATM   33  C25 UNL     1      17.179  26.882  11.781  1.00  0.00     0.037 C 
HETATM   34  C26 UNL     1      17.439  27.446   9.430  1.00  0.00     0.037 C 
HETATM   35  C27 UNL     1      15.966  28.744  10.823  1.00  0.00     0.037 C 
ENDBRANCH  30  32
ENDBRANCH   6  30
BRANCH   3  36
HETATM   36  O3  UNL     1      21.278  31.409  15.015  1.00  0.00    -0.384 OA
BRANCH  36  37
HETATM   37  C11 UNL     1      22.585  31.720  14.808  1.00  0.00     0.194 C 
BRANCH  37  38
HETATM   38  C12 UNL     1      23.124  32.903  15.584  1.00  0.00     0.193 C 
BRANCH  38  39
HETATM   39  O4  UNL     1      22.645  32.777  16.867  1.00  0.00    -0.387 OA
BRANCH  39  40
HETATM   40  C13 UNL     1      22.015  33.888  17.403  1.00  0.00     0.193 C 
BRANCH  40  41
HETATM   41  C14 UNL     1      21.372  34.802  16.426  1.00  0.00     0.193 C 
BRANCH  41  42
HETATM   42  O5  UNL     1      20.192  34.514  15.942  1.00  0.00    -0.387 OA
BRANCH  42  43
HETATM   43  C15 UNL     1      19.233  33.759  16.394  1.00  0.00     0.198 C 
BRANCH  43  44
HETATM   44  C16 UNL     1      17.798  33.986  15.966  1.00  0.00     0.298 C 
BRANCH  44  45
HETATM   45  N3  UNL     1      16.924  33.970  17.169  1.00  0.00     0.094 N 
HETATM   46  C17 UNL     1      17.514  34.710  18.245  1.00  0.00     0.298 C 
HETATM   47  C18 UNL     1      16.546  35.814  18.642  1.00  0.00     0.198 C 
HETATM   48  O6  UNL     1      15.350  35.222  18.990  1.00  0.00    -0.388 OA
HETATM   49  C19 UNL     1      14.699  34.645  17.925  1.00  0.00     0.198 C 
HETATM   50  C20 UNL     1      15.626  34.411  16.755  1.00  0.00     0.298 C 
ENDBRANCH  44  45
ENDBRANCH  43  44
ENDBRANCH  42  43
ENDBRANCH  41  42
ENDBRANCH  40  41
ENDBRANCH  39  40
ENDBRANCH  38  39
ENDBRANCH  37  38
ENDBRANCH  36  37
ENDBRANCH   3  36
TORSDOF 16
ENDMDL
MODEL 2
REMARK VINA RESULT: -8.634534248      1.409      1.852
REMARK  16 active torsions:
REMARK  status: ('A' for Active; 'I' for Inactive)
REMARK    1  A    between atoms: C2_2  and  O1_3 
REMARK    2  A    between atoms: C2_2  and  N1_5 
REMARK    3  A    between atoms: C6_9  and  C7_10 
REMARK       I    between atoms: C7_10  and  N2_12 
REMARK    4  A    between atoms: N2_12  and  C8_14 
REMARK    5  A    between atoms: C10_16  and  O3_17 
REMARK    6  A    between atoms: O3_17  and  C11_18 
REMARK    7  A    between atoms: C11_18  and  C12_19 
REMARK    8  A    between atoms: C12_19  and  O4_20 
REMARK    9  A    between atoms: O4_20  and  C13_21 
REMARK   10  A    between atoms: C13_21  and  C14_22 
REMARK   11  A    between atoms: C14_22  and  O5_23 
REMARK   12  A    between atoms: O5_23  and  C15_24 
REMARK   13  A    between atoms: C15_24  and  C16_25 
REMARK   14  A    between atoms: C16_25  and  N3_26 
REMARK   15  A    between atoms: C23_34  and  N4_35 
REMARK   16  A    between atoms: N4_35  and  C24_37 
ROOT
HETATM    1  C8  UNL     1      20.447  28.431  11.714  1.00  0.00     0.132 C 
HETATM    2  C9  UNL     1      21.529  29.488  11.939  1.00  0.00     0.063 C 
HETATM    3  C10 UNL     1      21.286  30.526  12.934  1.00  0.00     0.124 C 
HETATM    4  C21 UNL     1      19.894  30.490  13.477  1.00  0.00     0.037 C 
HETATM    5  C22 UNL     1      19.006  30.410  12.219  1.00  0.00     0.057 C 
HETATM    6  C23 UNL     1      19.092  28.927  11.777  1.00  0.00     0.006 C 
ENDROOT
BRANCH   1   7
HETATM    7  N2  UNL     1      20.869  27.782  10.441  1.00  0.00    -0.351 N 
HETATM    8  C7  UNL     1      21.681  26.583  10.538  1.00  0.00     0.228 C 
HETATM    9  O2  UNL     1      21.952  26.205  11.705  1.00  0.00    -0.273 OA
ATOM     10  H2  UNL     1      20.598  28.164   9.535  1.00  0.00     0.163 HD
BRANCH   8  11
HETATM   11  C6  UNL     1      22.121  25.895   9.364  1.00  0.00     0.129 C 
HETATM   12  C5  UNL     1      23.549  25.405   9.425  1.00  0.00     0.022 C 
HETATM   13  C4  UNL     1      24.114  25.392   7.983  1.00  0.00     0.021 C 
HETATM   14  C3  UNL     1      22.966  25.332   6.979  1.00  0.00     0.131 C 
HETATM   15  N1  UNL     1      21.949  24.375   7.502  1.00  0.00    -0.334 N 
HETATM   16  C28 UNL     1      21.323  24.821   8.726  1.00  0.00     0.040 C 
HETATM   17  C29 UNL     1      20.005  24.458   9.092  1.00  0.00     0.032 A 
HETATM   18  C30 UNL     1      19.654  23.968  10.376  1.00  0.00     0.059 A 
HETATM   19  C34 UNL     1      18.974  24.364   8.184  1.00  0.00     0.167 A 
HETATM   20  C31 UNL     1      18.397  23.460  10.633  1.00  0.00     0.120 A 
HETATM   21  F1  UNL     1      18.086  22.995  11.893  1.00  0.00    -0.206 F 
HETATM   22  C32 UNL     1      17.429  23.396   9.688  1.00  0.00     0.087 A 
HETATM   23  C33 UNL     1      17.735  23.864   8.429  1.00  0.00     0.158 A 
HETATM   24  F2  UNL     1      16.789  23.811   7.440  1.00  0.00    -0.203 F 
HETATM   25  F3  UNL     1      19.168  24.899   6.941  1.00  0.00    -0.202 F 
BRANCH  15  26
HETATM   26  C2  UNL     1      21.794  23.218   6.787  1.00  0.00     0.113 C 
HETATM   27  C1  UNL     1      21.360  22.954   5.447  1.00  0.00     0.097 C 
BRANCH  26  28
HETATM   28  O1  UNL     1      22.094  22.112   7.457  1.00  0.00    -0.349 OA
ATOM     29  H1  UNL     1      21.377  21.804   7.999  1.00  0.00     0.219 HD
ENDBRANCH  26  28
ENDBRANCH  15  26
ENDBRANCH   8  11
ENDBRANCH   1   7
BRANCH   6  30
HETATM   30  N4  UNL     1      18.114  28.669  10.852  1.00  0.00    -0.387 N 
ATOM     31  H4  UNL     1      18.195  29.203   9.986  1.00  0.00     0.160 HD
BRANCH  30  32
HETATM   32  C24 UNL     1      17.048  27.817  10.897  1.00  0.00     0.019 C 
HETATM   33  C25 UNL     1      17.021  26.737  11.915  1.00  0.00     0.037 C 
HETATM   34  C26 UNL     1      16.992  27.080   9.507  1.00  0.00     0.037 C 
HETATM   35  C27 UNL     1      15.676  28.498  10.941  1.00  0.00     0.037 C 
ENDBRANCH  30  32
ENDBRANCH   6  30
BRANCH   3  36
HETATM   36  O3  UNL     1      22.281  30.587  13.920  1.00  0.00    -0.384 OA
BRANCH  36  37
HETATM   37  C11 UNL     1      22.011  31.514  14.876  1.00  0.00     0.194 C 
BRANCH  37  38
HETATM   38  C12 UNL     1      22.584  32.896  14.652  1.00  0.00     0.193 C 
BRANCH  38  39
HETATM   39  O4  UNL     1      23.083  33.312  15.864  1.00  0.00    -0.387 OA
BRANCH  39  40
HETATM   40  C13 UNL     1      22.367  32.936  16.988  1.00  0.00     0.193 C 
BRANCH  40  41
HETATM   41  C14 UNL     1      21.850  34.046  17.827  1.00  0.00     0.193 C 
BRANCH  41  42
HETATM   42  O5  UNL     1      20.818  34.742  17.424  1.00  0.00    -0.387 OA
BRANCH  42  43
HETATM   43  C15 UNL     1      19.759  34.405  16.748  1.00  0.00     0.198 C 
BRANCH  43  44
HETATM   44  C16 UNL     1      18.372  34.742  17.255  1.00  0.00     0.298 C 
BRANCH  44  45
HETATM   45  N3  UNL     1      17.538  33.512  17.243  1.00  0.00     0.094 N 
HETATM   46  C17 UNL     1      16.155  33.829  17.044  1.00  0.00     0.298 C 
HETATM   47  C18 UNL     1      15.681  33.101  15.795  1.00  0.00     0.198 C 
HETATM   48  O6  UNL     1      15.901  31.753  15.982  1.00  0.00    -0.388 OA
HETATM   49  C19 UNL     1      17.235  31.419  16.015  1.00  0.00     0.198 C 
HETATM   50  C20 UNL     1      18.112  32.621  16.280  1.00  0.00     0.298 C 
ENDBRANCH  44  45
ENDBRANCH  43  44
ENDBRANCH  42  43
ENDBRANCH  41  42
ENDBRANCH  40  41
ENDBRANCH  39  40
ENDBRANCH  38  39
ENDBRANCH  37  38
ENDBRANCH  36  37
ENDBRANCH   3  36
TORSDOF 16
ENDMDL
MODEL 3
REMARK VINA RESULT: -8.591348683      0.973      1.301
REMARK  16 active torsions:
REMARK  status: ('A' for Active; 'I' for Inactive)
REMARK    1  A    between atoms: C2_2  and  O1_3 
REMARK    2  A    between atoms: C2_2  and  N1_5 
REMARK    3  A    between atoms: C6_9  and  C7_10 
REMARK       I    between atoms: C7_10  and  N2_12 
REMARK    4  A    between atoms: N2_12  and  C8_14 
REMARK    5  A    between atoms: C10_16  and  O3_17 
REMARK    6  A    between atoms: O3_17  and  C11_18 
REMARK    7  A    between atoms: C11_18  and  C12_19 
REMARK    8  A    between atoms: C12_19  and  O4_20 
REMARK    9  A    between atoms: O4_20  and  C13_21 
REMARK   10  A    between atoms: C13_21  and  C14_22 
REMARK   11  A    between atoms: C14_22  and  O5_23 
REMARK   12  A    between atoms: O5_23  and  C15_24 
REMARK   13  A    between atoms: C15_24  and  C16_25 
REMARK   14  A    between atoms: C16_25  and  N3_26 
REMARK   15  A    between atoms: C23_34  and  N4_35 
REMARK   16  A    between atoms: N4_35  and  C24_37 
ROOT
HETATM    1  C8  UNL     1      20.542  28.682  11.797  1.00  0.00     0.132 C 
HETATM    2  C9  UNL     1      21.565  29.796  12.025  1.00  0.00     0.063 C 
HETATM    3  C10 UNL     1      21.252  30.833  13.000  1.00  0.00     0.124 C 
HETATM    4  C21 UNL     1      19.854  30.734  13.520  1.00  0.00     0.037 C 
HETATM    5  C22 UNL     1      18.994  30.592  12.248  1.00  0.00     0.057 C 
HETATM    6  C23 UNL     1      19.163  29.110  11.830  1.00  0.00     0.006 C 
ENDROOT
BRANCH   1   7
HETATM    7  N2  UNL     1      21.019  28.038  10.541  1.00  0.00    -0.351 N 
HETATM    8  C7  UNL     1      21.680  26.751  10.658  1.00  0.00     0.228 C 
HETATM    9  O2  UNL     1      21.786  26.301  11.826  1.00  0.00    -0.273 OA
ATOM     10  H2  UNL     1      20.886  28.483   9.633  1.00  0.00     0.163 HD
BRANCH   8  11
HETATM   11  C6  UNL     1      22.161  26.063   9.500  1.00  0.00     0.129 C 
HETATM   12  C5  UNL     1      23.595  25.599   9.600  1.00  0.00     0.022 C 
HETATM   13  C4  UNL     1      24.195  25.585   8.172  1.00  0.00     0.021 C 
HETATM   14  C3  UNL     1      23.072  25.497   7.141  1.00  0.00     0.131 C 
HETATM   15  N1  UNL     1      22.060  24.525   7.647  1.00  0.00    -0.334 N 
HETATM   16  C28 UNL     1      21.397  24.969   8.852  1.00  0.00     0.040 C 
HETATM   17  C29 UNL     1      20.077  24.585   9.189  1.00  0.00     0.032 A 
HETATM   18  C30 UNL     1      19.705  24.099  10.468  1.00  0.00     0.059 A 
HETATM   19  C34 UNL     1      19.071  24.466   8.258  1.00  0.00     0.167 A 
HETATM   20  C31 UNL     1      18.451  23.570  10.699  1.00  0.00     0.120 A 
HETATM   21  F1  UNL     1      18.118  23.109  11.955  1.00  0.00    -0.206 F 
HETATM   22  C32 UNL     1      17.507  23.482   9.732  1.00  0.00     0.087 A 
HETATM   23  C33 UNL     1      17.836  23.946   8.477  1.00  0.00     0.158 A 
HETATM   24  F2  UNL     1      16.914  23.868   7.466  1.00  0.00    -0.203 F 
HETATM   25  F3  UNL     1      19.285  24.996   7.015  1.00  0.00    -0.202 F 
BRANCH  15  26
HETATM   26  C2  UNL     1      21.944  23.360   6.938  1.00  0.00     0.113 C 
HETATM   27  C1  UNL     1      21.408  23.061   5.643  1.00  0.00     0.097 C 
BRANCH  26  28
HETATM   28  O1  UNL     1      22.407  22.286   7.564  1.00  0.00    -0.349 OA
ATOM     29  H1  UNL     1      22.608  22.451   8.478  1.00  0.00     0.219 HD
ENDBRANCH  26  28
ENDBRANCH  15  26
ENDBRANCH   8  11
ENDBRANCH   1   7
BRANCH   6  30
HETATM   30  N4  UNL     1      18.215  28.790  10.891  1.00  0.00    -0.387 N 
ATOM     31  H4  UNL     1      18.353  29.229   9.980  1.00  0.00     0.160 HD
BRANCH  30  32
HETATM   32  C24 UNL     1      17.118  27.981  10.974  1.00  0.00     0.019 C 
HETATM   33  C25 UNL     1      16.807  27.057   9.856  1.00  0.00     0.037 C 
HETATM   34  C26 UNL     1      15.864  28.924  11.096  1.00  0.00     0.037 C 
HETATM   35  C27 UNL     1      17.015  27.162  12.266  1.00  0.00     0.037 C 
ENDBRANCH  30  32
ENDBRANCH   6  30
BRANCH   3  36
HETATM   36  O3  UNL     1      22.225  30.958  14.002  1.00  0.00    -0.384 OA
BRANCH  36  37
HETATM   37  C11 UNL     1      22.744  32.212  14.070  1.00  0.00     0.194 C 
BRANCH  37  38
HETATM   38  C12 UNL     1      23.308  32.633  15.411  1.00  0.00     0.193 C 
BRANCH  38  39
HETATM   39  O4  UNL     1      22.375  32.274  16.355  1.00  0.00    -0.387 OA
BRANCH  39  40
HETATM   40  C13 UNL     1      22.054  33.232  17.301  1.00  0.00     0.193 C 
BRANCH  40  41
HETATM   41  C14 UNL     1      21.372  34.447  16.787  1.00  0.00     0.193 C 
BRANCH  41  42
HETATM   42  O5  UNL     1      20.346  34.329  15.986  1.00  0.00    -0.387 OA
BRANCH  42  43
HETATM   43  C15 UNL     1      19.323  33.525  16.003  1.00  0.00     0.198 C 
BRANCH  43  44
HETATM   44  C16 UNL     1      17.919  34.047  15.776  1.00  0.00     0.298 C 
BRANCH  44  45
HETATM   45  N3  UNL     1      17.135  33.891  17.029  1.00  0.00     0.094 N 
HETATM   46  C17 UNL     1      17.692  34.682  18.087  1.00  0.00     0.298 C 
HETATM   47  C18 UNL     1      16.615  35.639  18.575  1.00  0.00     0.198 C 
HETATM   48  O6  UNL     1      15.532  34.887  18.979  1.00  0.00    -0.388 OA
HETATM   49  C19 UNL     1      14.894  34.250  17.940  1.00  0.00     0.198 C 
HETATM   50  C20 UNL     1      15.766  34.164  16.709  1.00  0.00     0.298 C 
ENDBRANCH  44  45
ENDBRANCH  43  44
ENDBRANCH  42  43
ENDBRANCH  41  42
ENDBRANCH  40  41
ENDBRANCH  39  40
ENDBRANCH  38  39
ENDBRANCH  37  38
ENDBRANCH  36  37
ENDBRANCH   3  36
TORSDOF 16
ENDMDL
MODEL 4
REMARK VINA RESULT: -8.522619009      1.049      1.378
REMARK  16 active torsions:
REMARK  status: ('A' for Active; 'I' for Inactive)
REMARK    1  A    between atoms: C2_2  and  O1_3 
REMARK    2  A    between atoms: C2_2  and  N1_5 
REMARK    3  A    between atoms: C6_9  and  C7_10 
REMARK       I    between atoms: C7_10  and  N2_12 
REMARK    4  A    between atoms: N2_12  and  C8_14 
REMARK    5  A    between atoms: C10_16  and  O3_17 
REMARK    6  A    between atoms: O3_17  and  C11_18 
REMARK    7  A    between atoms: C11_18  and  C12_19 
REMARK    8  A    between atoms: C12_19  and  O4_20 
REMARK    9  A    between atoms: O4_20  and  C13_21 
REMARK   10  A    between atoms: C13_21  and  C14_22 
REMARK   11  A    between atoms: C14_22  and  O5_23 
REMARK   12  A    between atoms: O5_23  and  C15_24 
REMARK   13  A    between atoms: C15_24  and  C16_25 
REMARK   14  A    between atoms: C16_25  and  N3_26 
REMARK   15  A    between atoms: C23_34  and  N4_35 
REMARK   16  A    between atoms: N4_35  and  C24_37 
ROOT
HETATM    1  C8  UNL     1      20.377  29.265  12.654  1.00  0.00     0.132 C 
HETATM    2  C9  UNL     1      21.100  30.505  13.182  1.00  0.00     0.063 C 
HETATM    3  C10 UNL     1      20.366  31.415  14.052  1.00  0.00     0.124 C 
HETATM    4  C21 UNL     1      18.916  31.069  14.159  1.00  0.00     0.037 C 
HETATM    5  C22 UNL     1      18.470  30.880  12.695  1.00  0.00     0.057 C 
HETATM    6  C23 UNL     1      18.990  29.472  12.310  1.00  0.00     0.006 C 
ENDROOT
BRANCH   1   7
HETATM    7  N2  UNL     1      21.278  28.785  11.569  1.00  0.00    -0.351 N 
HETATM    8  C7  UNL     1      21.974  27.530  11.782  1.00  0.00     0.228 C 
HETATM    9  O2  UNL     1      21.743  26.962  12.879  1.00  0.00    -0.273 OA
ATOM     10  H2  UNL     1      21.401  29.319  10.708  1.00  0.00     0.163 HD
BRANCH   8  11
HETATM   11  C6  UNL     1      22.851  26.997  10.786  1.00  0.00     0.129 C 
HETATM   12  C5  UNL     1      24.220  26.614  11.299  1.00  0.00     0.022 C 
HETATM   13  C4  UNL     1      25.231  26.786  10.139  1.00  0.00     0.021 C 
HETATM   14  C3  UNL     1      24.497  26.737   8.802  1.00  0.00     0.131 C 
HETATM   15  N1  UNL     1      23.471  25.657   8.881  1.00  0.00    -0.334 N 
HETATM   16  C28 UNL     1      22.430  25.931   9.845  1.00  0.00     0.040 C 
HETATM   17  C29 UNL     1      21.111  25.433   9.713  1.00  0.00     0.032 A 
HETATM   18  C30 UNL     1      20.406  24.795  10.765  1.00  0.00     0.059 A 
HETATM   19  C34 UNL     1      20.459  25.350   8.504  1.00  0.00     0.167 A 
HETATM   20  C31 UNL     1      19.197  24.169  10.543  1.00  0.00     0.120 A 
HETATM   21  F1  UNL     1      18.533  23.560  11.588  1.00  0.00    -0.206 F 
HETATM   22  C32 UNL     1      18.611  24.123   9.323  1.00  0.00     0.087 A 
HETATM   23  C33 UNL     1      19.269  24.734   8.278  1.00  0.00     0.158 A 
HETATM   24  F2  UNL     1      18.719  24.705   7.024  1.00  0.00    -0.203 F 
HETATM   25  F3  UNL     1      20.998  26.018   7.440  1.00  0.00    -0.202 F 
BRANCH  15  26
HETATM   26  C2  UNL     1      23.688  24.567   8.082  1.00  0.00     0.113 C 
HETATM   27  C1  UNL     1      23.807  24.411   6.662  1.00  0.00     0.097 C 
BRANCH  26  28
HETATM   28  O1  UNL     1      23.804  23.419   8.737  1.00  0.00    -0.349 OA
ATOM     29  H1  UNL     1      22.978  23.112   9.092  1.00  0.00     0.219 HD
ENDBRANCH  26  28
ENDBRANCH  15  26
ENDBRANCH   8  11
ENDBRANCH   1   7
BRANCH   6  30
HETATM   30  N4  UNL     1      18.400  29.074  11.137  1.00  0.00    -0.387 N 
ATOM     31  H4  UNL     1      18.811  29.477  10.295  1.00  0.00     0.160 HD
BRANCH  30  32
HETATM   32  C24 UNL     1      17.354  28.226  10.911  1.00  0.00     0.019 C 
HETATM   33  C25 UNL     1      17.195  27.020  11.761  1.00  0.00     0.037 C 
HETATM   34  C26 UNL     1      17.515  27.682   9.443  1.00  0.00     0.037 C 
HETATM   35  C27 UNL     1      15.979  28.900  10.841  1.00  0.00     0.037 C 
ENDBRANCH  30  32
ENDBRANCH   6  30
BRANCH   3  36
HETATM   36  O3  UNL     1      20.995  31.622  15.288  1.00  0.00    -0.384 OA
BRANCH  36  37
HETATM   37  C11 UNL     1      22.308  31.944  15.157  1.00  0.00     0.194 C 
BRANCH  37  38
HETATM   38  C12 UNL     1      22.763  33.206  15.860  1.00  0.00     0.193 C 
BRANCH  38  39
HETATM   39  O4  UNL     1      21.667  34.036  15.915  1.00  0.00    -0.387 OA
BRANCH  39  40
HETATM   40  C13 UNL     1      21.716  35.062  16.843  1.00  0.00     0.193 C 
BRANCH  40  41
HETATM   41  C14 UNL     1      21.666  34.648  18.268  1.00  0.00     0.193 C 
BRANCH  41  42
HETATM   42  O5  UNL     1      20.749  35.141  19.059  1.00  0.00    -0.387 OA
BRANCH  42  43
HETATM   43  C15 UNL     1      19.652  35.793  18.809  1.00  0.00     0.198 C 
BRANCH  43  44
HETATM   44  C16 UNL     1      18.327  35.069  18.689  1.00  0.00     0.298 C 
BRANCH  44  45
HETATM   45  N3  UNL     1      18.061  34.776  17.256  1.00  0.00     0.094 N 
HETATM   46  C17 UNL     1      18.009  33.364  17.019  1.00  0.00     0.298 C 
HETATM   47  C18 UNL     1      16.646  33.037  16.426  1.00  0.00     0.198 C 
HETATM   48  O6  UNL     1      16.497  33.780  15.275  1.00  0.00    -0.388 OA
HETATM   49  C19 UNL     1      16.386  35.131  15.510  1.00  0.00     0.198 C 
HETATM   50  C20 UNL     1      16.888  35.508  16.885  1.00  0.00     0.298 C 
ENDBRANCH  44  45
ENDBRANCH  43  44
ENDBRANCH  42  43
ENDBRANCH  41  42
ENDBRANCH  40  41
ENDBRANCH  39  40
ENDBRANCH  38  39
ENDBRANCH  37  38
ENDBRANCH  36  37
ENDBRANCH   3  36
TORSDOF 16
ENDMDL
MODEL 5
REMARK VINA RESULT: -8.467275415      1.046      1.508
REMARK  16 active torsions:
REMARK  status: ('A' for Active; 'I' for Inactive)
REMARK    1  A    between atoms: C2_2  and  O1_3 
REMARK    2  A    between atoms: C2_2  and  N1_5 
REMARK    3  A    between atoms: C6_9  and  C7_10 
REMARK       I    between atoms: C7_10  and  N2_12 
REMARK    4  A    between atoms: N2_12  and  C8_14 
REMARK    5  A    between atoms: C10_16  and  O3_17 
REMARK    6  A    between atoms: O3_17  and  C11_18 
REMARK    7  A    between atoms: C11_18  and  C12_19 
REMARK    8  A    between atoms: C12_19  and  O4_20 
REMARK    9  A    between atoms: O4_20  and  C13_21 
REMARK   10  A    between atoms: C13_21  and  C14_22 
REMARK   11  A    between atoms: C14_22  and  O5_23 
REMARK   12  A    between atoms: O5_23  and  C15_24 
REMARK   13  A    between atoms: C15_24  and  C16_25 
REMARK   14  A    between atoms: C16_25  and  N3_26 
REMARK   15  A    between atoms: C23_34  and  N4_35 
REMARK   16  A    between atoms: N4_35  and  C24_37 
ROOT
HETATM    1  C8  UNL     1      19.853  28.972  12.680  1.00  0.00     0.132 C 
HETATM    2  C9  UNL     1      20.515  30.224  13.258  1.00  0.00     0.063 C 
HETATM    3  C10 UNL     1      19.727  31.080  14.135  1.00  0.00     0.124 C 
HETATM    4  C21 UNL     1      18.290  30.675  14.199  1.00  0.00     0.037 C 
HETATM    5  C22 UNL     1      17.884  30.510  12.721  1.00  0.00     0.057 C 
HETATM    6  C23 UNL     1      18.467  29.135  12.310  1.00  0.00     0.006 C 
ENDROOT
BRANCH   1   7
HETATM    7  N2  UNL     1      20.796  28.558  11.603  1.00  0.00    -0.351 N 
HETATM    8  C7  UNL     1      21.772  27.533  11.924  1.00  0.00     0.228 C 
HETATM    9  O2  UNL     1      21.724  27.088  13.098  1.00  0.00    -0.273 OA
ATOM     10  H2  UNL     1      20.757  28.979  10.674  1.00  0.00     0.163 HD
BRANCH   8  11
HETATM   11  C6  UNL     1      22.707  27.075  10.944  1.00  0.00     0.129 C 
HETATM   12  C5  UNL     1      24.091  26.799  11.482  1.00  0.00     0.022 C 
HETATM   13  C4  UNL     1      25.108  27.054  10.343  1.00  0.00     0.021 C 
HETATM   14  C3  UNL     1      24.407  26.954   8.991  1.00  0.00     0.131 C 
HETATM   15  N1  UNL     1      23.467  25.796   9.047  1.00  0.00    -0.334 N 
HETATM   16  C28 UNL     1      22.389  25.984   9.991  1.00  0.00     0.040 C 
HETATM   17  C29 UNL     1      21.116  25.385   9.832  1.00  0.00     0.032 A 
HETATM   18  C30 UNL     1      20.443  24.688  10.868  1.00  0.00     0.059 A 
HETATM   19  C34 UNL     1      20.496  25.256   8.610  1.00  0.00     0.167 A 
HETATM   20  C31 UNL     1      19.291  23.970  10.620  1.00  0.00     0.120 A 
HETATM   21  F1  UNL     1      18.658  23.306  11.650  1.00  0.00    -0.206 F 
HETATM   22  C32 UNL     1      18.735  23.885   9.388  1.00  0.00     0.087 A 
HETATM   23  C33 UNL     1      19.363  24.550   8.358  1.00  0.00     0.158 A 
HETATM   24  F2  UNL     1      18.841  24.484   7.094  1.00  0.00    -0.203 F 
HETATM   25  F3  UNL     1      21.002  25.969   7.559  1.00  0.00    -0.202 F 
BRANCH  15  26
HETATM   26  C2  UNL     1      23.784  24.731   8.249  1.00  0.00     0.113 C 
HETATM   27  C1  UNL     1      24.026  24.609   6.842  1.00  0.00     0.097 C 
BRANCH  26  28
HETATM   28  O1  UNL     1      23.881  23.573   8.890  1.00  0.00    -0.349 OA
ATOM     29  H1  UNL     1      23.080  23.334   9.342  1.00  0.00     0.219 HD
ENDBRANCH  26  28
ENDBRANCH  15  26
ENDBRANCH   8  11
ENDBRANCH   1   7
BRANCH   6  30
HETATM   30  N4  UNL     1      17.919  28.746  11.114  1.00  0.00    -0.387 N 
ATOM     31  H4  UNL     1      18.197  29.314  10.314  1.00  0.00     0.160 HD
BRANCH  30  32
HETATM   32  C24 UNL     1      17.062  27.724  10.819  1.00  0.00     0.019 C 
HETATM   33  C25 UNL     1      17.104  27.104   9.471  1.00  0.00     0.037 C 
HETATM   34  C26 UNL     1      15.603  28.294  10.969  1.00  0.00     0.037 C 
HETATM   35  C27 UNL     1      17.052  26.575  11.833  1.00  0.00     0.037 C 
ENDBRANCH  30  32
ENDBRANCH   6  30
BRANCH   3  36
HETATM   36  O3  UNL     1      20.320  31.277  15.390  1.00  0.00    -0.384 OA
BRANCH  36  37
HETATM   37  C11 UNL     1      19.675  32.216  16.131  1.00  0.00     0.194 C 
BRANCH  37  38
HETATM   38  C12 UNL     1      19.907  33.659  15.735  1.00  0.00     0.193 C 
BRANCH  38  39
HETATM   39  O4  UNL     1      21.239  33.915  15.964  1.00  0.00    -0.387 OA
BRANCH  39  40
HETATM   40  C13 UNL     1      21.534  35.074  16.661  1.00  0.00     0.193 C 
BRANCH  40  41
HETATM   41  C14 UNL     1      21.512  34.962  18.142  1.00  0.00     0.193 C 
BRANCH  41  42
HETATM   42  O5  UNL     1      20.585  35.577  18.829  1.00  0.00    -0.387 OA
BRANCH  42  43
HETATM   43  C15 UNL     1      19.338  35.284  19.054  1.00  0.00     0.198 C 
BRANCH  43  44
HETATM   44  C16 UNL     1      18.225  36.001  18.316  1.00  0.00     0.298 C 
BRANCH  44  45
HETATM   45  N3  UNL     1      16.927  35.363  18.658  1.00  0.00     0.094 N 
HETATM   46  C17 UNL     1      15.915  36.350  18.897  1.00  0.00     0.298 C 
HETATM   47  C18 UNL     1      14.775  36.101  17.921  1.00  0.00     0.198 C 
HETATM   48  O6  UNL     1      14.325  34.813  18.117  1.00  0.00    -0.388 OA
HETATM   49  C19 UNL     1      15.237  33.855  17.738  1.00  0.00     0.198 C 
HETATM   50  C20 UNL     1      16.634  34.418  17.622  1.00  0.00     0.298 C 
ENDBRANCH  44  45
ENDBRANCH  43  44
ENDBRANCH  42  43
ENDBRANCH  41  42
ENDBRANCH  40  41
ENDBRANCH  39  40
ENDBRANCH  38  39
ENDBRANCH  37  38
ENDBRANCH  36  37
ENDBRANCH   3  36
TORSDOF 16
ENDMDL
