MODEL 1
REMARK VINA RESULT: -6.248321785      0.000      0.000
REMARK  4 active torsions:
REMARK  status: ('A' for Active; 'I' for Inactive)
REMARK    1  A    between atoms: C3_4  and  N2_5 
REMARK    2  A    between atoms: N2_5  and  N3_6 
REMARK       I    between atoms: N2_5  and  C5_11 
REMARK    3  A    between atoms: N3_6  and  C4_8 
REMARK    4  A    between atoms: C5_11  and  C6_13 
ROOT
HETATM    1  N2  UNL     1      45.514  51.209   9.088  1.00  0.00    -0.249 N 
HETATM    2  C5  UNL     1      44.404  50.616   8.450  1.00  0.00     0.243 C 
HETATM    3  O1  UNL     1      43.682  49.843   9.176  1.00  0.00    -0.271 OA
ENDROOT
BRANCH   1   4
HETATM    4  C3  UNL     1      46.461  52.106   8.465  1.00  0.00     0.151 C 
HETATM    5  C2  UNL     1      47.251  52.887   9.490  1.00  0.00     0.085 C 
HETATM    6  N1  UNL     1      48.450  53.026   9.076  1.00  0.00    -0.395 N 
HETATM    7  C1  UNL     1      49.492  53.713   9.778  1.00  0.00     0.148 C 
HETATM    8  C12 UNL     1      48.653  52.403   7.795  1.00  0.00     0.123 C 
HETATM    9  C11 UNL     1      47.610  51.278   7.885  1.00  0.00     0.052 C 
ENDBRANCH   1   4
BRANCH   1  10
HETATM   10  N3  UNL     1      45.736  50.914  10.459  1.00  0.00    -0.273 N 
ATOM     11  H3  UNL     1      45.608  51.662  11.140  1.00  0.00     0.189 HD
BRANCH  10  12
HETATM   12  C4  UNL     1      46.123  49.641  10.929  1.00  0.00     0.199 C 
HETATM   13  N4  UNL     1      45.344  48.995  11.923  1.00  0.00    -0.068 NA
HETATM   14  S1  UNL     1      47.445  48.860  10.382  1.00  0.00    -0.043 SA
ENDBRANCH  10  12
ENDBRANCH   1  10
BRANCH   2  15
HETATM   15  C6  UNL     1      44.068  50.849   7.042  1.00  0.00     0.088 A 
HETATM   16  C7  UNL     1      43.144  49.786   6.366  1.00  0.00     0.024 A 
HETATM   17  C8  UNL     1      44.587  50.005   5.953  1.00  0.00    -0.035 A 
HETATM   18  C9  UNL     1      44.706  50.611   4.553  1.00  0.00     0.015 C 
HETATM   19  C10 UNL     1      45.453  48.804   6.156  1.00  0.00     0.015 C 
ENDBRANCH   2  15
TORSDOF 4
ENDMDL
MODEL 2
REMARK VINA RESULT: -6.190164513      2.003      4.833
REMARK  4 active torsions:
REMARK  status: ('A' for Active; 'I' for Inactive)
REMARK    1  A    between atoms: C3_4  and  N2_5 
REMARK    2  A    between atoms: N2_5  and  N3_6 
REMARK       I    between atoms: N2_5  and  C5_11 
REMARK    3  A    between atoms: N3_6  and  C4_8 
REMARK    4  A    between atoms: C5_11  and  C6_13 
ROOT
HETATM    1  N2  UNL     1      46.453  50.857   9.582  1.00  0.00    -0.249 N 
HETATM    2  C5  UNL     1      47.781  50.783  10.052  1.00  0.00     0.243 C 
HETATM    3  O1  UNL     1      47.973  50.053  11.089  1.00  0.00    -0.271 OA
ENDROOT
BRANCH   1   4
HETATM    4  C3  UNL     1      46.008  51.619   8.437  1.00  0.00     0.151 C 
HETATM    5  C2  UNL     1      45.807  50.741   7.223  1.00  0.00     0.085 C 
HETATM    6  N1  UNL     1      44.794  51.159   6.569  1.00  0.00    -0.395 N 
HETATM    7  C1  UNL     1      44.296  50.578   5.358  1.00  0.00     0.148 C 
HETATM    8  C12 UNL     1      44.186  52.304   7.191  1.00  0.00     0.123 C 
HETATM    9  C11 UNL     1      44.550  52.027   8.658  1.00  0.00     0.052 C 
ENDBRANCH   1   4
BRANCH   1  10
HETATM   10  N3  UNL     1      45.455  50.127  10.278  1.00  0.00    -0.273 N 
ATOM     11  H3  UNL     1      44.979  50.582  11.057  1.00  0.00     0.189 HD
BRANCH  10  12
HETATM   12  C4  UNL     1      45.084  48.806   9.950  1.00  0.00     0.199 C 
HETATM   13  N4  UNL     1      43.952  48.578   9.127  1.00  0.00    -0.068 NA
HETATM   14  S1  UNL     1      45.904  47.499  10.480  1.00  0.00    -0.043 SA
ENDBRANCH  10  12
ENDBRANCH   1  10
BRANCH   2  15
HETATM   15  C6  UNL     1      48.899  51.487   9.415  1.00  0.00     0.088 A 
HETATM   16  C7  UNL     1      50.021  52.009  10.368  1.00  0.00     0.024 A 
HETATM   17  C8  UNL     1      49.119  52.934   9.572  1.00  0.00    -0.035 A 
HETATM   18  C9  UNL     1      49.875  53.682   8.474  1.00  0.00     0.015 C 
HETATM   19  C10 UNL     1      48.279  53.826  10.428  1.00  0.00     0.015 C 
ENDBRANCH   2  15
TORSDOF 4
ENDMDL
MODEL 3
REMARK VINA RESULT: -6.074001422      3.887      5.703
REMARK  4 active torsions:
REMARK  status: ('A' for Active; 'I' for Inactive)
REMARK    1  A    between atoms: C3_4  and  N2_5 
REMARK    2  A    between atoms: N2_5  and  N3_6 
REMARK       I    between atoms: N2_5  and  C5_11 
REMARK    3  A    between atoms: N3_6  and  C4_8 
REMARK    4  A    between atoms: C5_11  and  C6_13 
ROOT
HETATM    1  N2  UNL     1      45.912  46.893  10.621  1.00  0.00    -0.249 N 
HETATM    2  C5  UNL     1      45.752  48.264  10.331  1.00  0.00     0.243 C 
HETATM    3  O1  UNL     1      45.308  48.996  11.287  1.00  0.00    -0.271 OA
ENDROOT
BRANCH   1   4
HETATM    4  C3  UNL     1      46.392  45.889   9.698  1.00  0.00     0.151 C 
HETATM    5  C2  UNL     1      47.631  45.198  10.218  1.00  0.00     0.085 C 
HETATM    6  N1  UNL     1      47.590  43.964   9.893  1.00  0.00    -0.395 N 
HETATM    7  C1  UNL     1      48.591  42.991  10.210  1.00  0.00     0.148 C 
HETATM    8  C12 UNL     1      46.397  43.643   9.155  1.00  0.00     0.123 C 
HETATM    9  C11 UNL     1      45.439  44.693   9.738  1.00  0.00     0.052 C 
ENDBRANCH   1   4
BRANCH   1  10
HETATM   10  N3  UNL     1      45.579  46.441  11.925  1.00  0.00    -0.273 N 
ATOM     11  H3  UNL     1      44.598  46.265  12.138  1.00  0.00     0.189 HD
BRANCH  10  12
HETATM   12  C4  UNL     1      46.533  46.222  12.941  1.00  0.00     0.199 C 
HETATM   13  N4  UNL     1      46.577  44.969  13.603  1.00  0.00    -0.068 NA
HETATM   14  S1  UNL     1      47.608  47.357  13.406  1.00  0.00    -0.043 SA
ENDBRANCH  10  12
ENDBRANCH   1  10
BRANCH   2  15
HETATM   15  C6  UNL     1      46.068  48.851   9.024  1.00  0.00     0.088 A 
HETATM   16  C7  UNL     1      45.151  50.026   8.554  1.00  0.00     0.024 A 
HETATM   17  C8  UNL     1      45.197  48.684   7.849  1.00  0.00    -0.035 A 
HETATM   18  C9  UNL     1      45.823  48.778   6.456  1.00  0.00     0.015 C 
HETATM   19  C10 UNL     1      43.890  47.959   7.864  1.00  0.00     0.015 C 
ENDBRANCH   2  15
TORSDOF 4
ENDMDL
MODEL 4
REMARK VINA RESULT: -6.060891362      4.397      6.321
REMARK  4 active torsions:
REMARK  status: ('A' for Active; 'I' for Inactive)
REMARK    1  A    between atoms: C3_4  and  N2_5 
REMARK    2  A    between atoms: N2_5  and  N3_6 
REMARK       I    between atoms: N2_5  and  C5_11 
REMARK    3  A    between atoms: N3_6  and  C4_8 
REMARK    4  A    between atoms: C5_11  and  C6_13 
ROOT
HETATM    1  N2  UNL     1      50.109  50.002  10.420  1.00  0.00    -0.249 N 
HETATM    2  C5  UNL     1      50.107  51.251   9.764  1.00  0.00     0.243 C 
HETATM    3  O1  UNL     1      50.895  51.362   8.757  1.00  0.00    -0.271 OA
ENDROOT
BRANCH   1   4
HETATM    4  C3  UNL     1      49.308  49.657  11.572  1.00  0.00     0.151 C 
HETATM    5  C2  UNL     1      48.237  48.648  11.227  1.00  0.00     0.085 C 
HETATM    6  N1  UNL     1      48.095  47.838  12.204  1.00  0.00    -0.395 N 
HETATM    7  C1  UNL     1      47.170  46.746  12.244  1.00  0.00     0.148 C 
HETATM    8  C12 UNL     1      48.988  48.144  13.290  1.00  0.00     0.123 C 
HETATM    9  C11 UNL     1      50.146  48.779  12.504  1.00  0.00     0.052 C 
ENDBRANCH   1   4
BRANCH   1  10
HETATM   10  N3  UNL     1      50.963  48.984   9.919  1.00  0.00    -0.273 N 
ATOM     11  H3  UNL     1      51.953  49.025  10.158  1.00  0.00     0.189 HD
BRANCH  10  12
HETATM   12  C4  UNL     1      50.515  47.920   9.109  1.00  0.00     0.199 C 
HETATM   13  N4  UNL     1      50.864  46.587   9.445  1.00  0.00    -0.068 NA
HETATM   14  S1  UNL     1      49.601  48.145   7.777  1.00  0.00    -0.043 SA
ENDBRANCH  10  12
ENDBRANCH   1  10
BRANCH   2  15
HETATM   15  C6  UNL     1      49.266  52.377  10.183  1.00  0.00     0.088 A 
HETATM   16  C7  UNL     1      48.321  52.977   9.093  1.00  0.00     0.024 A 
HETATM   17  C8  UNL     1      49.478  53.750   9.697  1.00  0.00    -0.035 A 
HETATM   18  C9  UNL     1      49.009  54.915  10.570  1.00  0.00     0.015 C 
HETATM   19  C10 UNL     1      50.519  54.139   8.698  1.00  0.00     0.015 C 
ENDBRANCH   2  15
TORSDOF 4
ENDMDL
MODEL 5
REMARK VINA RESULT: -6.052772857      2.276      2.833
REMARK  4 active torsions:
REMARK  status: ('A' for Active; 'I' for Inactive)
REMARK    1  A    between atoms: C3_4  and  N2_5 
REMARK    2  A    between atoms: N2_5  and  N3_6 
REMARK       I    between atoms: N2_5  and  C5_11 
REMARK    3  A    between atoms: N3_6  and  C4_8 
REMARK    4  A    between atoms: C5_11  and  C6_13 
ROOT
HETATM    1  N2  UNL     1      48.264  51.405   8.613  1.00  0.00    -0.249 N 
HETATM    2  C5  UNL     1      47.164  50.766   8.003  1.00  0.00     0.243 C 
HETATM    3  O1  UNL     1      47.162  49.483   8.045  1.00  0.00    -0.271 OA
ENDROOT
BRANCH   1   4
HETATM    4  C3  UNL     1      48.473  52.834   8.681  1.00  0.00     0.151 C 
HETATM    5  C2  UNL     1      47.992  53.409   9.993  1.00  0.00     0.085 C 
HETATM    6  N1  UNL     1      48.787  54.338  10.359  1.00  0.00    -0.395 N 
HETATM    7  C1  UNL     1      48.655  55.116  11.554  1.00  0.00     0.148 C 
HETATM    8  C12 UNL     1      49.863  54.526   9.422  1.00  0.00     0.123 C 
HETATM    9  C11 UNL     1      49.970  53.100   8.859  1.00  0.00     0.052 C 
ENDBRANCH   1   4
BRANCH   1  10
HETATM   10  N3  UNL     1      49.258  50.594   9.219  1.00  0.00    -0.273 N 
ATOM     11  H3  UNL     1      50.017  50.244   8.635  1.00  0.00     0.189 HD
BRANCH  10  12
HETATM   12  C4  UNL     1      49.254  50.247  10.586  1.00  0.00     0.199 C 
HETATM   13  N4  UNL     1      50.203  50.834  11.462  1.00  0.00    -0.068 NA
HETATM   14  S1  UNL     1      48.197  49.183  11.226  1.00  0.00    -0.043 SA
ENDBRANCH  10  12
ENDBRANCH   1  10
BRANCH   2  15
HETATM   15  C6  UNL     1      46.072  51.495   7.350  1.00  0.00     0.088 A 
HETATM   16  C7  UNL     1      44.968  52.075   8.292  1.00  0.00     0.024 A 
HETATM   17  C8  UNL     1      44.697  50.973   7.285  1.00  0.00    -0.035 A 
HETATM   18  C9  UNL     1      43.793  51.436   6.142  1.00  0.00     0.015 C 
HETATM   19  C10 UNL     1      44.252  49.691   7.912  1.00  0.00     0.015 C 
ENDBRANCH   2  15
TORSDOF 4
ENDMDL
