MODEL 1
REMARK VINA RESULT: -7.358084396      0.000      0.000
REMARK  3 active torsions:
REMARK  status: ('A' for Active; 'I' for Inactive)
REMARK       I    between atoms: C2_4  and  N2_5 
REMARK       I    between atoms: C2_4  and  N3_11 
REMARK    1  A    between atoms: N2_5  and  C3_7 
REMARK    2  A    between atoms: C11_16  and  C12_17 
REMARK    3  A    between atoms: C13_18  and  C14_19 
ROOT
HETATM    1  C1  UNL     1      48.500  51.396   6.193  1.00  0.00     0.165 C 
HETATM    2  N1  UNL     1      49.548  52.336   5.957  1.00  0.00    -0.231 N 
ATOM      3  H1  UNL     1      49.706  52.635   4.995  1.00  0.00     0.177 HD
HETATM    4  C2  UNL     1      50.310  52.835   6.871  1.00  0.00     0.672 C 
HETATM    5  N2  UNL     1      51.307  53.759   6.457  1.00  0.00    -0.218 N 
ATOM      6  H2  UNL     1      51.177  54.750   6.661  1.00  0.00     0.178 HD
HETATM    7  N3  UNL     1      50.102  52.430   8.216  1.00  0.00    -0.210 N 
HETATM    8  C7  UNL     1      50.627  51.193   8.802  1.00  0.00     0.146 C 
HETATM    9  C8  UNL     1      49.718  50.955   9.997  1.00  0.00     0.002 C 
HETATM   10  C9  UNL     1      50.422  50.128  11.060  1.00  0.00     0.011 C 
HETATM   11  C10 UNL     1      49.477  52.357  10.475  1.00  0.00     0.036 C 
HETATM   12  C11 UNL     1      49.350  53.156   9.219  1.00  0.00     0.125 C 
ENDROOT
BRANCH  12  13
HETATM   13  C12 UNL     1      49.904  54.504   9.468  1.00  0.00     0.004 C 
HETATM   14  C13 UNL     1      49.776  55.120  10.624  1.00  0.00     0.069 C 
BRANCH  14  15
HETATM   15  C14 UNL     1      50.317  56.442  10.871  1.00  0.00     0.254 C 
HETATM   16  N4  UNL     1      50.118  57.137  12.098  1.00  0.00    -0.058 NA
HETATM   17  O1  UNL     1      50.995  57.032   9.995  1.00  0.00    -0.272 OA
ENDBRANCH  14  15
ENDBRANCH  12  13
BRANCH   5  18
HETATM   18  C3  UNL     1      52.508  53.335   5.748  1.00  0.00     0.036 C 
HETATM   19  C4  UNL     1      52.281  53.328   4.249  1.00  0.00     0.038 C 
HETATM   20  C5  UNL     1      52.910  51.980   6.257  1.00  0.00     0.038 C 
HETATM   21  C6  UNL     1      53.599  54.349   6.020  1.00  0.00     0.038 C 
ENDBRANCH   5  18
TORSDOF 3
ENDMDL
MODEL 2
REMARK VINA RESULT: -7.020387046      2.529      4.880
REMARK  3 active torsions:
REMARK  status: ('A' for Active; 'I' for Inactive)
REMARK       I    between atoms: C2_4  and  N2_5 
REMARK       I    between atoms: C2_4  and  N3_11 
REMARK    1  A    between atoms: N2_5  and  C3_7 
REMARK    2  A    between atoms: C11_16  and  C12_17 
REMARK    3  A    between atoms: C13_18  and  C14_19 
ROOT
HETATM    1  C1  UNL     1      49.537  49.388   8.619  1.00  0.00     0.165 C 
HETATM    2  N1  UNL     1      48.288  50.006   8.926  1.00  0.00    -0.231 N 
ATOM      3  H1  UNL     1      47.553  49.416   9.318  1.00  0.00     0.177 HD
HETATM    4  C2  UNL     1      48.018  51.255   8.745  1.00  0.00     0.672 C 
HETATM    5  N2  UNL     1      46.719  51.701   9.107  1.00  0.00    -0.218 N 
ATOM      6  H2  UNL     1      46.607  52.266   9.950  1.00  0.00     0.178 HD
HETATM    7  N3  UNL     1      49.030  52.090   8.203  1.00  0.00    -0.210 N 
HETATM    8  C7  UNL     1      49.335  52.204   6.773  1.00  0.00     0.146 C 
HETATM    9  C8  UNL     1      50.760  52.734   6.757  1.00  0.00     0.002 C 
HETATM   10  C9  UNL     1      51.047  53.485   5.468  1.00  0.00     0.011 C 
HETATM   11  C10 UNL     1      50.748  53.665   7.935  1.00  0.00     0.036 C 
HETATM   12  C11 UNL     1      49.917  52.956   8.953  1.00  0.00     0.125 C 
ENDROOT
BRANCH  12  13
HETATM   13  C12 UNL     1      49.179  53.968   9.738  1.00  0.00     0.004 C 
HETATM   14  C13 UNL     1      49.785  54.855  10.498  1.00  0.00     0.069 C 
BRANCH  14  15
HETATM   15  C14 UNL     1      49.065  55.850  11.269  1.00  0.00     0.254 C 
HETATM   16  N4  UNL     1      49.357  57.241  11.191  1.00  0.00    -0.058 NA
HETATM   17  O1  UNL     1      48.141  55.512  12.047  1.00  0.00    -0.272 OA
ENDBRANCH  14  15
ENDBRANCH  12  13
BRANCH   5  18
HETATM   18  C3  UNL     1      45.540  51.377   8.312  1.00  0.00     0.036 C 
HETATM   19  C4  UNL     1      45.053  49.972   8.610  1.00  0.00     0.038 C 
HETATM   20  C5  UNL     1      45.881  51.551   6.860  1.00  0.00     0.038 C 
HETATM   21  C6  UNL     1      44.427  52.320   8.714  1.00  0.00     0.038 C 
ENDBRANCH   5  18
TORSDOF 3
ENDMDL
MODEL 3
REMARK VINA RESULT: -6.906912088      3.262      5.373
REMARK  3 active torsions:
REMARK  status: ('A' for Active; 'I' for Inactive)
REMARK       I    between atoms: C2_4  and  N2_5 
REMARK       I    between atoms: C2_4  and  N3_11 
REMARK    1  A    between atoms: N2_5  and  C3_7 
REMARK    2  A    between atoms: C11_16  and  C12_17 
REMARK    3  A    between atoms: C13_18  and  C14_19 
ROOT
HETATM    1  C1  UNL     1      50.157  48.120   4.748  1.00  0.00     0.165 C 
HETATM    2  N1  UNL     1      49.061  48.752   5.409  1.00  0.00    -0.231 N 
ATOM      3  H1  UNL     1      48.154  48.287   5.369  1.00  0.00     0.177 HD
HETATM    4  C2  UNL     1      49.134  49.867   6.054  1.00  0.00     0.672 C 
HETATM    5  N2  UNL     1      47.940  50.353   6.653  1.00  0.00    -0.218 N 
ATOM      6  H2  UNL     1      47.837  50.295   7.666  1.00  0.00     0.178 HD
HETATM    7  N3  UNL     1      50.390  50.525   6.122  1.00  0.00    -0.210 N 
HETATM    8  C7  UNL     1      50.934  51.386   5.067  1.00  0.00     0.146 C 
HETATM    9  C8  UNL     1      52.429  51.381   5.344  1.00  0.00     0.002 C 
HETATM   10  C9  UNL     1      53.088  52.637   4.797  1.00  0.00     0.011 C 
HETATM   11  C10 UNL     1      52.457  51.365   6.845  1.00  0.00     0.036 C 
HETATM   12  C11 UNL     1      51.330  50.461   7.222  1.00  0.00     0.125 C 
ENDROOT
BRANCH  12  13
HETATM   13  C12 UNL     1      50.744  50.952   8.488  1.00  0.00     0.004 C 
HETATM   14  C13 UNL     1      50.689  50.212   9.576  1.00  0.00     0.069 C 
BRANCH  14  15
HETATM   15  C14 UNL     1      50.116  50.690  10.819  1.00  0.00     0.254 C 
HETATM   16  N4  UNL     1      50.424  50.106  12.081  1.00  0.00    -0.058 NA
HETATM   17  O1  UNL     1      49.313  51.653  10.827  1.00  0.00    -0.272 OA
ENDBRANCH  14  15
ENDBRANCH  12  13
BRANCH   5  18
HETATM   18  C3  UNL     1      46.858  50.930   5.864  1.00  0.00     0.036 C 
HETATM   19  C4  UNL     1      46.011  49.845   5.228  1.00  0.00     0.038 C 
HETATM   20  C5  UNL     1      47.455  51.847   4.834  1.00  0.00     0.038 C 
HETATM   21  C6  UNL     1      45.951  51.700   6.800  1.00  0.00     0.038 C 
ENDBRANCH   5  18
TORSDOF 3
ENDMDL
MODEL 4
REMARK VINA RESULT: -6.880464140      3.454      5.157
REMARK  3 active torsions:
REMARK  status: ('A' for Active; 'I' for Inactive)
REMARK       I    between atoms: C2_4  and  N2_5 
REMARK       I    between atoms: C2_4  and  N3_11 
REMARK    1  A    between atoms: N2_5  and  C3_7 
REMARK    2  A    between atoms: C11_16  and  C12_17 
REMARK    3  A    between atoms: C13_18  and  C14_19 
ROOT
HETATM    1  C1  UNL     1      50.515  49.935  10.501  1.00  0.00     0.165 C 
HETATM    2  N1  UNL     1      49.932  49.705   9.219  1.00  0.00    -0.231 N 
ATOM      3  H1  UNL     1      50.053  48.780   8.805  1.00  0.00     0.177 HD
HETATM    4  C2  UNL     1      49.262  50.578   8.546  1.00  0.00     0.672 C 
HETATM    5  N2  UNL     1      48.752  50.176   7.282  1.00  0.00    -0.218 N 
ATOM      6  H2  UNL     1      47.752  50.002   7.185  1.00  0.00     0.178 HD
HETATM    7  N3  UNL     1      49.083  51.869   9.109  1.00  0.00    -0.210 N 
HETATM    8  C7  UNL     1      50.074  52.947   9.049  1.00  0.00     0.146 C 
HETATM    9  C8  UNL     1      49.679  53.855  10.203  1.00  0.00     0.002 C 
HETATM   10  C9  UNL     1      50.148  55.280   9.959  1.00  0.00     0.011 C 
HETATM   11  C10 UNL     1      48.181  53.763  10.158  1.00  0.00     0.036 C 
HETATM   12  C11 UNL     1      47.912  52.332   9.826  1.00  0.00     0.125 C 
ENDROOT
BRANCH  12  13
HETATM   13  C12 UNL     1      46.688  52.269   8.998  1.00  0.00     0.004 C 
HETATM   14  C13 UNL     1      45.555  51.770   9.446  1.00  0.00     0.069 C 
BRANCH  14  15
HETATM   15  C14 UNL     1      44.353  51.707   8.638  1.00  0.00     0.254 C 
HETATM   16  N4  UNL     1      44.274  52.269   7.333  1.00  0.00    -0.058 NA
HETATM   17  O1  UNL     1      43.319  51.142   9.070  1.00  0.00    -0.272 OA
ENDBRANCH  14  15
ENDBRANCH  12  13
BRANCH   5  18
HETATM   18  C3  UNL     1      49.614  50.005   6.119  1.00  0.00     0.036 C 
HETATM   19  C4  UNL     1      51.004  50.551   6.387  1.00  0.00     0.038 C 
HETATM   20  C5  UNL     1      48.969  50.679   4.942  1.00  0.00     0.038 C 
HETATM   21  C6  UNL     1      49.770  48.521   5.861  1.00  0.00     0.038 C 
ENDBRANCH   5  18
TORSDOF 3
ENDMDL
MODEL 5
REMARK VINA RESULT: -6.840522626      3.979      5.913
REMARK  3 active torsions:
REMARK  status: ('A' for Active; 'I' for Inactive)
REMARK       I    between atoms: C2_4  and  N2_5 
REMARK       I    between atoms: C2_4  and  N3_11 
REMARK    1  A    between atoms: N2_5  and  C3_7 
REMARK    2  A    between atoms: C11_16  and  C12_17 
REMARK    3  A    between atoms: C13_18  and  C14_19 
ROOT
HETATM    1  C1  UNL     1      48.052  48.315   7.658  1.00  0.00     0.165 C 
HETATM    2  N1  UNL     1      48.496  48.452   9.008  1.00  0.00    -0.231 N 
ATOM      3  H1  UNL     1      49.170  47.770   9.354  1.00  0.00     0.177 HD
HETATM    4  C2  UNL     1      48.108  49.375   9.821  1.00  0.00     0.672 C 
HETATM    5  N2  UNL     1      48.654  49.360  11.133  1.00  0.00    -0.218 N 
ATOM      6  H2  UNL     1      49.351  50.060  11.387  1.00  0.00     0.178 HD
HETATM    7  N3  UNL     1      47.171  50.334   9.354  1.00  0.00    -0.210 N 
HETATM    8  C7  UNL     1      45.722  50.121   9.298  1.00  0.00     0.146 C 
HETATM    9  C8  UNL     1      45.256  51.137   8.268  1.00  0.00     0.002 C 
HETATM   10  C9  UNL     1      43.800  51.513   8.493  1.00  0.00     0.011 C 
HETATM   11  C10 UNL     1      46.165  52.297   8.556  1.00  0.00     0.036 C 
HETATM   12  C11 UNL     1      47.481  51.662   8.864  1.00  0.00     0.125 C 
ENDROOT
BRANCH  12  13
HETATM   13  C12 UNL     1      48.169  52.487   9.880  1.00  0.00     0.004 C 
HETATM   14  C13 UNL     1      48.278  53.795   9.774  1.00  0.00     0.069 C 
BRANCH  14  15
HETATM   15  C14 UNL     1      48.952  54.608  10.767  1.00  0.00     0.254 C 
HETATM   16  N4  UNL     1      48.315  55.043  11.964  1.00  0.00    -0.058 NA
HETATM   17  O1  UNL     1      50.144  54.963  10.604  1.00  0.00    -0.272 OA
ENDBRANCH  14  15
ENDBRANCH  12  13
BRANCH   5  18
HETATM   18  C3  UNL     1      48.249  48.374  12.128  1.00  0.00     0.036 C 
HETATM   19  C4  UNL     1      48.490  46.964  11.625  1.00  0.00     0.038 C 
HETATM   20  C5  UNL     1      46.805  48.605  12.469  1.00  0.00     0.038 C 
HETATM   21  C6  UNL     1      49.121  48.555  13.353  1.00  0.00     0.038 C 
ENDBRANCH   5  18
TORSDOF 3
ENDMDL
