MODEL 1
REMARK VINA RESULT: -6.781295435      0.000      0.000
REMARK  3 active torsions:
REMARK  status: ('A' for Active; 'I' for Inactive)
REMARK    1  A    between atoms: C11_11  and  N1_12 
REMARK    2  A    between atoms: N1_12  and  S1_14 
REMARK    3  A    between atoms: S1_14  and  N2_15 
ROOT
HETATM    1  C1  UNL     1      53.785  51.944   5.695  1.00  0.00     0.015 C 
HETATM    2  C2  UNL     1      52.313  51.676   5.693  1.00  0.00    -0.040 C 
HETATM    3  C3  UNL     1      52.037  50.753   4.555  1.00  0.00     0.015 C 
HETATM    4  C4  UNL     1      51.483  52.946   5.651  1.00  0.00    -0.005 C 
HETATM    5  C5  UNL     1      50.036  52.595   5.645  1.00  0.00     0.012 C 
HETATM    6  C6  UNL     1      49.597  51.699   6.761  1.00  0.00     0.010 C 
HETATM    7  C7  UNL     1      50.495  50.454   6.841  1.00  0.00     0.012 C 
HETATM    8  C8  UNL     1      51.831  51.111   7.030  1.00  0.00     0.000 C 
HETATM    9  C9  UNL     1      51.496  52.341   7.895  1.00  0.00     0.014 C 
HETATM   10  C10 UNL     1      51.821  53.523   7.013  1.00  0.00     0.012 C 
HETATM   11  C11 UNL     1      50.027  52.289   8.115  1.00  0.00     0.100 C 
ENDROOT
BRANCH  11  12
HETATM   12  N1  UNL     1      49.354  53.459   8.489  1.00  0.00    -0.322 N 
ATOM     13  H1  UNL     1      49.243  54.277   7.889  1.00  0.00     0.171 HD
BRANCH  12  14
HETATM   14  S1  UNL     1      48.728  53.338  10.125  1.00  0.00     0.169 S 
HETATM   15  O1  UNL     1      49.492  52.324  10.905  1.00  0.00    -0.216 OA
HETATM   16  S2  UNL     1      48.945  54.858  10.891  1.00  0.00     0.051 SA
BRANCH  14  17
HETATM   17  N2  UNL     1      47.033  53.005  10.095  1.00  0.00    -0.336 N 
ATOM     18  H22 UNL     1      46.586  52.380   9.424  1.00  0.00     0.168 HD
ATOM     19  H21 UNL     1      46.557  53.521  10.836  1.00  0.00     0.168 HD
ENDBRANCH  14  17
ENDBRANCH  12  14
ENDBRANCH  11  12
TORSDOF 3
ENDMDL
MODEL 2
REMARK VINA RESULT: -6.402912165      4.258      5.001
REMARK  3 active torsions:
REMARK  status: ('A' for Active; 'I' for Inactive)
REMARK    1  A    between atoms: C11_11  and  N1_12 
REMARK    2  A    between atoms: N1_12  and  S1_14 
REMARK    3  A    between atoms: S1_14  and  N2_15 
ROOT
HETATM    1  C1  UNL     1      53.507  54.287   6.090  1.00  0.00     0.015 C 
HETATM    2  C2  UNL     1      52.375  53.401   6.506  1.00  0.00    -0.040 C 
HETATM    3  C3  UNL     1      51.724  54.046   7.683  1.00  0.00     0.015 C 
HETATM    4  C4  UNL     1      52.813  51.973   6.771  1.00  0.00    -0.005 C 
HETATM    5  C5  UNL     1      51.635  51.160   7.186  1.00  0.00     0.012 C 
HETATM    6  C6  UNL     1      50.471  51.205   6.244  1.00  0.00     0.010 C 
HETATM    7  C7  UNL     1      50.089  52.659   5.924  1.00  0.00     0.012 C 
HETATM    8  C8  UNL     1      51.391  53.150   5.363  1.00  0.00     0.000 C 
HETATM    9  C9  UNL     1      51.938  51.919   4.618  1.00  0.00     0.014 C 
HETATM   10  C10 UNL     1      53.200  51.554   5.365  1.00  0.00     0.012 C 
HETATM   11  C11 UNL     1      50.929  50.846   4.820  1.00  0.00     0.100 C 
ENDROOT
BRANCH  11  12
HETATM   12  N1  UNL     1      51.311  49.510   4.641  1.00  0.00    -0.322 N 
ATOM     13  H1  UNL     1      52.276  49.197   4.534  1.00  0.00     0.171 HD
BRANCH  12  14
HETATM   14  S1  UNL     1      49.915  48.445   4.625  1.00  0.00     0.169 S 
HETATM   15  O1  UNL     1      48.690  49.193   4.225  1.00  0.00    -0.216 OA
HETATM   16  S2  UNL     1      50.191  47.226   3.450  1.00  0.00     0.051 SA
BRANCH  14  17
HETATM   17  N2  UNL     1      49.740  47.664   6.156  1.00  0.00    -0.336 N 
ATOM     18  H22 UNL     1      48.843  47.398   6.562  1.00  0.00     0.168 HD
ATOM     19  H21 UNL     1      50.654  47.514   6.584  1.00  0.00     0.168 HD
ENDBRANCH  14  17
ENDBRANCH  12  14
ENDBRANCH  11  12
TORSDOF 3
ENDMDL
MODEL 3
REMARK VINA RESULT: -6.360988094      8.156      9.710
REMARK  3 active torsions:
REMARK  status: ('A' for Active; 'I' for Inactive)
REMARK    1  A    between atoms: C11_11  and  N1_12 
REMARK    2  A    between atoms: N1_12  and  S1_14 
REMARK    3  A    between atoms: S1_14  and  N2_15 
ROOT
HETATM    1  C1  UNL     1      44.730  42.556  10.257  1.00  0.00     0.015 C 
HETATM    2  C2  UNL     1      46.024  42.893  10.929  1.00  0.00    -0.040 C 
HETATM    3  C3  UNL     1      46.220  41.901  12.025  1.00  0.00     0.015 C 
HETATM    4  C4  UNL     1      46.082  44.333  11.406  1.00  0.00    -0.005 C 
HETATM    5  C5  UNL     1      47.393  44.585  12.067  1.00  0.00     0.012 C 
HETATM    6  C6  UNL     1      48.595  44.238  11.245  1.00  0.00     0.010 C 
HETATM    7  C7  UNL     1      48.485  42.803  10.705  1.00  0.00     0.012 C 
HETATM    8  C8  UNL     1      47.195  42.911   9.946  1.00  0.00     0.000 C 
HETATM    9  C9  UNL     1      47.236  44.346   9.388  1.00  0.00     0.014 C 
HETATM   10  C10 UNL     1      46.085  45.050  10.069  1.00  0.00     0.012 C 
HETATM   11  C11 UNL     1      48.515  44.929   9.873  1.00  0.00     0.100 C 
ENDROOT
BRANCH  11  12
HETATM   12  N1  UNL     1      48.659  46.322   9.903  1.00  0.00    -0.322 N 
ATOM     13  H1  UNL     1      47.888  46.982   9.803  1.00  0.00     0.171 HD
BRANCH  12  14
HETATM   14  S1  UNL     1      50.337  46.784  10.134  1.00  0.00     0.169 S 
HETATM   15  O1  UNL     1      51.249  45.720   9.626  1.00  0.00    -0.216 OA
HETATM   16  S2  UNL     1      50.629  48.204   9.218  1.00  0.00     0.051 SA
BRANCH  14  17
HETATM   17  N2  UNL     1      50.630  47.164  11.795  1.00  0.00    -0.336 N 
ATOM     18  H22 UNL     1      51.208  47.943  12.108  1.00  0.00     0.168 HD
ATOM     19  H21 UNL     1      50.145  46.501  12.400  1.00  0.00     0.168 HD
ENDBRANCH  14  17
ENDBRANCH  12  14
ENDBRANCH  11  12
TORSDOF 3
ENDMDL
MODEL 4
REMARK VINA RESULT: -6.342663832      5.351      6.514
REMARK  3 active torsions:
REMARK  status: ('A' for Active; 'I' for Inactive)
REMARK    1  A    between atoms: C11_11  and  N1_12 
REMARK    2  A    between atoms: N1_12  and  S1_14 
REMARK    3  A    between atoms: S1_14  and  N2_15 
ROOT
HETATM    1  C1  UNL     1      46.725  51.309   4.506  1.00  0.00     0.015 C 
HETATM    2  C2  UNL     1      45.380  51.063   5.113  1.00  0.00    -0.040 C 
HETATM    3  C3  UNL     1      44.364  51.360   4.063  1.00  0.00     0.015 C 
HETATM    4  C4  UNL     1      45.161  51.843   6.396  1.00  0.00    -0.005 C 
HETATM    5  C5  UNL     1      43.802  51.550   6.932  1.00  0.00     0.012 C 
HETATM    6  C6  UNL     1      43.496  50.097   7.123  1.00  0.00     0.010 C 
HETATM    7  C7  UNL     1      43.796  49.307   5.839  1.00  0.00     0.012 C 
HETATM    8  C8  UNL     1      45.248  49.642   5.663  1.00  0.00     0.000 C 
HETATM    9  C9  UNL     1      45.768  49.716   7.111  1.00  0.00     0.014 C 
HETATM   10  C10 UNL     1      46.176  51.160   7.293  1.00  0.00     0.012 C 
HETATM   11  C11 UNL     1      44.591  49.433   7.975  1.00  0.00     0.100 C 
ENDROOT
BRANCH  11  12
HETATM   12  N1  UNL     1      44.620  49.835   9.317  1.00  0.00    -0.322 N 
ATOM     13  H1  UNL     1      44.323  50.752   9.650  1.00  0.00     0.171 HD
BRANCH  12  14
HETATM   14  S1  UNL     1      45.237  48.556  10.350  1.00  0.00     0.169 S 
HETATM   15  O1  UNL     1      45.480  47.315   9.561  1.00  0.00    -0.216 OA
HETATM   16  S2  UNL     1      46.743  49.071  10.991  1.00  0.00     0.051 SA
BRANCH  14  17
HETATM   17  N2  UNL     1      44.165  48.292  11.680  1.00  0.00    -0.336 N 
ATOM     18  H22 UNL     1      43.164  48.485  11.653  1.00  0.00     0.168 HD
ATOM     19  H21 UNL     1      44.679  47.921  12.480  1.00  0.00     0.168 HD
ENDBRANCH  14  17
ENDBRANCH  12  14
ENDBRANCH  11  12
TORSDOF 3
ENDMDL
MODEL 5
REMARK VINA RESULT: -6.307190428      8.314      9.553
REMARK  3 active torsions:
REMARK  status: ('A' for Active; 'I' for Inactive)
REMARK    1  A    between atoms: C11_11  and  N1_12 
REMARK    2  A    between atoms: N1_12  and  S1_14 
REMARK    3  A    between atoms: S1_14  and  N2_15 
ROOT
HETATM    1  C1  UNL     1      48.905  48.335  13.272  1.00  0.00     0.015 C 
HETATM    2  C2  UNL     1      47.917  48.083  12.177  1.00  0.00    -0.040 C 
HETATM    3  C3  UNL     1      47.870  49.315  11.338  1.00  0.00     0.015 C 
HETATM    4  C4  UNL     1      46.556  47.660  12.698  1.00  0.00    -0.005 C 
HETATM    5  C5  UNL     1      45.632  47.437  11.551  1.00  0.00     0.012 C 
HETATM    6  C6  UNL     1      46.132  46.485  10.509  1.00  0.00     0.010 C 
HETATM    7  C7  UNL     1      47.543  46.882  10.047  1.00  0.00     0.012 C 
HETATM    8  C8  UNL     1      48.267  46.838  11.361  1.00  0.00     0.000 C 
HETATM    9  C9  UNL     1      47.589  45.666  12.095  1.00  0.00     0.014 C 
HETATM   10  C10 UNL     1      46.911  46.307  13.284  1.00  0.00     0.012 C 
HETATM   11  C11 UNL     1      46.549  45.157  11.162  1.00  0.00     0.100 C 
ENDROOT
BRANCH  11  12
HETATM   12  N1  UNL     1      45.492  44.393  11.674  1.00  0.00    -0.322 N 
ATOM     13  H1  UNL     1      44.781  44.748  12.313  1.00  0.00     0.171 HD
BRANCH  12  14
HETATM   14  S1  UNL     1      45.550  42.743  11.074  1.00  0.00     0.169 S 
HETATM   15  O1  UNL     1      46.077  42.710   9.680  1.00  0.00    -0.216 OA
HETATM   16  S2  UNL     1      46.635  41.856  12.064  1.00  0.00     0.051 SA
BRANCH  14  17
HETATM   17  N2  UNL     1      43.995  42.002  11.208  1.00  0.00    -0.336 N 
ATOM     18  H22 UNL     1      43.180  42.457  11.619  1.00  0.00     0.168 HD
ATOM     19  H21 UNL     1      44.018  41.059  10.821  1.00  0.00     0.168 HD
ENDBRANCH  14  17
ENDBRANCH  12  14
ENDBRANCH  11  12
TORSDOF 3
ENDMDL
