MODEL 1
REMARK VINA RESULT: -5.966413841      0.000      0.000
REMARK  4 active torsions:
REMARK  status: ('A' for Active; 'I' for Inactive)
REMARK    1  A    between atoms: C2_2  and  O1_3 
REMARK    2  A    between atoms: C2_2  and  C3_5 
REMARK       I    between atoms: N1_7  and  C5_8 
REMARK       I    between atoms: C5_8  and  N2_10 
REMARK    3  A    between atoms: N2_10  and  C6_12 
REMARK    4  A    between atoms: C6_12  and  C7_13 
ROOT
HETATM    1  C3  UNL     1       9.043   8.160  10.826  1.00  0.00     0.231 C 
HETATM    2  C4  UNL     1       7.558   8.017  10.729  1.00  0.00     0.163 C 
HETATM    3  N1  UNL     1       6.969   7.641  12.012  1.00  0.00    -0.332 N 
HETATM    4  C5  UNL     1       5.785   6.875  11.889  1.00  0.00     0.318 C 
HETATM    5  O2  UNL     1       5.336   6.581  10.760  1.00  0.00    -0.247 OA
HETATM    6  N2  UNL     1       5.118   6.448  13.062  1.00  0.00    -0.343 N 
ATOM      7  H2  UNL     1       5.505   6.699  13.972  1.00  0.00     0.164 HD
HETATM    8  C13 UNL     1       7.382   7.914  13.361  1.00  0.00     0.129 C 
HETATM    9  C14 UNL     1       8.618   8.741  13.468  1.00  0.00     0.047 C 
HETATM   10  C15 UNL     1       8.710   9.864  12.488  1.00  0.00     0.234 C 
HETATM   11  N3  UNL     1       9.338   9.510  11.245  1.00  0.00    -0.067 N 
ATOM     12  H31 UNL     1       9.097  10.178  10.513  1.00  0.00     0.277 HD
ATOM     13  H32 UNL     1      10.345   9.666  11.289  1.00  0.00     0.277 HD
ENDROOT
BRANCH   1  14
HETATM   14  C2  UNL     1       9.741   7.919   9.507  1.00  0.00     0.146 C 
HETATM   15  C1  UNL     1      11.157   7.471   9.791  1.00  0.00     0.041 C 
BRANCH  14  16
HETATM   16  O1  UNL     1       9.788   9.064   8.726  1.00  0.00    -0.394 OA
ATOM     17  H1  UNL     1       8.902   9.386   8.608  1.00  0.00     0.210 HD
ENDBRANCH  14  16
ENDBRANCH   1  14
BRANCH   6  18
HETATM   18  C6  UNL     1       3.919   5.677  13.009  1.00  0.00     0.129 C 
BRANCH  18  19
HETATM   19  C7  UNL     1       2.812   6.160  13.918  1.00  0.00     0.003 C 
HETATM   20  C8  UNL     1       1.756   5.044  13.901  1.00  0.00     0.006 C 
HETATM   21  C9  UNL     1       0.627   5.388  14.844  1.00  0.00     0.000 C 
HETATM   22  C10 UNL     1       1.081   5.651  16.241  1.00  0.00     0.000 C 
HETATM   23  C11 UNL     1       2.307   6.491  16.353  1.00  0.00     0.000 C 
HETATM   24  C12 UNL     1       3.364   6.179  15.327  1.00  0.00     0.006 C 
ENDBRANCH  18  19
ENDBRANCH   6  18
TORSDOF 4
ENDMDL
MODEL 2
REMARK VINA RESULT: -5.861467401      0.631      1.275
REMARK  4 active torsions:
REMARK  status: ('A' for Active; 'I' for Inactive)
REMARK    1  A    between atoms: C2_2  and  O1_3 
REMARK    2  A    between atoms: C2_2  and  C3_5 
REMARK       I    between atoms: N1_7  and  C5_8 
REMARK       I    between atoms: C5_8  and  N2_10 
REMARK    3  A    between atoms: N2_10  and  C6_12 
REMARK    4  A    between atoms: C6_12  and  C7_13 
ROOT
HETATM    1  C3  UNL     1       9.263   8.232  10.693  1.00  0.00     0.231 C 
HETATM    2  C4  UNL     1       7.781   8.035  10.734  1.00  0.00     0.163 C 
HETATM    3  N1  UNL     1       7.321   7.698  12.080  1.00  0.00    -0.332 N 
HETATM    4  C5  UNL     1       6.160   6.888  12.095  1.00  0.00     0.318 C 
HETATM    5  O2  UNL     1       5.626   6.527  11.024  1.00  0.00    -0.247 OA
HETATM    6  N2  UNL     1       5.615   6.493  13.341  1.00  0.00    -0.343 N 
ATOM      7  H2  UNL     1       6.071   6.800  14.201  1.00  0.00     0.164 HD
HETATM    8  C13 UNL     1       7.840   8.047  13.373  1.00  0.00     0.129 C 
HETATM    9  C14 UNL     1       9.048   8.920  13.335  1.00  0.00     0.047 C 
HETATM   10  C15 UNL     1       9.012   9.999  12.302  1.00  0.00     0.234 C 
HETATM   11  N3  UNL     1       9.541   9.610  11.025  1.00  0.00    -0.067 N 
ATOM     12  H31 UNL     1       9.213  10.235  10.289  1.00  0.00     0.277 HD
ATOM     13  H32 UNL     1      10.542   9.801  10.973  1.00  0.00     0.277 HD
ENDROOT
BRANCH   1  14
HETATM   14  C2  UNL     1       9.851   7.955   9.329  1.00  0.00     0.146 C 
HETATM   15  C1  UNL     1      11.292   7.531   9.507  1.00  0.00     0.041 C 
BRANCH  14  16
HETATM   16  O1  UNL     1       9.818   9.072   8.509  1.00  0.00    -0.394 OA
ATOM     17  H1  UNL     1       9.219   8.903   7.791  1.00  0.00     0.210 HD
ENDBRANCH  14  16
ENDBRANCH   1  14
BRANCH   6  18
HETATM   18  C6  UNL     1       4.447   5.681  13.428  1.00  0.00     0.129 C 
BRANCH  18  19
HETATM   19  C7  UNL     1       3.777   5.672  14.783  1.00  0.00     0.003 C 
HETATM   20  C8  UNL     1       3.741   7.141  15.229  1.00  0.00     0.006 C 
HETATM   21  C9  UNL     1       3.018   7.262  16.549  1.00  0.00     0.000 C 
HETATM   22  C10 UNL     1       1.639   6.695  16.523  1.00  0.00     0.000 C 
HETATM   23  C11 UNL     1       1.514   5.383  15.826  1.00  0.00     0.000 C 
HETATM   24  C12 UNL     1       2.333   5.275  14.567  1.00  0.00     0.006 C 
ENDBRANCH  18  19
ENDBRANCH   6  18
TORSDOF 4
ENDMDL
MODEL 3
REMARK VINA RESULT: -5.820642926      3.016      8.727
REMARK  4 active torsions:
REMARK  status: ('A' for Active; 'I' for Inactive)
REMARK    1  A    between atoms: C2_2  and  O1_3 
REMARK    2  A    between atoms: C2_2  and  C3_5 
REMARK       I    between atoms: N1_7  and  C5_8 
REMARK       I    between atoms: C5_8  and  N2_10 
REMARK    3  A    between atoms: N2_10  and  C6_12 
REMARK    4  A    between atoms: C6_12  and  C7_13 
ROOT
HETATM    1  C3  UNL     1       6.685   7.936  11.729  1.00  0.00     0.231 C 
HETATM    2  C4  UNL     1       8.018   7.557  11.171  1.00  0.00     0.163 C 
HETATM    3  N1  UNL     1       8.927   8.701  11.127  1.00  0.00    -0.332 N 
HETATM    4  C5  UNL     1       9.878   8.630  10.081  1.00  0.00     0.318 C 
HETATM    5  O2  UNL     1       9.887   7.653   9.300  1.00  0.00    -0.247 OA
HETATM    6  N2  UNL     1      10.816   9.679   9.933  1.00  0.00    -0.343 N 
ATOM      7  H2  UNL     1      10.786  10.466  10.582  1.00  0.00     0.164 HD
HETATM    8  C13 UNL     1       9.019   9.870  11.957  1.00  0.00     0.129 C 
HETATM    9  C14 UNL     1       8.024   9.914  13.067  1.00  0.00     0.047 C 
HETATM   10  C15 UNL     1       7.790   8.609  13.754  1.00  0.00     0.234 C 
HETATM   11  N3  UNL     1       6.749   7.813  13.167  1.00  0.00    -0.067 N 
ATOM     12  H31 UNL     1       6.837   6.836  13.445  1.00  0.00     0.277 HD
ATOM     13  H32 UNL     1       5.845   8.026  13.591  1.00  0.00     0.277 HD
ENDROOT
BRANCH   1  14
HETATM   14  C2  UNL     1       5.570   7.042  11.236  1.00  0.00     0.146 C 
HETATM   15  C1  UNL     1       4.527   6.934  12.325  1.00  0.00     0.041 C 
BRANCH  14  16
HETATM   16  O1  UNL     1       6.020   5.768  10.928  1.00  0.00    -0.394 OA
ATOM     17  H1  UNL     1       6.844   5.843  10.462  1.00  0.00     0.210 HD
ENDBRANCH  14  16
ENDBRANCH   1  14
BRANCH   6  18
HETATM   18  C6  UNL     1      11.802   9.668   8.902  1.00  0.00     0.129 C 
BRANCH  18  19
HETATM   19  C7  UNL     1      11.461  10.500   7.687  1.00  0.00     0.003 C 
HETATM   20  C8  UNL     1      10.741  11.742   8.232  1.00  0.00     0.006 C 
HETATM   21  C9  UNL     1      10.418  12.689   7.102  1.00  0.00     0.000 C 
HETATM   22  C10 UNL     1      11.614  13.092   6.306  1.00  0.00     0.000 C 
HETATM   23  C11 UNL     1      12.554  11.980   5.981  1.00  0.00     0.000 C 
HETATM   24  C12 UNL     1      12.765  11.005   7.109  1.00  0.00     0.006 C 
ENDBRANCH  18  19
ENDBRANCH   6  18
TORSDOF 4
ENDMDL
MODEL 4
REMARK VINA RESULT: -5.755205933      1.287      1.783
REMARK  4 active torsions:
REMARK  status: ('A' for Active; 'I' for Inactive)
REMARK    1  A    between atoms: C2_2  and  O1_3 
REMARK    2  A    between atoms: C2_2  and  C3_5 
REMARK       I    between atoms: N1_7  and  C5_8 
REMARK       I    between atoms: C5_8  and  N2_10 
REMARK    3  A    between atoms: N2_10  and  C6_12 
REMARK    4  A    between atoms: C6_12  and  C7_13 
ROOT
HETATM    1  C3  UNL     1       8.745   8.826  12.117  1.00  0.00     0.231 C 
HETATM    2  C4  UNL     1       7.450   8.143  11.810  1.00  0.00     0.163 C 
HETATM    3  N1  UNL     1       6.739   7.768  13.030  1.00  0.00    -0.332 N 
HETATM    4  C5  UNL     1       5.928   6.617  12.881  1.00  0.00     0.318 C 
HETATM    5  O2  UNL     1       5.870   6.021  11.784  1.00  0.00    -0.247 OA
HETATM    6  N2  UNL     1       5.186   6.151  13.993  1.00  0.00    -0.343 N 
ATOM      7  H2  UNL     1       5.252   6.654  14.879  1.00  0.00     0.164 HD
HETATM    8  C13 UNL     1       6.720   8.363  14.337  1.00  0.00     0.129 C 
HETATM    9  C14 UNL     1       7.561   9.588  14.466  1.00  0.00     0.047 C 
HETATM   10  C15 UNL     1       7.506  10.515  13.296  1.00  0.00     0.234 C 
HETATM   11  N3  UNL     1       8.481  10.237  12.278  1.00  0.00    -0.067 N 
ATOM     12  H31 UNL     1       8.211  10.660  11.390  1.00  0.00     0.277 HD
ATOM     13  H32 UNL     1       9.345  10.751  12.452  1.00  0.00     0.277 HD
ENDROOT
BRANCH   1  14
HETATM   14  C2  UNL     1       9.765   8.667  11.013  1.00  0.00     0.146 C 
HETATM   15  C1  UNL     1       9.093   8.000   9.834  1.00  0.00     0.041 C 
BRANCH  14  16
HETATM   16  O1  UNL     1      10.842   7.888  11.406  1.00  0.00    -0.394 OA
ATOM     17  H1  UNL     1      10.657   7.529  12.266  1.00  0.00     0.210 HD
ENDBRANCH  14  16
ENDBRANCH   1  14
BRANCH   6  18
HETATM   18  C6  UNL     1       4.349   5.000  13.911  1.00  0.00     0.129 C 
BRANCH  18  19
HETATM   19  C7  UNL     1       3.144   5.024  14.824  1.00  0.00     0.003 C 
HETATM   20  C8  UNL     1       3.220   6.367  15.564  1.00  0.00     0.006 C 
HETATM   21  C9  UNL     1       2.013   6.534  16.456  1.00  0.00     0.000 C 
HETATM   22  C10 UNL     1       0.716   6.417  15.726  1.00  0.00     0.000 C 
HETATM   23  C11 UNL     1       0.652   5.303  14.738  1.00  0.00     0.000 C 
HETATM   24  C12 UNL     1       1.917   5.112  13.943  1.00  0.00     0.006 C 
ENDBRANCH  18  19
ENDBRANCH   6  18
TORSDOF 4
ENDMDL
MODEL 5
REMARK VINA RESULT: -5.744819240      3.112      8.838
REMARK  4 active torsions:
REMARK  status: ('A' for Active; 'I' for Inactive)
REMARK    1  A    between atoms: C2_2  and  O1_3 
REMARK    2  A    between atoms: C2_2  and  C3_5 
REMARK       I    between atoms: N1_7  and  C5_8 
REMARK       I    between atoms: C5_8  and  N2_10 
REMARK    3  A    between atoms: N2_10  and  C6_12 
REMARK    4  A    between atoms: C6_12  and  C7_13 
ROOT
HETATM    1  C3  UNL     1       6.671   7.960  11.719  1.00  0.00     0.231 C 
HETATM    2  C4  UNL     1       7.999   7.609  11.129  1.00  0.00     0.163 C 
HETATM    3  N1  UNL     1       8.888   8.767  11.079  1.00  0.00    -0.332 N 
HETATM    4  C5  UNL     1       9.818   8.722  10.013  1.00  0.00     0.318 C 
HETATM    5  O2  UNL     1       9.827   7.755   9.222  1.00  0.00    -0.247 OA
HETATM    6  N2  UNL     1      10.736   9.789   9.857  1.00  0.00    -0.343 N 
ATOM      7  H2  UNL     1      10.707  10.568  10.515  1.00  0.00     0.164 HD
HETATM    8  C13 UNL     1       8.978   9.929  11.920  1.00  0.00     0.129 C 
HETATM    9  C14 UNL     1       8.006   9.945  13.051  1.00  0.00     0.047 C 
HETATM   10  C15 UNL     1       7.807   8.629  13.728  1.00  0.00     0.234 C 
HETATM   11  N3  UNL     1       6.767   7.823  13.154  1.00  0.00    -0.067 N 
ATOM     12  H31 UNL     1       6.876   6.844  13.419  1.00  0.00     0.277 HD
ATOM     13  H32 UNL     1       5.869   8.017  13.598  1.00  0.00     0.277 HD
ENDROOT
BRANCH   1  14
HETATM   14  C2  UNL     1       5.560   7.054  11.239  1.00  0.00     0.146 C 
HETATM   15  C1  UNL     1       4.523   6.947  12.334  1.00  0.00     0.041 C 
BRANCH  14  16
HETATM   16  O1  UNL     1       6.019   5.780  10.940  1.00  0.00    -0.394 OA
ATOM     17  H1  UNL     1       6.964   5.813  10.847  1.00  0.00     0.210 HD
ENDBRANCH  14  16
ENDBRANCH   1  14
BRANCH   6  18
HETATM   18  C6  UNL     1      11.700   9.804   8.807  1.00  0.00     0.129 C 
BRANCH  18  19
HETATM   19  C7  UNL     1      11.925  11.157   8.170  1.00  0.00     0.003 C 
HETATM   20  C8  UNL     1      12.631  10.867   6.837  1.00  0.00     0.006 C 
HETATM   21  C9  UNL     1      12.838  12.153   6.073  1.00  0.00     0.000 C 
HETATM   22  C10 UNL     1      11.576  12.911   5.836  1.00  0.00     0.000 C 
HETATM   23  C11 UNL     1      10.661  12.988   7.010  1.00  0.00     0.000 C 
HETATM   24  C12 UNL     1      10.566  11.709   7.800  1.00  0.00     0.006 C 
ENDBRANCH  18  19
ENDBRANCH   6  18
TORSDOF 4
ENDMDL
