MODEL 1
REMARK VINA RESULT: -6.229599428      0.000      0.000
REMARK  3 active torsions:
REMARK  status: ('A' for Active; 'I' for Inactive)
REMARK    1  A    between atoms: C2_7  and  C3_8 
REMARK    2  A    between atoms: C3_8  and  C4_9 
REMARK    3  A    between atoms: C4_9  and  C5_10 
ROOT
HETATM    1  C3  UNL     1       5.645   6.019  14.419  1.00  0.00     0.069 C 
ENDROOT
BRANCH   1   2
HETATM    2  C2  UNL     1       6.029   6.555  13.127  1.00  0.00     0.094 A 
HETATM    3  N2  UNL     1       7.199   7.260  13.104  1.00  0.00    -0.295 N 
HETATM    4  N1  UNL     1       7.660   7.798  11.995  1.00  0.00    -0.251 N 
ATOM      5  H2  UNL     1       7.729   7.373  13.968  1.00  0.00     0.187 HD
HETATM    6  C1  UNL     1       6.984   7.664  10.851  1.00  0.00     0.341 A 
ATOM      7  H1  UNL     1       8.536   8.320  12.008  1.00  0.00     0.191 HD
HETATM    8  O1  UNL     1       7.451   8.192   9.800  1.00  0.00    -0.245 OA
HETATM    9  N4  UNL     1       5.831   6.980  10.825  1.00  0.00    -0.273 N 
HETATM   10  C14 UNL     1       5.342   6.423  11.944  1.00  0.00     0.273 A 
ATOM     11  H4  UNL     1       5.322   6.883   9.947  1.00  0.00     0.173 HD
HETATM   12  O2  UNL     1       4.273   5.774  11.983  1.00  0.00    -0.266 OA
ENDBRANCH   1   2
BRANCH   1  13
HETATM   13  C4  UNL     1       5.242   6.967  15.472  1.00  0.00     0.047 C 
BRANCH  13  14
HETATM   14  C5  UNL     1       3.907   7.540  15.062  1.00  0.00    -0.034 A 
HETATM   15  C6  UNL     1       3.621   8.821  14.638  1.00  0.00     0.095 A 
HETATM   16  N3  UNL     1       2.305   8.872  14.384  1.00  0.00    -0.368 N 
HETATM   17  C7  UNL     1       1.707   7.701  14.615  1.00  0.00     0.016 A 
ATOM     18  H3  UNL     1       1.819   9.706  14.055  1.00  0.00     0.165 HD
HETATM   19  C8  UNL     1       2.722   6.855  15.045  1.00  0.00    -0.024 A 
HETATM   20  C12 UNL     1       0.324   7.174  14.515  1.00  0.00     0.062 C 
HETATM   21  C9  UNL     1       2.320   5.464  15.376  1.00  0.00     0.022 C 
HETATM   22  C10 UNL     1       1.062   5.523  16.214  1.00  0.00     0.014 C 
HETATM   23  C13 UNL     1       1.433   4.996  14.215  1.00  0.00     0.014 C 
HETATM   24  C11 UNL     1       0.289   5.726  14.928  1.00  0.00    -0.008 C 
ENDBRANCH  13  14
ENDBRANCH   1  13
TORSDOF 3
ENDMDL
MODEL 2
REMARK VINA RESULT: -6.046109176      1.183      1.534
REMARK  3 active torsions:
REMARK  status: ('A' for Active; 'I' for Inactive)
REMARK    1  A    between atoms: C2_7  and  C3_8 
REMARK    2  A    between atoms: C3_8  and  C4_9 
REMARK    3  A    between atoms: C4_9  and  C5_10 
ROOT
HETATM    1  C3  UNL     1       6.019   6.032  14.600  1.00  0.00     0.069 C 
ENDROOT
BRANCH   1   2
HETATM    2  C2  UNL     1       6.445   6.627  13.348  1.00  0.00     0.094 A 
HETATM    3  N2  UNL     1       5.862   6.115  12.222  1.00  0.00    -0.295 N 
HETATM    4  N1  UNL     1       6.161   6.568  11.023  1.00  0.00    -0.251 N 
ATOM      5  H2  UNL     1       5.178   5.364  12.314  1.00  0.00     0.187 HD
HETATM    6  C1  UNL     1       7.052   7.551  10.878  1.00  0.00     0.341 A 
ATOM      7  H1  UNL     1       5.710   6.166  10.201  1.00  0.00     0.191 HD
HETATM    8  O1  UNL     1       7.319   7.966   9.713  1.00  0.00    -0.245 OA
HETATM    9  N4  UNL     1       7.649   8.084  11.953  1.00  0.00    -0.273 N 
HETATM   10  C14 UNL     1       7.360   7.639  13.186  1.00  0.00     0.273 A 
ATOM     11  H4  UNL     1       8.329   8.835  11.833  1.00  0.00     0.173 HD
HETATM   12  O2  UNL     1       7.884   8.095  14.227  1.00  0.00    -0.266 OA
ENDBRANCH   1   2
BRANCH   1  13
HETATM   13  C4  UNL     1       5.399   6.907  15.610  1.00  0.00     0.047 C 
BRANCH  13  14
HETATM   14  C5  UNL     1       4.129   7.452  15.001  1.00  0.00    -0.034 A 
HETATM   15  C6  UNL     1       3.908   8.703  14.464  1.00  0.00     0.095 A 
HETATM   16  N3  UNL     1       2.634   8.736  14.046  1.00  0.00    -0.368 N 
HETATM   17  C7  UNL     1       2.003   7.582  14.275  1.00  0.00     0.016 A 
ATOM     18  H3  UNL     1       2.198   9.547  13.606  1.00  0.00     0.165 HD
HETATM   19  C8  UNL     1       2.951   6.766  14.881  1.00  0.00    -0.024 A 
HETATM   20  C12 UNL     1       0.639   7.049  14.038  1.00  0.00     0.062 C 
HETATM   21  C9  UNL     1       2.500   5.400  15.247  1.00  0.00     0.022 C 
HETATM   22  C10 UNL     1       1.149   5.511  15.918  1.00  0.00     0.014 C 
HETATM   23  C13 UNL     1       1.761   4.857  14.018  1.00  0.00     0.014 C 
HETATM   24  C11 UNL     1       0.543   5.631  14.535  1.00  0.00    -0.008 C 
ENDBRANCH  13  14
ENDBRANCH   1  13
TORSDOF 3
ENDMDL
MODEL 3
REMARK VINA RESULT: -5.968986794      3.331      3.901
REMARK  3 active torsions:
REMARK  status: ('A' for Active; 'I' for Inactive)
REMARK    1  A    between atoms: C2_7  and  C3_8 
REMARK    2  A    between atoms: C3_8  and  C4_9 
REMARK    3  A    between atoms: C4_9  and  C5_10 
ROOT
HETATM    1  C3  UNL     1       6.908   6.343  15.293  1.00  0.00     0.069 C 
ENDROOT
BRANCH   1   2
HETATM    2  C2  UNL     1       8.215   5.724  15.391  1.00  0.00     0.094 A 
HETATM    3  N2  UNL     1       8.239   4.479  15.956  1.00  0.00    -0.295 N 
HETATM    4  N1  UNL     1       9.362   3.809  16.103  1.00  0.00    -0.251 N 
ATOM      5  H2  UNL     1       7.365   4.059  16.271  1.00  0.00     0.187 HD
HETATM    6  C1  UNL     1      10.519   4.337  15.698  1.00  0.00     0.341 A 
ATOM      7  H1  UNL     1       9.349   2.881  16.529  1.00  0.00     0.191 HD
HETATM    8  O1  UNL     1      11.583   3.669  15.852  1.00  0.00    -0.245 OA
HETATM    9  N4  UNL     1      10.545   5.555  15.138  1.00  0.00    -0.273 N 
HETATM   10  C14 UNL     1       9.413   6.258  14.977  1.00  0.00     0.273 A 
ATOM     11  H4  UNL     1      11.433   5.951  14.832  1.00  0.00     0.173 HD
HETATM   12  O2  UNL     1       9.372   7.397  14.463  1.00  0.00    -0.266 OA
ENDBRANCH   1   2
BRANCH   1  13
HETATM   13  C4  UNL     1       5.866   5.645  14.520  1.00  0.00     0.047 C 
BRANCH  13  14
HETATM   14  C5  UNL     1       4.733   6.624  14.323  1.00  0.00    -0.034 A 
HETATM   15  C6  UNL     1       4.805   7.947  13.942  1.00  0.00     0.095 A 
HETATM   16  N3  UNL     1       3.549   8.417  13.899  1.00  0.00    -0.368 N 
HETATM   17  C7  UNL     1       2.655   7.483  14.230  1.00  0.00     0.016 A 
ATOM     18  H3  UNL     1       3.307   9.375  13.645  1.00  0.00     0.165 HD
HETATM   19  C8  UNL     1       3.405   6.344  14.500  1.00  0.00    -0.024 A 
HETATM   20  C12 UNL     1       1.178   7.420  14.355  1.00  0.00     0.062 C 
HETATM   21  C9  UNL     1       2.640   5.136  14.899  1.00  0.00     0.022 C 
HETATM   22  C10 UNL     1       1.608   5.548  15.926  1.00  0.00     0.014 C 
HETATM   23  C13 UNL     1       1.484   5.019  13.898  1.00  0.00     0.014 C 
HETATM   24  C11 UNL     1       0.752   6.038  14.778  1.00  0.00    -0.008 C 
ENDBRANCH  13  14
ENDBRANCH   1  13
TORSDOF 3
ENDMDL
MODEL 4
REMARK VINA RESULT: -5.904215330      2.854      7.270
REMARK  3 active torsions:
REMARK  status: ('A' for Active; 'I' for Inactive)
REMARK    1  A    between atoms: C2_7  and  C3_8 
REMARK    2  A    between atoms: C3_8  and  C4_9 
REMARK    3  A    between atoms: C4_9  and  C5_10 
ROOT
HETATM    1  C3  UNL     1       6.314   6.410  11.379  1.00  0.00     0.069 C 
ENDROOT
BRANCH   1   2
HETATM    2  C2  UNL     1       5.463   6.120  12.517  1.00  0.00     0.094 A 
HETATM    3  N2  UNL     1       4.131   5.987  12.241  1.00  0.00    -0.295 N 
HETATM    4  N1  UNL     1       3.253   5.724  13.185  1.00  0.00    -0.251 N 
ATOM      5  H2  UNL     1       3.810   6.095  11.279  1.00  0.00     0.187 HD
HETATM    6  C1  UNL     1       3.649   5.578  14.451  1.00  0.00     0.341 A 
ATOM      7  H1  UNL     1       2.264   5.631  12.948  1.00  0.00     0.191 HD
HETATM    8  O1  UNL     1       2.782   5.325  15.337  1.00  0.00    -0.245 OA
HETATM    9  N4  UNL     1       4.946   5.699  14.770  1.00  0.00    -0.273 N 
HETATM   10  C14 UNL     1       5.860   5.967  13.825  1.00  0.00     0.273 A 
ATOM     11  H4  UNL     1       5.240   5.586  15.740  1.00  0.00     0.173 HD
HETATM   12  O2  UNL     1       7.082   6.092  14.059  1.00  0.00    -0.266 OA
ENDBRANCH   1   2
BRANCH   1  13
HETATM   13  C4  UNL     1       6.283   7.771  10.818  1.00  0.00     0.047 C 
BRANCH  13  14
HETATM   14  C5  UNL     1       7.492   8.498  11.357  1.00  0.00    -0.034 A 
HETATM   15  C6  UNL     1       7.615   9.187  12.545  1.00  0.00     0.095 A 
HETATM   16  N3  UNL     1       8.866   9.666  12.599  1.00  0.00    -0.368 N 
HETATM   17  C7  UNL     1       9.575   9.334  11.518  1.00  0.00     0.016 A 
ATOM     18  H3  UNL     1       9.232  10.220  13.374  1.00  0.00     0.165 HD
HETATM   19  C8  UNL     1       8.705   8.592  10.729  1.00  0.00    -0.024 A 
HETATM   20  C12 UNL     1      10.959   9.570  11.039  1.00  0.00     0.062 C 
HETATM   21  C9  UNL     1       9.252   8.091   9.443  1.00  0.00     0.022 C 
HETATM   22  C10 UNL     1      10.002   9.223   8.776  1.00  0.00     0.014 C 
HETATM   23  C13 UNL     1      10.620   7.483   9.776  1.00  0.00     0.014 C 
HETATM   24  C11 UNL     1      11.162   8.914   9.698  1.00  0.00    -0.008 C 
ENDBRANCH  13  14
ENDBRANCH   1  13
TORSDOF 3
ENDMDL
MODEL 5
REMARK VINA RESULT: -5.873628849      3.382      4.898
REMARK  3 active torsions:
REMARK  status: ('A' for Active; 'I' for Inactive)
REMARK    1  A    between atoms: C2_7  and  C3_8 
REMARK    2  A    between atoms: C3_8  and  C4_9 
REMARK    3  A    between atoms: C4_9  and  C5_10 
ROOT
HETATM    1  C3  UNL     1       8.160   9.478  14.125  1.00  0.00     0.069 C 
ENDROOT
BRANCH   1   2
HETATM    2  C2  UNL     1       7.090  10.456  14.162  1.00  0.00     0.094 A 
HETATM    3  N2  UNL     1       7.109  11.390  13.164  1.00  0.00    -0.295 N 
HETATM    4  N1  UNL     1       6.194  12.333  13.084  1.00  0.00    -0.251 N 
ATOM      5  H2  UNL     1       7.850  11.356  12.465  1.00  0.00     0.187 HD
HETATM    6  C1  UNL     1       5.213  12.398  13.987  1.00  0.00     0.341 A 
ATOM      7  H1  UNL     1       6.234  13.017  12.327  1.00  0.00     0.191 HD
HETATM    8  O1  UNL     1       4.348  13.315  13.884  1.00  0.00    -0.245 OA
HETATM    9  N4  UNL     1       5.154  11.503  14.983  1.00  0.00    -0.273 N 
HETATM   10  C14 UNL     1       6.075  10.532  15.086  1.00  0.00     0.273 A 
ATOM     11  H4  UNL     1       4.401  11.561  15.669  1.00  0.00     0.173 HD
HETATM   12  O2  UNL     1       6.074   9.670  15.992  1.00  0.00    -0.266 OA
ENDBRANCH   1   2
BRANCH   1  13
HETATM   13  C4  UNL     1       8.076   8.394  13.131  1.00  0.00     0.047 C 
BRANCH  13  14
HETATM   14  C5  UNL     1       7.347   7.247  13.789  1.00  0.00    -0.034 A 
HETATM   15  C6  UNL     1       7.795   6.415  14.793  1.00  0.00     0.095 A 
HETATM   16  N3  UNL     1       6.809   5.545  15.057  1.00  0.00    -0.368 N 
HETATM   17  C7  UNL     1       5.738   5.755  14.288  1.00  0.00     0.016 A 
ATOM     18  H3  UNL     1       6.870   4.810  15.762  1.00  0.00     0.165 HD
HETATM   19  C8  UNL     1       6.078   6.835  13.483  1.00  0.00    -0.024 A 
HETATM   20  C12 UNL     1       4.399   5.135  14.136  1.00  0.00     0.062 C 
HETATM   21  C9  UNL     1       5.044   7.282  12.516  1.00  0.00     0.022 C 
HETATM   22  C10 UNL     1       4.475   6.058  11.833  1.00  0.00     0.014 C 
HETATM   23  C13 UNL     1       3.732   7.357  13.307  1.00  0.00     0.014 C 
HETATM   24  C11 UNL     1       3.617   5.848  13.063  1.00  0.00    -0.008 C 
ENDBRANCH  13  14
ENDBRANCH   1  13
TORSDOF 3
ENDMDL
