MODEL 1
REMARK VINA RESULT: -6.300078093      0.000      0.000
REMARK  4 active torsions:
REMARK  status: ('A' for Active; 'I' for Inactive)
REMARK    1  A    between atoms: C2_2  and  C4_4 
REMARK    2  A    between atoms: C7_12  and  N3_13 
REMARK    3  A    between atoms: N3_13  and  C8_15 
REMARK    4  A    between atoms: C8_15  and  C9_16 
ROOT
HETATM    1  C4  UNL     1       9.043   8.234  10.023  1.00  0.00     0.086 A 
HETATM    2  N1  UNL     1       9.148   8.932  11.167  1.00  0.00    -0.338 N 
ATOM      3  H1  UNL     1       9.961   9.486  11.435  1.00  0.00     0.167 HD
HETATM    4  C5  UNL     1       8.041   8.801  11.907  1.00  0.00     0.148 A 
HETATM    5  C6  UNL     1       7.605   9.274  13.130  1.00  0.00     0.290 A 
HETATM    6  O1  UNL     1       8.359  10.022  13.792  1.00  0.00    -0.265 OA
HETATM    7  N2  UNL     1       6.399   8.962  13.637  1.00  0.00    -0.154 N 
ATOM      8  H2  UNL     1       6.109   9.330  14.542  1.00  0.00     0.187 HD
HETATM    9  C7  UNL     1       5.581   8.162  12.937  1.00  0.00     0.682 A 
HETATM   10  N4  UNL     1       5.990   7.681  11.725  1.00  0.00    -0.174 N 
ATOM     11  H4  UNL     1       5.362   7.074  11.198  1.00  0.00     0.186 HD
HETATM   12  C14 UNL     1       7.187   7.982  11.207  1.00  0.00     0.155 A 
HETATM   13  N5  UNL     1       7.831   7.652  10.055  1.00  0.00    -0.329 N 
ATOM     14  H5  UNL     1       7.452   7.050   9.323  1.00  0.00     0.168 HD
ENDROOT
BRANCH   9  15
HETATM   15  N3  UNL     1       4.424   7.855  13.408  1.00  0.00    -0.226 N 
ATOM     16  H3  UNL     1       3.843   8.560  13.863  1.00  0.00     0.177 HD
BRANCH  15  17
HETATM   17  C8  UNL     1       3.963   6.494  13.281  1.00  0.00     0.142 C 
BRANCH  17  18
HETATM   18  C9  UNL     1       3.902   5.793  14.624  1.00  0.00     0.004 C 
HETATM   19  C10 UNL     1       2.644   4.985  14.659  1.00  0.00     0.006 C 
HETATM   20  C11 UNL     1       1.783   5.503  15.771  1.00  0.00     0.000 C 
HETATM   21  C12 UNL     1       2.427   6.742  16.302  1.00  0.00     0.000 C 
HETATM   22  C13 UNL     1       3.800   6.845  15.705  1.00  0.00     0.006 C 
ENDBRANCH  17  18
ENDBRANCH  15  17
ENDBRANCH   9  15
BRANCH   1  23
HETATM   23  C2  UNL     1      10.041   8.106   8.917  1.00  0.00     0.045 C 
HETATM   24  C1  UNL     1      11.359   7.617   9.432  1.00  0.00     0.017 C 
HETATM   25  C3  UNL     1      10.210   9.457   8.211  1.00  0.00     0.017 C 
ENDBRANCH   1  23
TORSDOF 4
ENDMDL
MODEL 2
REMARK VINA RESULT: -6.154508751      0.911      1.203
REMARK  4 active torsions:
REMARK  status: ('A' for Active; 'I' for Inactive)
REMARK    1  A    between atoms: C2_2  and  C4_4 
REMARK    2  A    between atoms: C7_12  and  N3_13 
REMARK    3  A    between atoms: N3_13  and  C8_15 
REMARK    4  A    between atoms: C8_15  and  C9_16 
ROOT
HETATM    1  C4  UNL     1       9.372   8.753  10.155  1.00  0.00     0.086 A 
HETATM    2  N1  UNL     1       9.012   9.196  11.373  1.00  0.00    -0.338 N 
ATOM      3  H1  UNL     1       9.541   9.874  11.922  1.00  0.00     0.167 HD
HETATM    4  C5  UNL     1       7.868   8.627  11.766  1.00  0.00     0.148 A 
HETATM    5  C6  UNL     1       7.058   8.700  12.884  1.00  0.00     0.290 A 
HETATM    6  O1  UNL     1       7.389   9.461  13.821  1.00  0.00    -0.265 OA
HETATM    7  N2  UNL     1       5.926   7.985  13.004  1.00  0.00    -0.154 N 
ATOM      8  H2  UNL     1       5.352   8.064  13.842  1.00  0.00     0.187 HD
HETATM    9  C7  UNL     1       5.560   7.165  12.007  1.00  0.00     0.682 A 
HETATM   10  N4  UNL     1       6.344   7.075  10.891  1.00  0.00    -0.174 N 
ATOM     11  H4  UNL     1       6.059   6.451  10.137  1.00  0.00     0.186 HD
HETATM   12  C14 UNL     1       7.474   7.781  10.757  1.00  0.00     0.155 A 
HETATM   13  N5  UNL     1       8.418   7.882   9.783  1.00  0.00    -0.329 N 
ATOM     14  H5  UNL     1       8.405   7.371   8.899  1.00  0.00     0.168 HD
ENDROOT
BRANCH   9  15
HETATM   15  N3  UNL     1       4.479   6.474  12.106  1.00  0.00    -0.226 N 
ATOM     16  H3  UNL     1       4.297   5.698  11.469  1.00  0.00     0.177 HD
BRANCH  15  17
HETATM   17  C8  UNL     1       3.529   6.818  13.136  1.00  0.00     0.142 C 
BRANCH  17  18
HETATM   18  C9  UNL     1       3.346   5.690  14.132  1.00  0.00     0.004 C 
HETATM   19  C10 UNL     1       1.945   5.186  13.997  1.00  0.00     0.006 C 
HETATM   20  C11 UNL     1       1.239   5.404  15.301  1.00  0.00     0.000 C 
HETATM   21  C12 UNL     1       2.146   6.204  16.179  1.00  0.00     0.000 C 
HETATM   22  C13 UNL     1       3.496   6.257  15.525  1.00  0.00     0.006 C 
ENDBRANCH  17  18
ENDBRANCH  15  17
ENDBRANCH   9  15
BRANCH   1  23
HETATM   23  C2  UNL     1      10.573   9.127   9.347  1.00  0.00     0.045 C 
HETATM   24  C1  UNL     1      10.176   9.733   8.037  1.00  0.00     0.017 C 
HETATM   25  C3  UNL     1      11.451   7.890   9.120  1.00  0.00     0.017 C 
ENDBRANCH   1  23
TORSDOF 4
ENDMDL
MODEL 3
REMARK VINA RESULT: -6.061703323      1.656      2.153
REMARK  4 active torsions:
REMARK  status: ('A' for Active; 'I' for Inactive)
REMARK    1  A    between atoms: C2_2  and  C4_4 
REMARK    2  A    between atoms: C7_12  and  N3_13 
REMARK    3  A    between atoms: N3_13  and  C8_15 
REMARK    4  A    between atoms: C8_15  and  C9_16 
ROOT
HETATM    1  C4  UNL     1       8.627   8.368  10.230  1.00  0.00     0.086 A 
HETATM    2  N1  UNL     1       7.565   7.555  10.103  1.00  0.00    -0.338 N 
ATOM      3  H1  UNL     1       7.377   6.970   9.288  1.00  0.00     0.167 HD
HETATM    4  C5  UNL     1       6.787   7.616  11.190  1.00  0.00     0.148 A 
HETATM    5  C6  UNL     1       5.609   7.020  11.600  1.00  0.00     0.290 A 
HETATM    6  O1  UNL     1       5.049   6.202  10.836  1.00  0.00    -0.265 OA
HETATM    7  N2  UNL     1       5.043   7.285  12.790  1.00  0.00    -0.154 N 
ATOM      8  H2  UNL     1       4.173   6.827  13.061  1.00  0.00     0.187 HD
HETATM    9  C7  UNL     1       5.634   8.160  13.617  1.00  0.00     0.682 A 
HETATM   10  N4  UNL     1       6.799   8.761  13.235  1.00  0.00    -0.174 N 
ATOM     11  H4  UNL     1       7.244   9.424  13.869  1.00  0.00     0.186 HD
HETATM   12  C14 UNL     1       7.376   8.508  12.054  1.00  0.00     0.155 A 
HETATM   13  N5  UNL     1       8.504   8.953  11.434  1.00  0.00    -0.329 N 
ATOM     14  H5  UNL     1       9.159   9.629  11.827  1.00  0.00     0.168 HD
ENDROOT
BRANCH   9  15
HETATM   15  N3  UNL     1       5.104   8.424  14.760  1.00  0.00    -0.226 N 
ATOM     16  H3  UNL     1       5.667   8.812  15.517  1.00  0.00     0.177 HD
BRANCH  15  17
HETATM   17  C8  UNL     1       3.699   8.159  14.949  1.00  0.00     0.142 C 
BRANCH  17  18
HETATM   18  C9  UNL     1       3.460   7.150  16.055  1.00  0.00     0.004 C 
HETATM   19  C10 UNL     1       2.987   5.881  15.422  1.00  0.00     0.006 C 
HETATM   20  C11 UNL     1       1.606   5.590  15.927  1.00  0.00     0.000 C 
HETATM   21  C12 UNL     1       1.159   6.769  16.729  1.00  0.00     0.000 C 
HETATM   22  C13 UNL     1       2.345   7.665  16.936  1.00  0.00     0.006 C 
ENDBRANCH  17  18
ENDBRANCH  15  17
ENDBRANCH   9  15
BRANCH   1  23
HETATM   23  C2  UNL     1       9.739   8.605   9.258  1.00  0.00     0.045 C 
HETATM   24  C1  UNL     1      10.794   7.550   9.376  1.00  0.00     0.017 C 
HETATM   25  C3  UNL     1      10.344   9.995   9.490  1.00  0.00     0.017 C 
ENDBRANCH   1  23
TORSDOF 4
ENDMDL
MODEL 4
REMARK VINA RESULT: -6.021178051      1.137      7.577
REMARK  4 active torsions:
REMARK  status: ('A' for Active; 'I' for Inactive)
REMARK    1  A    between atoms: C2_2  and  C4_4 
REMARK    2  A    between atoms: C7_12  and  N3_13 
REMARK    3  A    between atoms: N3_13  and  C8_15 
REMARK    4  A    between atoms: C8_15  and  C9_16 
ROOT
HETATM    1  C4  UNL     1       3.912   6.012  13.973  1.00  0.00     0.086 A 
HETATM    2  N1  UNL     1       4.693   7.016  14.410  1.00  0.00    -0.338 N 
ATOM      3  H1  UNL     1       4.631   7.436  15.338  1.00  0.00     0.167 HD
HETATM    4  C5  UNL     1       5.561   7.389  13.463  1.00  0.00     0.148 A 
HETATM    5  C6  UNL     1       6.564   8.334  13.356  1.00  0.00     0.290 A 
HETATM    6  O1  UNL     1       6.801   9.076  14.335  1.00  0.00    -0.265 OA
HETATM    7  N2  UNL     1       7.297   8.484  12.239  1.00  0.00    -0.154 N 
ATOM      8  H2  UNL     1       8.031   9.191  12.195  1.00  0.00     0.187 HD
HETATM    9  C7  UNL     1       7.053   7.694  11.183  1.00  0.00     0.682 A 
HETATM   10  N4  UNL     1       6.066   6.753  11.264  1.00  0.00    -0.174 N 
ATOM     11  H4  UNL     1       5.886   6.155  10.458  1.00  0.00     0.186 HD
HETATM   12  C14 UNL     1       5.327   6.591  12.369  1.00  0.00     0.155 A 
HETATM   13  N5  UNL     1       4.309   5.756  12.715  1.00  0.00    -0.329 N 
ATOM     14  H5  UNL     1       3.907   5.041  12.108  1.00  0.00     0.168 HD
ENDROOT
BRANCH   9  15
HETATM   15  N3  UNL     1       7.746   7.826  10.107  1.00  0.00    -0.226 N 
ATOM     16  H3  UNL     1       7.367   7.537   9.205  1.00  0.00     0.177 HD
BRANCH  15  17
HETATM   17  C8  UNL     1       9.070   8.390  10.201  1.00  0.00     0.142 C 
BRANCH  17  18
HETATM   18  C9  UNL     1       9.906   8.073   8.977  1.00  0.00     0.004 C 
HETATM   19  C10 UNL     1      11.222   7.542   9.447  1.00  0.00     0.006 C 
HETATM   20  C11 UNL     1      12.299   8.472   8.977  1.00  0.00     0.000 C 
HETATM   21  C12 UNL     1      11.635   9.666   8.373  1.00  0.00     0.000 C 
HETATM   22  C13 UNL     1      10.172   9.364   8.236  1.00  0.00     0.006 C 
ENDBRANCH  17  18
ENDBRANCH  15  17
ENDBRANCH   9  15
BRANCH   1  23
HETATM   23  C2  UNL     1       2.818   5.300  14.703  1.00  0.00     0.045 C 
HETATM   24  C1  UNL     1       1.617   5.115  13.829  1.00  0.00     0.017 C 
HETATM   25  C3  UNL     1       2.445   6.081  15.969  1.00  0.00     0.017 C 
ENDBRANCH   1  23
TORSDOF 4
ENDMDL
MODEL 5
REMARK VINA RESULT: -5.915456485      1.609      7.525
REMARK  4 active torsions:
REMARK  status: ('A' for Active; 'I' for Inactive)
REMARK    1  A    between atoms: C2_2  and  C4_4 
REMARK    2  A    between atoms: C7_12  and  N3_13 
REMARK    3  A    between atoms: N3_13  and  C8_15 
REMARK    4  A    between atoms: C8_15  and  C9_16 
ROOT
HETATM    1  C4  UNL     1       3.396   5.639  14.182  1.00  0.00     0.086 A 
HETATM    2  N1  UNL     1       4.657   5.589  14.645  1.00  0.00    -0.338 N 
ATOM      3  H1  UNL     1       4.946   5.089  15.487  1.00  0.00     0.167 HD
HETATM    4  C5  UNL     1       5.482   6.283  13.854  1.00  0.00     0.148 A 
HETATM    5  C6  UNL     1       6.835   6.570  13.840  1.00  0.00     0.290 A 
HETATM    6  O1  UNL     1       7.558   6.110  14.753  1.00  0.00    -0.265 OA
HETATM    7  N2  UNL     1       7.403   7.322  12.883  1.00  0.00    -0.154 N 
ATOM      8  H2  UNL     1       8.404   7.513  12.903  1.00  0.00     0.187 HD
HETATM    9  C7  UNL     1       6.638   7.820  11.899  1.00  0.00     0.682 A 
HETATM   10  N4  UNL     1       5.299   7.551  11.891  1.00  0.00    -0.174 N 
ATOM     11  H4  UNL     1       4.724   7.932  11.140  1.00  0.00     0.186 HD
HETATM   12  C14 UNL     1       4.718   6.804  12.837  1.00  0.00     0.155 A 
HETATM   13  N5  UNL     1       3.442   6.389  13.067  1.00  0.00    -0.329 N 
ATOM     14  H5  UNL     1       2.638   6.615  12.481  1.00  0.00     0.168 HD
ENDROOT
BRANCH   9  15
HETATM   15  N3  UNL     1       7.168   8.542  10.975  1.00  0.00    -0.226 N 
ATOM     16  H3  UNL     1       6.891   9.516  10.853  1.00  0.00     0.177 HD
BRANCH  15  17
HETATM   17  C8  UNL     1       8.161   7.946  10.115  1.00  0.00     0.142 C 
BRANCH  17  18
HETATM   18  C9  UNL     1       9.442   8.756  10.089  1.00  0.00     0.004 C 
HETATM   19  C10 UNL     1       9.739   9.095   8.663  1.00  0.00     0.006 C 
HETATM   20  C11 UNL     1      11.050   8.469   8.294  1.00  0.00     0.000 C 
HETATM   21  C12 UNL     1      11.471   7.597   9.431  1.00  0.00     0.000 C 
HETATM   22  C13 UNL     1      10.567   7.881  10.594  1.00  0.00     0.006 C 
ENDBRANCH  17  18
ENDBRANCH  15  17
ENDBRANCH   9  15
BRANCH   1  23
HETATM   23  C2  UNL     1       2.168   5.006  14.756  1.00  0.00     0.045 C 
HETATM   24  C1  UNL     1       1.052   4.993  13.759  1.00  0.00     0.017 C 
HETATM   25  C3  UNL     1       1.745   5.753  16.026  1.00  0.00     0.017 C 
ENDBRANCH   1  23
TORSDOF 4
ENDMDL
