MODEL 1
REMARK VINA RESULT: -6.592503083      0.000      0.000
REMARK  3 active torsions:
REMARK  status: ('A' for Active; 'I' for Inactive)
REMARK       I    between atoms: C1_2  and  N2_4 
REMARK    1  A    between atoms: C8_12  and  O2_13 
REMARK    2  A    between atoms: C12_18  and  C13_19 
REMARK    3  A    between atoms: C13_19  and  C14_20 
ROOT
HETATM    1  N1  UNL     1       8.107   5.022  16.310  1.00  0.00    -0.040 NA
HETATM    2  C1  UNL     1       7.491   5.981  15.450  1.00  0.00     0.332 C 
HETATM    3  O1  UNL     1       7.741   7.192  15.689  1.00  0.00    -0.251 OA
HETATM    4  N2  UNL     1       6.648   5.642  14.385  1.00  0.00    -0.318 N 
ATOM      5  H2  UNL     1       7.023   5.076  13.624  1.00  0.00     0.169 HD
HETATM    6  C2  UNL     1       5.448   6.008  14.330  1.00  0.00    -0.004 C 
HETATM    7  C3  UNL     1       4.765   6.851  15.393  1.00  0.00     0.058 C 
HETATM    8  C4  UNL     1       3.458   6.125  15.369  1.00  0.00    -0.000 C 
HETATM    9  C5  UNL     1       2.335   6.637  16.158  1.00  0.00    -0.007 C 
HETATM   10  C6  UNL     1       1.531   7.722  15.470  1.00  0.00     0.008 C 
HETATM   11  C7  UNL     1       0.517   7.061  14.584  1.00  0.00     0.038 C 
HETATM   12  C8  UNL     1       0.861   5.590  14.676  1.00  0.00     0.059 C 
HETATM   13  C9  UNL     1       1.300   5.490  16.106  1.00  0.00     0.043 C 
HETATM   14  C10 UNL     1       1.950   5.329  13.661  1.00  0.00     0.043 C 
HETATM   15  C11 UNL     1       3.120   6.232  13.897  1.00  0.00     0.003 C 
HETATM   16  C12 UNL     1       4.437   5.721  13.302  1.00  0.00     0.046 C 
ENDROOT
BRANCH  16  17
HETATM   17  C13 UNL     1       4.605   6.407  11.997  1.00  0.00     0.124 C 
BRANCH  17  18
HETATM   18  C14 UNL     1       5.878   7.002  11.668  1.00  0.00     0.173 C 
HETATM   19  O3  UNL     1       6.605   6.604  10.748  1.00  0.00    -0.648 OA
HETATM   20  O4  UNL     1       6.325   8.085  12.418  1.00  0.00    -0.648 OA
ENDBRANCH  17  18
ENDBRANCH  16  17
BRANCH  12  21
HETATM   21  O2  UNL     1      -0.209   4.758  14.438  1.00  0.00    -0.390 OA
ATOM     22  H2  UNL     1      -0.209   3.974  14.976  1.00  0.00     0.210 HD
ENDBRANCH  12  21
TORSDOF 3
ENDMDL
MODEL 2
REMARK VINA RESULT: -6.247645653      0.858      1.018
REMARK  3 active torsions:
REMARK  status: ('A' for Active; 'I' for Inactive)
REMARK       I    between atoms: C1_2  and  N2_4 
REMARK    1  A    between atoms: C8_12  and  O2_13 
REMARK    2  A    between atoms: C12_18  and  C13_19 
REMARK    3  A    between atoms: C13_19  and  C14_20 
ROOT
HETATM    1  N1  UNL     1       8.370   4.678  16.604  1.00  0.00    -0.040 NA
HETATM    2  C1  UNL     1       7.870   5.830  15.924  1.00  0.00     0.332 C 
HETATM    3  O1  UNL     1       8.092   6.944  16.467  1.00  0.00    -0.251 OA
HETATM    4  N2  UNL     1       7.165   5.774  14.716  1.00  0.00    -0.318 N 
ATOM      5  H2  UNL     1       7.629   5.387  13.895  1.00  0.00     0.169 HD
HETATM    6  C2  UNL     1       5.981   6.182  14.604  1.00  0.00    -0.004 C 
HETATM    7  C3  UNL     1       5.175   6.778  15.744  1.00  0.00     0.058 C 
HETATM    8  C4  UNL     1       3.879   6.120  15.394  1.00  0.00    -0.000 C 
HETATM    9  C5  UNL     1       2.668   6.474  16.139  1.00  0.00    -0.007 C 
HETATM   10  C6  UNL     1       1.961   7.714  15.633  1.00  0.00     0.008 C 
HETATM   11  C7  UNL     1       1.062   7.309  14.501  1.00  0.00     0.038 C 
HETATM   12  C8  UNL     1       1.386   5.846  14.288  1.00  0.00     0.059 C 
HETATM   13  C9  UNL     1       1.643   5.404  15.698  1.00  0.00     0.043 C 
HETATM   14  C10 UNL     1       2.592   5.791  13.379  1.00  0.00     0.043 C 
HETATM   15  C11 UNL     1       3.727   6.576  13.958  1.00  0.00     0.003 C 
HETATM   16  C12 UNL     1       5.106   6.174  13.423  1.00  0.00     0.046 C 
ENDROOT
BRANCH  16  17
HETATM   17  C13 UNL     1       5.438   7.137  12.344  1.00  0.00     0.124 C 
BRANCH  17  18
HETATM   18  C14 UNL     1       5.761   6.640  11.028  1.00  0.00     0.173 C 
HETATM   19  O3  UNL     1       6.785   6.956  10.407  1.00  0.00    -0.648 OA
HETATM   20  O4  UNL     1       4.882   5.756  10.410  1.00  0.00    -0.648 OA
ENDBRANCH  17  18
ENDBRANCH  16  17
BRANCH  12  21
HETATM   21  O2  UNL     1       0.351   5.127  13.736  1.00  0.00    -0.390 OA
ATOM     22  H2  UNL     1      -0.368   5.668  13.431  1.00  0.00     0.210 HD
ENDBRANCH  12  21
TORSDOF 3
ENDMDL
MODEL 3
REMARK VINA RESULT: -5.956010017      1.732      2.046
REMARK  3 active torsions:
REMARK  status: ('A' for Active; 'I' for Inactive)
REMARK       I    between atoms: C1_2  and  N2_4 
REMARK    1  A    between atoms: C8_12  and  O2_13 
REMARK    2  A    between atoms: C12_18  and  C13_19 
REMARK    3  A    between atoms: C13_19  and  C14_20 
ROOT
HETATM    1  N1  UNL     1       8.537   4.209  16.767  1.00  0.00    -0.040 NA
HETATM    2  C1  UNL     1       8.461   5.468  16.098  1.00  0.00     0.332 C 
HETATM    3  O1  UNL     1       9.057   6.432  16.645  1.00  0.00    -0.251 OA
HETATM    4  N2  UNL     1       7.772   5.668  14.896  1.00  0.00    -0.318 N 
ATOM      5  H2  UNL     1       8.069   5.152  14.068  1.00  0.00     0.169 HD
HETATM    6  C2  UNL     1       6.801   6.460  14.797  1.00  0.00    -0.004 C 
HETATM    7  C3  UNL     1       6.257   7.288  15.947  1.00  0.00     0.058 C 
HETATM    8  C4  UNL     1       4.811   7.121  15.605  1.00  0.00    -0.000 C 
HETATM    9  C5  UNL     1       3.802   7.863  16.363  1.00  0.00    -0.007 C 
HETATM   10  C6  UNL     1       3.562   9.276  15.870  1.00  0.00     0.008 C 
HETATM   11  C7  UNL     1       2.571   9.215  14.744  1.00  0.00     0.038 C 
HETATM   12  C8  UNL     1       2.370   7.731  14.520  1.00  0.00     0.059 C 
HETATM   13  C9  UNL     1       2.468   7.216  15.925  1.00  0.00     0.043 C 
HETATM   14  C10 UNL     1       3.477   7.272  13.599  1.00  0.00     0.043 C 
HETATM   15  C11 UNL     1       4.817   7.612  14.173  1.00  0.00     0.003 C 
HETATM   16  C12 UNL     1       5.969   6.764  13.623  1.00  0.00     0.046 C 
ENDROOT
BRANCH  16  17
HETATM   17  C13 UNL     1       6.605   7.562  12.546  1.00  0.00     0.124 C 
BRANCH  17  18
HETATM   18  C14 UNL     1       6.454   7.146  11.173  1.00  0.00     0.173 C 
HETATM   19  O3  UNL     1       7.193   7.525  10.255  1.00  0.00    -0.648 OA
HETATM   20  O4  UNL     1       5.425   6.268  10.848  1.00  0.00    -0.648 OA
ENDBRANCH  17  18
ENDBRANCH  16  17
BRANCH  12  21
HETATM   21  O2  UNL     1       1.147   7.418  13.972  1.00  0.00    -0.390 OA
ATOM     22  H2  UNL     1       1.207   6.989  13.126  1.00  0.00     0.210 HD
ENDBRANCH  12  21
TORSDOF 3
ENDMDL
MODEL 4
REMARK VINA RESULT: -5.925538623      1.144      1.269
REMARK  3 active torsions:
REMARK  status: ('A' for Active; 'I' for Inactive)
REMARK       I    between atoms: C1_2  and  N2_4 
REMARK    1  A    between atoms: C8_12  and  O2_13 
REMARK    2  A    between atoms: C12_18  and  C13_19 
REMARK    3  A    between atoms: C13_19  and  C14_20 
ROOT
HETATM    1  N1  UNL     1       8.842   5.087  16.871  1.00  0.00    -0.040 NA
HETATM    2  C1  UNL     1       8.350   6.115  16.011  1.00  0.00     0.332 C 
HETATM    3  O1  UNL     1       8.513   7.300  16.400  1.00  0.00    -0.251 OA
HETATM    4  N2  UNL     1       7.712   5.866  14.790  1.00  0.00    -0.318 N 
ATOM      5  H2  UNL     1       8.230   5.383  14.056  1.00  0.00     0.169 HD
HETATM    6  C2  UNL     1       6.527   6.214  14.562  1.00  0.00    -0.004 C 
HETATM    7  C3  UNL     1       5.644   6.938  15.564  1.00  0.00     0.058 C 
HETATM    8  C4  UNL     1       4.387   6.195  15.248  1.00  0.00    -0.000 C 
HETATM    9  C5  UNL     1       3.129   6.609  15.874  1.00  0.00    -0.007 C 
HETATM   10  C6  UNL     1       2.418   7.741  15.162  1.00  0.00     0.008 C 
HETATM   11  C7  UNL     1       1.592   7.152  14.056  1.00  0.00     0.038 C 
HETATM   12  C8  UNL     1       1.965   5.685  14.070  1.00  0.00     0.059 C 
HETATM   13  C9  UNL     1       2.157   5.454  15.539  1.00  0.00     0.043 C 
HETATM   14  C10 UNL     1       3.219   5.543  13.238  1.00  0.00     0.043 C 
HETATM   15  C11 UNL     1       4.301   6.439  13.756  1.00  0.00     0.003 C 
HETATM   16  C12 UNL     1       5.716   6.012  13.352  1.00  0.00     0.046 C 
ENDROOT
BRANCH  16  17
HETATM   17  C13 UNL     1       6.081   6.824  12.165  1.00  0.00     0.124 C 
BRANCH  17  18
HETATM   18  C14 UNL     1       7.016   7.912  12.312  1.00  0.00     0.173 C 
HETATM   19  O3  UNL     1       8.221   7.824  12.042  1.00  0.00    -0.648 OA
HETATM   20  O4  UNL     1       6.552   9.137  12.782  1.00  0.00    -0.648 OA
ENDBRANCH  17  18
ENDBRANCH  16  17
BRANCH  12  21
HETATM   21  O2  UNL     1       0.980   4.862  13.574  1.00  0.00    -0.390 OA
ATOM     22  H2  UNL     1       0.230   5.331  13.227  1.00  0.00     0.210 HD
ENDBRANCH  12  21
TORSDOF 3
ENDMDL
MODEL 5
REMARK VINA RESULT: -5.710488064      2.994      5.851
REMARK  3 active torsions:
REMARK  status: ('A' for Active; 'I' for Inactive)
REMARK       I    between atoms: C1_2  and  N2_4 
REMARK    1  A    between atoms: C8_12  and  O2_13 
REMARK    2  A    between atoms: C12_18  and  C13_19 
REMARK    3  A    between atoms: C13_19  and  C14_20 
ROOT
HETATM    1  N1  UNL     1      -0.395  10.577  15.323  1.00  0.00    -0.040 NA
HETATM    2  C1  UNL     1      -0.068   9.267  15.786  1.00  0.00     0.332 C 
HETATM    3  O1  UNL     1       0.066   9.127  17.030  1.00  0.00    -0.251 OA
HETATM    4  N2  UNL     1       0.106   8.165  14.940  1.00  0.00    -0.318 N 
ATOM      5  H2  UNL     1      -0.681   7.858  14.368  1.00  0.00     0.169 HD
HETATM    6  C2  UNL     1       1.192   7.540  14.858  1.00  0.00    -0.004 C 
HETATM    7  C3  UNL     1       2.439   7.891  15.651  1.00  0.00     0.058 C 
HETATM    8  C4  UNL     1       3.415   7.647  14.546  1.00  0.00    -0.000 C 
HETATM    9  C5  UNL     1       4.851   7.719  14.825  1.00  0.00    -0.007 C 
HETATM   10  C6  UNL     1       5.446   6.440  15.380  1.00  0.00     0.008 C 
HETATM   11  C7  UNL     1       5.785   5.544  14.226  1.00  0.00     0.038 C 
HETATM   12  C8  UNL     1       5.239   6.281  13.022  1.00  0.00     0.059 C 
HETATM   13  C9  UNL     1       5.497   7.704  13.420  1.00  0.00     0.043 C 
HETATM   14  C10 UNL     1       3.778   5.912  12.907  1.00  0.00     0.043 C 
HETATM   15  C11 UNL     1       3.052   6.223  14.178  1.00  0.00     0.003 C 
HETATM   16  C12 UNL     1       1.537   6.388  14.012  1.00  0.00     0.046 C 
ENDROOT
BRANCH  16  17
HETATM   17  C13 UNL     1       0.928   5.086  14.382  1.00  0.00     0.124 C 
BRANCH  17  18
HETATM   18  C14 UNL     1      -0.285   4.661  13.725  1.00  0.00     0.173 C 
HETATM   19  O3  UNL     1      -0.481   3.505  13.327  1.00  0.00    -0.648 OA
HETATM   20  O4  UNL     1      -1.299   5.591  13.521  1.00  0.00    -0.648 OA
ENDBRANCH  17  18
ENDBRANCH  16  17
BRANCH  12  21
HETATM   21  O2  UNL     1       5.891   5.980  11.849  1.00  0.00    -0.390 OA
ATOM     22  H2  UNL     1       6.797   5.721  11.972  1.00  0.00     0.210 HD
ENDBRANCH  12  21
TORSDOF 3
ENDMDL
