MODEL 1
REMARK VINA RESULT: -6.014172961      0.000      0.000
REMARK  5 active torsions:
REMARK  status: ('A' for Active; 'I' for Inactive)
REMARK    1  A    between atoms: C3_5  and  N2_6 
REMARK    2  A    between atoms: N2_6  and  C4_8 
REMARK    3  A    between atoms: C10_18  and  N5_19 
REMARK    4  A    between atoms: N5_19  and  C11_21 
REMARK    5  A    between atoms: C11_21  and  C12_22 
ROOT
HETATM    1  C1  UNL     1       8.077   6.503  14.702  1.00  0.00     0.182 A 
HETATM    2  N1  UNL     1       6.892   5.873  14.615  1.00  0.00    -0.347 N 
ATOM      3  H1  UNL     1       6.687   5.093  15.240  1.00  0.00     0.167 HD
HETATM    4  C2  UNL     1       5.971   6.266  13.709  1.00  0.00     0.111 A 
HETATM    5  C3  UNL     1       4.694   5.826  13.389  1.00  0.00     0.146 A 
HETATM    6  N3  UNL     1       4.291   6.632  12.389  1.00  0.00    -0.283 N 
ATOM      7  H3  UNL     1       3.386   6.572  11.921  1.00  0.00     0.188 HD
HETATM    8  N4  UNL     1       5.238   7.517  12.095  1.00  0.00    -0.293 N 
ATOM      9  H4  UNL     1       5.168   8.234  11.372  1.00  0.00     0.187 HD
HETATM   10  C9  UNL     1       6.302   7.326  12.893  1.00  0.00     0.122 A 
HETATM   11  C10 UNL     1       7.519   7.985  12.969  1.00  0.00     0.133 A 
HETATM   12  N6  UNL     1       8.383   7.539  13.894  1.00  0.00    -0.337 N 
ATOM     13  H6  UNL     1       9.291   7.995  13.989  1.00  0.00     0.168 HD
ENDROOT
BRANCH   5  14
HETATM   14  N2  UNL     1       4.123   4.860  13.977  1.00  0.00    -0.369 N 
ATOM     15  H2  UNL     1       4.585   3.953  13.911  1.00  0.00     0.161 HD
BRANCH  14  16
HETATM   16  C4  UNL     1       2.910   4.898  14.717  1.00  0.00     0.083 C 
HETATM   17  C5  UNL     1       2.985   6.116  15.647  1.00  0.00     0.025 C 
HETATM   18  C6  UNL     1       1.525   6.271  16.020  1.00  0.00     0.002 C 
HETATM   19  C7  UNL     1       0.855   6.185  14.671  1.00  0.00     0.002 C 
HETATM   20  C8  UNL     1       1.682   5.163  13.915  1.00  0.00     0.025 C 
ENDBRANCH  14  16
ENDBRANCH   5  14
BRANCH  11  21
HETATM   21  N5  UNL     1       7.814   8.975  12.201  1.00  0.00    -0.374 N 
ATOM     22  H5  UNL     1       7.173   9.760  12.092  1.00  0.00     0.161 HD
BRANCH  21  23
HETATM   23  C11 UNL     1       9.070   8.947  11.498  1.00  0.00     0.126 C 
BRANCH  23  24
HETATM   24  C12 UNL     1       8.982   8.266  10.166  1.00  0.00     0.003 A 
HETATM   25  C13 UNL     1      10.190   7.607   9.574  1.00  0.00     0.007 A 
HETATM   26  C14 UNL     1       9.752   8.914   9.011  1.00  0.00     0.007 A 
ENDBRANCH  23  24
ENDBRANCH  21  23
ENDBRANCH  11  21
TORSDOF 5
ENDMDL
MODEL 2
REMARK VINA RESULT: -6.000625898      0.942      7.121
REMARK  5 active torsions:
REMARK  status: ('A' for Active; 'I' for Inactive)
REMARK    1  A    between atoms: C3_5  and  N2_6 
REMARK    2  A    between atoms: N2_6  and  C4_8 
REMARK    3  A    between atoms: C10_18  and  N5_19 
REMARK    4  A    between atoms: N5_19  and  C11_21 
REMARK    5  A    between atoms: C11_21  and  C12_22 
ROOT
HETATM    1  C1  UNL     1       7.339   6.108  14.842  1.00  0.00     0.182 A 
HETATM    2  N1  UNL     1       7.794   7.021  13.966  1.00  0.00    -0.347 N 
ATOM      3  H1  UNL     1       8.717   7.436  14.100  1.00  0.00     0.167 HD
HETATM    4  C2  UNL     1       7.039   7.393  12.910  1.00  0.00     0.111 A 
HETATM    5  C3  UNL     1       7.229   8.286  11.863  1.00  0.00     0.146 A 
HETATM    6  N3  UNL     1       6.102   8.206  11.131  1.00  0.00    -0.283 N 
ATOM      7  H3  UNL     1       5.920   8.743  10.283  1.00  0.00     0.188 HD
HETATM    8  N4  UNL     1       5.260   7.330  11.670  1.00  0.00    -0.293 N 
ATOM      9  H4  UNL     1       4.340   7.095  11.297  1.00  0.00     0.187 HD
HETATM   10  C9  UNL     1       5.802   6.799  12.778  1.00  0.00     0.122 A 
HETATM   11  C10 UNL     1       5.320   5.857  13.673  1.00  0.00     0.133 A 
HETATM   12  N6  UNL     1       6.126   5.538  14.697  1.00  0.00    -0.337 N 
ATOM     13  H6  UNL     1       5.814   4.847  15.380  1.00  0.00     0.168 HD
ENDROOT
BRANCH   5  14
HETATM   14  N2  UNL     1       8.280   8.980  11.722  1.00  0.00    -0.369 N 
ATOM     15  H2  UNL     1       8.242   9.935  12.078  1.00  0.00     0.161 HD
BRANCH  14  16
HETATM   16  C4  UNL     1       9.505   8.577  11.124  1.00  0.00     0.083 C 
HETATM   17  C5  UNL     1       9.164   7.975   9.754  1.00  0.00     0.025 C 
HETATM   18  C6  UNL     1      10.525   8.004   9.092  1.00  0.00     0.002 C 
HETATM   19  C7  UNL     1      10.979   9.412   9.388  1.00  0.00     0.002 C 
HETATM   20  C8  UNL     1      10.441   9.685  10.779  1.00  0.00     0.025 C 
ENDBRANCH  14  16
ENDBRANCH   5  14
BRANCH  11  21
HETATM   21  N5  UNL     1       4.162   5.310  13.537  1.00  0.00    -0.374 N 
ATOM     22  H5  UNL     1       4.061   4.413  13.064  1.00  0.00     0.161 HD
BRANCH  21  23
HETATM   23  C11 UNL     1       3.014   5.994  14.069  1.00  0.00     0.126 C 
BRANCH  23  24
HETATM   24  C12 UNL     1       2.622   5.511  15.433  1.00  0.00     0.003 A 
HETATM   25  C13 UNL     1       1.189   5.554  15.866  1.00  0.00     0.007 A 
HETATM   26  C14 UNL     1       2.125   6.569  16.422  1.00  0.00     0.007 A 
ENDBRANCH  23  24
ENDBRANCH  21  23
ENDBRANCH  11  21
TORSDOF 5
ENDMDL
MODEL 3
REMARK VINA RESULT: -5.906043931      0.932      6.972
REMARK  5 active torsions:
REMARK  status: ('A' for Active; 'I' for Inactive)
REMARK    1  A    between atoms: C3_5  and  N2_6 
REMARK    2  A    between atoms: N2_6  and  C4_8 
REMARK    3  A    between atoms: C10_18  and  N5_19 
REMARK    4  A    between atoms: N5_19  and  C11_21 
REMARK    5  A    between atoms: C11_21  and  C12_22 
ROOT
HETATM    1  C1  UNL     1       7.262   6.090  14.913  1.00  0.00     0.182 A 
HETATM    2  N1  UNL     1       7.785   7.051  14.131  1.00  0.00    -0.347 N 
ATOM      3  H1  UNL     1       8.697   7.449  14.360  1.00  0.00     0.167 HD
HETATM    4  C2  UNL     1       7.115   7.493  13.045  1.00  0.00     0.111 A 
HETATM    5  C3  UNL     1       7.387   8.446  12.073  1.00  0.00     0.146 A 
HETATM    6  N3  UNL     1       6.319   8.420  11.254  1.00  0.00    -0.283 N 
ATOM      7  H3  UNL     1       6.204   9.009  10.430  1.00  0.00     0.188 HD
HETATM    8  N4  UNL     1       5.435   7.520  11.672  1.00  0.00    -0.293 N 
ATOM      9  H4  UNL     1       4.545   7.316  11.217  1.00  0.00     0.187 HD
HETATM   10  C9  UNL     1       5.889   6.918  12.784  1.00  0.00     0.122 A 
HETATM   11  C10 UNL     1       5.337   5.927  13.580  1.00  0.00     0.133 A 
HETATM   12  N6  UNL     1       6.061   5.539  14.640  1.00  0.00    -0.337 N 
ATOM     13  H6  UNL     1       5.696   4.811  15.254  1.00  0.00     0.168 HD
ENDROOT
BRANCH   5  14
HETATM   14  N2  UNL     1       8.448   9.139  12.055  1.00  0.00    -0.369 N 
ATOM     15  H2  UNL     1       8.597   9.759  12.852  1.00  0.00     0.161 HD
BRANCH  14  16
HETATM   16  C4  UNL     1       9.453   9.150  11.050  1.00  0.00     0.083 C 
HETATM   17  C5  UNL     1      10.706   8.502  11.656  1.00  0.00     0.025 C 
HETATM   18  C6  UNL     1      11.495   8.197  10.400  1.00  0.00     0.002 C 
HETATM   19  C7  UNL     1      10.449   7.539   9.534  1.00  0.00     0.002 C 
HETATM   20  C8  UNL     1       9.175   8.294   9.862  1.00  0.00     0.025 C 
ENDBRANCH  14  16
ENDBRANCH   5  14
BRANCH  11  21
HETATM   21  N5  UNL     1       4.191   5.399  13.324  1.00  0.00    -0.374 N 
ATOM     22  H5  UNL     1       3.862   5.308  12.363  1.00  0.00     0.161 HD
BRANCH  21  23
HETATM   23  C11 UNL     1       3.385   4.941  14.424  1.00  0.00     0.126 C 
BRANCH  23  24
HETATM   24  C12 UNL     1       2.409   5.971  14.905  1.00  0.00     0.003 A 
HETATM   25  C13 UNL     1       2.582   6.604  16.252  1.00  0.00     0.007 A 
HETATM   26  C14 UNL     1       1.518   5.575  16.088  1.00  0.00     0.007 A 
ENDBRANCH  23  24
ENDBRANCH  21  23
ENDBRANCH  11  21
TORSDOF 5
ENDMDL
MODEL 4
REMARK VINA RESULT: -5.899722163      1.737      2.228
REMARK  5 active torsions:
REMARK  status: ('A' for Active; 'I' for Inactive)
REMARK    1  A    between atoms: C3_5  and  N2_6 
REMARK    2  A    between atoms: N2_6  and  C4_8 
REMARK    3  A    between atoms: C10_18  and  N5_19 
REMARK    4  A    between atoms: N5_19  and  C11_21 
REMARK    5  A    between atoms: C11_21  and  C12_22 
ROOT
HETATM    1  C1  UNL     1       7.449   9.562  13.019  1.00  0.00     0.182 A 
HETATM    2  N1  UNL     1       6.328   8.823  13.087  1.00  0.00    -0.347 N 
ATOM      3  H1  UNL     1       5.633   9.023  13.807  1.00  0.00     0.167 HD
HETATM    4  C2  UNL     1       6.115   7.818  12.210  1.00  0.00     0.111 A 
HETATM    5  C3  UNL     1       5.084   6.905  12.031  1.00  0.00     0.146 A 
HETATM    6  N3  UNL     1       5.464   6.157  10.979  1.00  0.00    -0.283 N 
ATOM      7  H3  UNL     1       4.923   5.386  10.587  1.00  0.00     0.188 HD
HETATM    8  N4  UNL     1       6.645   6.562  10.522  1.00  0.00    -0.293 N 
ATOM      9  H4  UNL     1       7.141   6.151   9.732  1.00  0.00     0.187 HD
HETATM   10  C9  UNL     1       7.087   7.595  11.259  1.00  0.00     0.122 A 
HETATM   11  C10 UNL     1       8.248   8.347  11.176  1.00  0.00     0.133 A 
HETATM   12  N6  UNL     1       8.390   9.328  12.081  1.00  0.00    -0.337 N 
ATOM     13  H6  UNL     1       9.228   9.910  12.058  1.00  0.00     0.168 HD
ENDROOT
BRANCH   5  14
HETATM   14  N2  UNL     1       4.050   6.871  12.762  1.00  0.00    -0.369 N 
ATOM     15  H2  UNL     1       3.197   7.260  12.359  1.00  0.00     0.161 HD
BRANCH  14  16
HETATM   16  C4  UNL     1       3.944   6.352  14.081  1.00  0.00     0.083 C 
HETATM   17  C5  UNL     1       3.229   7.412  14.930  1.00  0.00     0.025 C 
HETATM   18  C6  UNL     1       2.815   6.578  16.124  1.00  0.00     0.002 C 
HETATM   19  C7  UNL     1       2.204   5.371  15.457  1.00  0.00     0.002 C 
HETATM   20  C8  UNL     1       3.065   5.157  14.227  1.00  0.00     0.025 C 
ENDBRANCH  14  16
ENDBRANCH   5  14
BRANCH  11  21
HETATM   21  N5  UNL     1       9.147   8.127  10.282  1.00  0.00    -0.374 N 
ATOM     22  H5  UNL     1       9.247   7.206   9.857  1.00  0.00     0.161 HD
BRANCH  21  23
HETATM   23  C11 UNL     1      10.010   9.212   9.895  1.00  0.00     0.126 C 
BRANCH  23  24
HETATM   24  C12 UNL     1       9.978   9.492   8.423  1.00  0.00     0.003 A 
HETATM   25  C13 UNL     1      10.906   8.767   7.497  1.00  0.00     0.007 A 
HETATM   26  C14 UNL     1      11.206  10.187   7.828  1.00  0.00     0.007 A 
ENDBRANCH  23  24
ENDBRANCH  21  23
ENDBRANCH  11  21
TORSDOF 5
ENDMDL
MODEL 5
REMARK VINA RESULT: -5.876786243      1.007      1.387
REMARK  5 active torsions:
REMARK  status: ('A' for Active; 'I' for Inactive)
REMARK    1  A    between atoms: C3_5  and  N2_6 
REMARK    2  A    between atoms: N2_6  and  C4_8 
REMARK    3  A    between atoms: C10_18  and  N5_19 
REMARK    4  A    between atoms: N5_19  and  C11_21 
REMARK    5  A    between atoms: C11_21  and  C12_22 
ROOT
HETATM    1  C1  UNL     1       8.328   7.129  14.565  1.00  0.00     0.182 A 
HETATM    2  N1  UNL     1       7.124   6.612  14.263  1.00  0.00    -0.347 N 
ATOM      3  H1  UNL     1       6.685   5.945  14.899  1.00  0.00     0.167 HD
HETATM    4  C2  UNL     1       6.491   6.968  13.125  1.00  0.00     0.111 A 
HETATM    5  C3  UNL     1       5.275   6.616  12.554  1.00  0.00     0.146 A 
HETATM    6  N3  UNL     1       5.215   7.317  11.406  1.00  0.00    -0.283 N 
ATOM      7  H3  UNL     1       4.441   7.283  10.743  1.00  0.00     0.188 HD
HETATM    8  N4  UNL     1       6.308   8.058  11.258  1.00  0.00    -0.293 N 
ATOM      9  H4  UNL     1       6.496   8.676  10.467  1.00  0.00     0.187 HD
HETATM   10  C9  UNL     1       7.130   7.873  12.305  1.00  0.00     0.122 A 
HETATM   11  C10 UNL     1       8.370   8.415  12.602  1.00  0.00     0.133 A 
HETATM   12  N6  UNL     1       8.937   8.014  13.750  1.00  0.00    -0.337 N 
ATOM     13  H6  UNL     1       9.850   8.387  14.012  1.00  0.00     0.168 HD
ENDROOT
BRANCH   5  14
HETATM   14  N2  UNL     1       4.468   5.797  13.086  1.00  0.00    -0.369 N 
ATOM     15  H2  UNL     1       4.693   4.807  12.982  1.00  0.00     0.161 HD
BRANCH  14  16
HETATM   16  C4  UNL     1       3.283   6.102  13.811  1.00  0.00     0.083 C 
HETATM   17  C5  UNL     1       2.886   4.836  14.582  1.00  0.00     0.025 C 
HETATM   18  C6  UNL     1       1.923   5.420  15.595  1.00  0.00     0.002 C 
HETATM   19  C7  UNL     1       2.704   6.603  16.112  1.00  0.00     0.002 C 
HETATM   20  C8  UNL     1       3.441   7.117  14.891  1.00  0.00     0.025 C 
ENDBRANCH  14  16
ENDBRANCH   5  14
BRANCH  11  21
HETATM   21  N5  UNL     1       8.955   9.259  11.826  1.00  0.00    -0.374 N 
ATOM     22  H5  UNL     1       8.684  10.243  11.826  1.00  0.00     0.161 HD
BRANCH  21  23
HETATM   23  C11 UNL     1      10.001   8.785  10.959  1.00  0.00     0.126 C 
BRANCH  23  24
HETATM   24  C12 UNL     1       9.533   8.537   9.557  1.00  0.00     0.003 A 
HETATM   25  C13 UNL     1      10.492   8.042   8.518  1.00  0.00     0.007 A 
HETATM   26  C14 UNL     1      10.081   9.472   8.474  1.00  0.00     0.007 A 
ENDBRANCH  23  24
ENDBRANCH  21  23
ENDBRANCH  11  21
TORSDOF 5
ENDMDL
