MODEL 1
REMARK VINA RESULT: -5.603263773      0.000      0.000
REMARK  2 active torsions:
REMARK  status: ('A' for Active; 'I' for Inactive)
REMARK    1  A    between atoms: C2_2  and  C3_3 
REMARK    2  A    between atoms: C3_3  and  N1_4 
REMARK       I    between atoms: N1_4  and  C4_5 
ROOT
HETATM    1  N1  UNL     1      -3.318  -5.667  17.303  1.00  0.00     0.014 N 
HETATM    2  C4  UNL     1      -2.368  -5.411  18.307  1.00  0.00     0.428 C 
HETATM    3  N2  UNL     1      -1.203  -4.660  18.061  1.00  0.00    -0.033 NA
HETATM    4  O1  UNL     1      -2.501  -5.842  19.503  1.00  0.00    -0.243 OA
HETATM    5  C5  UNL     1      -4.314  -4.582  17.282  1.00  0.00     0.249 C 
HETATM    6  C6  UNL     1      -3.629  -3.428  16.596  1.00  0.00     0.030 C 
HETATM    7  C7  UNL     1      -2.654  -4.106  15.661  1.00  0.00     0.030 C 
HETATM    8  C8  UNL     1      -2.672  -5.567  16.017  1.00  0.00     0.249 C 
ENDROOT
BRANCH   1   9
HETATM    9  C3  UNL     1      -4.052  -6.881  17.486  1.00  0.00     0.275 C 
BRANCH   9  10
HETATM   10  C2  UNL     1      -5.478  -6.684  17.786  1.00  0.00    -0.009 C 
HETATM   11  C1  UNL     1      -6.355  -7.636  17.503  1.00  0.00     0.008 C 
ENDBRANCH   9  10
ENDBRANCH   1   9
TORSDOF 2
ENDMDL
MODEL 2
REMARK VINA RESULT: -5.364472311      2.171      3.848
REMARK  2 active torsions:
REMARK  status: ('A' for Active; 'I' for Inactive)
REMARK    1  A    between atoms: C2_2  and  C3_3 
REMARK    2  A    between atoms: C3_3  and  N1_4 
REMARK       I    between atoms: N1_4  and  C4_5 
ROOT
HETATM    1  N1  UNL     1      -3.253  -4.349  16.350  1.00  0.00     0.014 N 
HETATM    2  C4  UNL     1      -1.990  -4.608  15.789  1.00  0.00     0.428 C 
HETATM    3  N2  UNL     1      -0.902  -5.046  16.566  1.00  0.00    -0.033 NA
HETATM    4  O1  UNL     1      -1.751  -4.462  14.542  1.00  0.00    -0.243 OA
HETATM    5  C5  UNL     1      -4.056  -5.584  16.341  1.00  0.00     0.249 C 
HETATM    6  C6  UNL     1      -3.518  -6.416  17.476  1.00  0.00     0.030 C 
HETATM    7  C7  UNL     1      -3.017  -5.382  18.459  1.00  0.00     0.030 C 
HETATM    8  C8  UNL     1      -3.086  -4.057  17.753  1.00  0.00     0.249 C 
ENDROOT
BRANCH   1   9
HETATM    9  C3  UNL     1      -4.019  -3.368  15.644  1.00  0.00     0.275 C 
BRANCH   9  10
HETATM   10  C2  UNL     1      -4.051  -2.048  16.292  1.00  0.00    -0.009 C 
HETATM   11  C1  UNL     1      -3.608  -0.979  15.645  1.00  0.00     0.008 C 
ENDBRANCH   9  10
ENDBRANCH   1   9
TORSDOF 2
ENDMDL
MODEL 3
REMARK VINA RESULT: -5.331424952      0.979      1.131
REMARK  2 active torsions:
REMARK  status: ('A' for Active; 'I' for Inactive)
REMARK    1  A    between atoms: C2_2  and  C3_3 
REMARK    2  A    between atoms: C3_3  and  N1_4 
REMARK       I    between atoms: N1_4  and  C4_5 
ROOT
HETATM    1  N1  UNL     1      -2.867  -5.028  17.350  1.00  0.00     0.014 N 
HETATM    2  C4  UNL     1      -1.558  -4.870  17.838  1.00  0.00     0.428 C 
HETATM    3  N2  UNL     1      -0.448  -4.756  16.980  1.00  0.00    -0.033 NA
HETATM    4  O1  UNL     1      -1.293  -4.821  19.087  1.00  0.00    -0.243 OA
HETATM    5  C5  UNL     1      -3.474  -3.702  17.138  1.00  0.00     0.249 C 
HETATM    6  C6  UNL     1      -2.863  -3.185  15.862  1.00  0.00     0.030 C 
HETATM    7  C7  UNL     1      -2.564  -4.446  15.083  1.00  0.00     0.030 C 
HETATM    8  C8  UNL     1      -2.803  -5.593  16.025  1.00  0.00     0.249 C 
ENDROOT
BRANCH   1   9
HETATM    9  C3  UNL     1      -3.742  -5.732  18.236  1.00  0.00     0.275 C 
BRANCH   9  10
HETATM   10  C2  UNL     1      -4.185  -7.040  17.732  1.00  0.00    -0.009 C 
HETATM   11  C1  UNL     1      -5.474  -7.351  17.730  1.00  0.00     0.008 C 
ENDBRANCH   9  10
ENDBRANCH   1   9
TORSDOF 2
ENDMDL
MODEL 4
REMARK VINA RESULT: -5.238230806      1.783      3.680
REMARK  2 active torsions:
REMARK  status: ('A' for Active; 'I' for Inactive)
REMARK    1  A    between atoms: C2_2  and  C3_3 
REMARK    2  A    between atoms: C3_3  and  N1_4 
REMARK       I    between atoms: N1_4  and  C4_5 
ROOT
HETATM    1  N1  UNL     1      -4.180  -5.035  17.259  1.00  0.00     0.014 N 
HETATM    2  C4  UNL     1      -3.254  -6.077  17.071  1.00  0.00     0.428 C 
HETATM    3  N2  UNL     1      -3.411  -7.335  17.682  1.00  0.00    -0.033 NA
HETATM    4  O1  UNL     1      -2.216  -5.949  16.338  1.00  0.00    -0.243 OA
HETATM    5  C5  UNL     1      -5.237  -5.129  16.237  1.00  0.00     0.249 C 
HETATM    6  C6  UNL     1      -6.131  -6.252  16.693  1.00  0.00     0.030 C 
HETATM    7  C7  UNL     1      -5.992  -6.220  18.198  1.00  0.00     0.030 C 
HETATM    8  C8  UNL     1      -4.880  -5.254  18.500  1.00  0.00     0.249 C 
ENDROOT
BRANCH   1   9
HETATM    9  C3  UNL     1      -3.619  -3.725  17.136  1.00  0.00     0.275 C 
BRANCH   9  10
HETATM   10  C2  UNL     1      -4.320  -2.857  16.177  1.00  0.00    -0.009 C 
HETATM   11  C1  UNL     1      -4.007  -1.572  16.091  1.00  0.00     0.008 C 
ENDBRANCH   9  10
ENDBRANCH   1   9
TORSDOF 2
ENDMDL
MODEL 5
REMARK VINA RESULT: -5.214488730      1.860      3.469
REMARK  2 active torsions:
REMARK  status: ('A' for Active; 'I' for Inactive)
REMARK    1  A    between atoms: C2_2  and  C3_3 
REMARK    2  A    between atoms: C3_3  and  N1_4 
REMARK       I    between atoms: N1_4  and  C4_5 
ROOT
HETATM    1  N1  UNL     1      -3.403  -4.443  16.744  1.00  0.00     0.014 N 
HETATM    2  C4  UNL     1      -3.973  -5.623  17.255  1.00  0.00     0.428 C 
HETATM    3  N2  UNL     1      -3.304  -6.860  17.202  1.00  0.00    -0.033 NA
HETATM    4  O1  UNL     1      -5.129  -5.646  17.797  1.00  0.00    -0.243 OA
HETATM    5  C5  UNL     1      -2.610  -3.785  17.799  1.00  0.00     0.249 C 
HETATM    6  C6  UNL     1      -1.334  -4.581  17.891  1.00  0.00     0.030 C 
HETATM    7  C7  UNL     1      -1.155  -5.116  16.488  1.00  0.00     0.030 C 
HETATM    8  C8  UNL     1      -2.423  -4.795  15.747  1.00  0.00     0.249 C 
ENDROOT
BRANCH   1   9
HETATM    9  C3  UNL     1      -4.358  -3.476  16.299  1.00  0.00     0.275 C 
BRANCH   9  10
HETATM   10  C2  UNL     1      -3.766  -2.313  15.619  1.00  0.00    -0.009 C 
HETATM   11  C1  UNL     1      -4.029  -1.087  16.049  1.00  0.00     0.008 C 
ENDBRANCH   9  10
ENDBRANCH   1   9
TORSDOF 2
ENDMDL
