MODEL 1
REMARK VINA RESULT: -6.526146510      0.000      0.000
REMARK  2 active torsions:
REMARK  status: ('A' for Active; 'I' for Inactive)
REMARK    1  A    between atoms: C2_2  and  C3_3 
REMARK    2  A    between atoms: C3_3  and  C4_4 
ROOT
HETATM    1  C4  UNL     1      -3.759  -6.179  17.379  1.00  0.00     0.394 C 
HETATM    2  N1  UNL     1      -2.895  -6.258  18.540  1.00  0.00    -0.021 N 
ATOM      3  H11 UNL     1      -2.206  -7.006  18.620  1.00  0.00     0.281 HD
ATOM      4  H12 UNL     1      -3.276  -6.522  19.448  1.00  0.00     0.281 HD
HETATM    5  C5  UNL     1      -2.476  -4.912  18.294  1.00  0.00     0.473 C 
HETATM    6  N2  UNL     1      -3.133  -4.955  17.018  1.00  0.00    -0.014 N 
HETATM    7  C6  UNL     1      -3.973  -3.820  16.793  1.00  0.00     0.242 C 
HETATM    8  C7  UNL     1      -3.634  -3.216  15.474  1.00  0.00     0.030 C 
HETATM    9  C8  UNL     1      -2.447  -3.966  14.965  1.00  0.00     0.030 C 
HETATM   10  C9  UNL     1      -2.258  -5.115  15.893  1.00  0.00     0.242 C 
ENDROOT
BRANCH   1  11
HETATM   11  C3  UNL     1      -5.201  -6.134  17.765  1.00  0.00     0.089 C 
BRANCH  11  12
HETATM   12  C2  UNL     1      -5.753  -7.502  17.676  1.00  0.00    -0.033 C 
HETATM   13  C1  UNL     1      -7.003  -7.740  17.332  1.00  0.00     0.007 C 
ENDBRANCH  11  12
ENDBRANCH   1  11
TORSDOF 2
ENDMDL
MODEL 2
REMARK VINA RESULT: -6.452797899      1.377      4.284
REMARK  2 active torsions:
REMARK  status: ('A' for Active; 'I' for Inactive)
REMARK    1  A    between atoms: C2_2  and  C3_3 
REMARK    2  A    between atoms: C3_3  and  C4_4 
ROOT
HETATM    1  C4  UNL     1      -3.287  -3.489  16.804  1.00  0.00     0.394 C 
HETATM    2  N1  UNL     1      -2.151  -3.665  15.922  1.00  0.00    -0.021 N 
ATOM      3  H11 UNL     1      -1.219  -3.369  16.215  1.00  0.00     0.281 HD
ATOM      4  H12 UNL     1      -2.059  -3.097  15.080  1.00  0.00     0.281 HD
HETATM    5  C5  UNL     1      -2.469  -5.057  15.824  1.00  0.00     0.473 C 
HETATM    6  N2  UNL     1      -3.415  -4.902  16.891  1.00  0.00    -0.014 N 
HETATM    7  C6  UNL     1      -4.689  -5.474  16.586  1.00  0.00     0.242 C 
HETATM    8  C7  UNL     1      -5.098  -6.377  17.697  1.00  0.00     0.030 C 
HETATM    9  C8  UNL     1      -3.940  -6.430  18.639  1.00  0.00     0.030 C 
HETATM   10  C9  UNL     1      -2.977  -5.399  18.165  1.00  0.00     0.242 C 
ENDROOT
BRANCH   1  11
HETATM   11  C3  UNL     1      -4.389  -2.732  16.140  1.00  0.00     0.089 C 
BRANCH  11  12
HETATM   12  C2  UNL     1      -4.057  -1.292  16.176  1.00  0.00    -0.033 C 
HETATM   13  C1  UNL     1      -3.314  -0.714  15.253  1.00  0.00     0.007 C 
ENDBRANCH  11  12
ENDBRANCH   1  11
TORSDOF 2
ENDMDL
MODEL 3
REMARK VINA RESULT: -5.661199665      1.408      4.091
REMARK  2 active torsions:
REMARK  status: ('A' for Active; 'I' for Inactive)
REMARK    1  A    between atoms: C2_2  and  C3_3 
REMARK    2  A    between atoms: C3_3  and  C4_4 
ROOT
HETATM    1  C4  UNL     1      -3.143  -3.998  17.032  1.00  0.00     0.394 C 
HETATM    2  N1  UNL     1      -1.903  -4.737  16.903  1.00  0.00    -0.021 N 
ATOM      3  H11 UNL     1      -1.191  -4.682  17.632  1.00  0.00     0.281 HD
ATOM      4  H12 UNL     1      -1.206  -4.457  16.212  1.00  0.00     0.281 HD
HETATM    5  C5  UNL     1      -2.661  -5.937  16.722  1.00  0.00     0.473 C 
HETATM    6  N2  UNL     1      -3.848  -5.230  17.110  1.00  0.00    -0.014 N 
HETATM    7  C6  UNL     1      -4.932  -5.433  16.201  1.00  0.00     0.242 C 
HETATM    8  C7  UNL     1      -6.139  -5.853  16.967  1.00  0.00     0.030 C 
HETATM    9  C8  UNL     1      -5.695  -6.024  18.383  1.00  0.00     0.030 C 
HETATM   10  C9  UNL     1      -4.303  -5.500  18.444  1.00  0.00     0.242 C 
ENDROOT
BRANCH   1  11
HETATM   11  C3  UNL     1      -3.395  -3.128  15.845  1.00  0.00     0.089 C 
BRANCH  11  12
HETATM   12  C2  UNL     1      -4.189  -1.960  16.280  1.00  0.00    -0.033 C 
HETATM   13  C1  UNL     1      -3.868  -0.724  15.952  1.00  0.00     0.007 C 
ENDBRANCH  11  12
ENDBRANCH   1  11
TORSDOF 2
ENDMDL
MODEL 4
REMARK VINA RESULT: -5.314462499      1.560      4.598
REMARK  2 active torsions:
REMARK  status: ('A' for Active; 'I' for Inactive)
REMARK    1  A    between atoms: C2_2  and  C3_3 
REMARK    2  A    between atoms: C3_3  and  C4_4 
ROOT
HETATM    1  C4  UNL     1      -2.891  -4.254  15.504  1.00  0.00     0.394 C 
HETATM    2  N1  UNL     1      -3.112  -2.822  15.467  1.00  0.00    -0.021 N 
ATOM      3  H11 UNL     1      -3.586  -2.394  14.671  1.00  0.00     0.281 HD
ATOM      4  H12 UNL     1      -2.329  -2.183  15.335  1.00  0.00     0.281 HD
HETATM    5  C5  UNL     1      -3.768  -2.912  16.736  1.00  0.00     0.473 C 
HETATM    6  N2  UNL     1      -3.765  -4.342  16.622  1.00  0.00    -0.014 N 
HETATM    7  C6  UNL     1      -3.276  -4.988  17.799  1.00  0.00     0.242 C 
HETATM    8  C7  UNL     1      -4.253  -6.026  18.229  1.00  0.00     0.030 C 
HETATM    9  C8  UNL     1      -5.433  -5.888  17.324  1.00  0.00     0.030 C 
HETATM   10  C9  UNL     1      -5.028  -4.923  16.265  1.00  0.00     0.242 C 
ENDROOT
BRANCH   1  11
HETATM   11  C3  UNL     1      -1.451  -4.585  15.722  1.00  0.00     0.089 C 
BRANCH  11  12
HETATM   12  C2  UNL     1      -0.655  -3.937  14.658  1.00  0.00    -0.033 C 
HETATM   13  C1  UNL     1       0.308  -3.075  14.921  1.00  0.00     0.007 C 
ENDBRANCH  11  12
ENDBRANCH   1  11
TORSDOF 2
ENDMDL
MODEL 5
REMARK VINA RESULT: -5.016495480      3.398      6.097
REMARK  2 active torsions:
REMARK  status: ('A' for Active; 'I' for Inactive)
REMARK    1  A    between atoms: C2_2  and  C3_3 
REMARK    2  A    between atoms: C3_3  and  C4_4 
ROOT
HETATM    1  C4  UNL     1      -7.595  -6.749  16.889  1.00  0.00     0.394 C 
HETATM    2  N1  UNL     1      -7.941  -5.723  17.852  1.00  0.00    -0.021 N 
ATOM      3  H11 UNL     1      -7.946  -4.740  17.579  1.00  0.00     0.281 HD
ATOM      4  H12 UNL     1      -7.305  -5.500  18.618  1.00  0.00     0.281 HD
HETATM    5  C5  UNL     1      -9.171  -6.408  18.109  1.00  0.00     0.473 C 
HETATM    6  N2  UNL     1      -8.921  -7.253  16.976  1.00  0.00    -0.014 N 
HETATM    7  C6  UNL     1      -9.086  -8.640  17.277  1.00  0.00     0.242 C 
HETATM    8  C7  UNL     1      -9.995  -9.254  16.268  1.00  0.00     0.030 C 
HETATM    9  C8  UNL     1     -10.484  -8.133  15.411  1.00  0.00     0.030 C 
HETATM   10  C9  UNL     1      -9.689  -6.937  15.805  1.00  0.00     0.242 C 
ENDROOT
BRANCH   1  11
HETATM   11  C3  UNL     1      -6.488  -7.620  17.383  1.00  0.00     0.089 C 
BRANCH  11  12
HETATM   12  C2  UNL     1      -5.378  -6.756  17.838  1.00  0.00    -0.033 C 
HETATM   13  C1  UNL     1      -4.124  -7.163  17.854  1.00  0.00     0.007 C 
ENDBRANCH  11  12
ENDBRANCH   1  11
TORSDOF 2
ENDMDL
