MODEL 1
REMARK VINA RESULT: -6.464914293      0.000      0.000
REMARK  3 active torsions:
REMARK  status: ('A' for Active; 'I' for Inactive)
REMARK    1  A    between atoms: C1_2  and  C2_3 
REMARK       I    between atoms: C1_2  and  N2_8 
REMARK    2  A    between atoms: C2_3  and  N1_4 
REMARK    3  A    between atoms: N2_8  and  C6_10 
ROOT
HETATM    1  O1  UNL     1      -5.259  -5.769  18.526  1.00  0.00    -0.272 OA
HETATM    2  C1  UNL     1      -5.227  -5.224  17.377  1.00  0.00     0.246 C 
HETATM    3  N2  UNL     1      -6.339  -5.396  16.546  1.00  0.00    -0.350 N 
ATOM      4  H2  UNL     1      -6.309  -4.959  15.624  1.00  0.00     0.163 HD
ENDROOT
BRANCH   3   5
HETATM    5  C6  UNL     1      -7.471  -6.110  16.875  1.00  0.00     0.033 C 
HETATM    6  C7  UNL     1      -8.482  -5.576  17.846  1.00  0.00     0.031 C 
HETATM    7  C8  UNL     1      -9.527  -6.709  17.748  1.00  0.00     0.007 C 
HETATM    8  C9  UNL     1      -8.866  -7.567  16.725  1.00  0.00    -0.010 C 
HETATM    9  C10 UNL     1      -8.385  -6.529  15.711  1.00  0.00     0.035 C 
HETATM   10  C11 UNL     1      -7.410  -7.562  17.213  1.00  0.00     0.035 C 
ENDBRANCH   3   5
BRANCH   2  11
HETATM   11  C2  UNL     1      -4.027  -4.465  17.023  1.00  0.00     0.374 C 
BRANCH  11  12
HETATM   12  N1  UNL     1      -4.244  -3.485  15.991  1.00  0.00     0.097 N 
HETATM   13  C3  UNL     1      -3.097  -3.068  15.255  1.00  0.00     0.275 C 
HETATM   14  C4  UNL     1      -3.609  -1.627  15.379  1.00  0.00     0.060 C 
HETATM   15  C5  UNL     1      -4.566  -2.155  16.442  1.00  0.00     0.275 C 
ENDBRANCH  11  12
ENDBRANCH   2  11
TORSDOF 3
ENDMDL
MODEL 2
REMARK VINA RESULT: -6.404015168      1.166      5.593
REMARK  3 active torsions:
REMARK  status: ('A' for Active; 'I' for Inactive)
REMARK    1  A    between atoms: C1_2  and  C2_3 
REMARK       I    between atoms: C1_2  and  N2_8 
REMARK    2  A    between atoms: C2_3  and  N1_4 
REMARK    3  A    between atoms: N2_8  and  C6_10 
ROOT
HETATM    1  O1  UNL     1      -3.900  -6.252  17.206  1.00  0.00    -0.272 OA
HETATM    2  C1  UNL     1      -5.121  -5.896  17.262  1.00  0.00     0.246 C 
HETATM    3  N2  UNL     1      -5.440  -4.603  16.834  1.00  0.00    -0.350 N 
ATOM      4  H2  UNL     1      -6.419  -4.320  16.882  1.00  0.00     0.163 HD
ENDROOT
BRANCH   3   5
HETATM    5  C6  UNL     1      -4.535  -3.681  16.353  1.00  0.00     0.033 C 
HETATM    6  C7  UNL     1      -4.859  -2.217  16.298  1.00  0.00     0.031 C 
HETATM    7  C8  UNL     1      -3.498  -1.692  15.788  1.00  0.00     0.007 C 
HETATM    8  C9  UNL     1      -2.746  -2.977  15.724  1.00  0.00    -0.010 C 
HETATM    9  C10 UNL     1      -3.158  -3.645  17.036  1.00  0.00     0.035 C 
HETATM   10  C11 UNL     1      -3.784  -3.910  15.084  1.00  0.00     0.035 C 
ENDBRANCH   3   5
BRANCH   2  11
HETATM   11  C2  UNL     1      -6.085  -6.871  17.771  1.00  0.00     0.374 C 
BRANCH  11  12
HETATM   12  N1  UNL     1      -7.273  -6.987  16.965  1.00  0.00     0.097 N 
HETATM   13  C3  UNL     1      -8.461  -6.403  17.492  1.00  0.00     0.275 C 
HETATM   14  C4  UNL     1      -9.212  -7.665  17.050  1.00  0.00     0.060 C 
HETATM   15  C5  UNL     1      -7.841  -8.307  16.867  1.00  0.00     0.275 C 
ENDBRANCH  11  12
ENDBRANCH   2  11
TORSDOF 3
ENDMDL
MODEL 3
REMARK VINA RESULT: -6.389560256      1.170      5.659
REMARK  3 active torsions:
REMARK  status: ('A' for Active; 'I' for Inactive)
REMARK    1  A    between atoms: C1_2  and  C2_3 
REMARK       I    between atoms: C1_2  and  N2_8 
REMARK    2  A    between atoms: C2_3  and  N1_4 
REMARK    3  A    between atoms: N2_8  and  C6_10 
ROOT
HETATM    1  O1  UNL     1      -5.274  -5.482  18.669  1.00  0.00    -0.272 OA
HETATM    2  C1  UNL     1      -6.061  -5.270  17.692  1.00  0.00     0.246 C 
HETATM    3  N2  UNL     1      -5.519  -4.703  16.534  1.00  0.00    -0.350 N 
ATOM      4  H2  UNL     1      -6.153  -4.533  15.752  1.00  0.00     0.163 HD
ENDROOT
BRANCH   3   5
HETATM    5  C6  UNL     1      -4.196  -4.356  16.365  1.00  0.00     0.033 C 
HETATM    6  C7  UNL     1      -3.087  -5.323  16.659  1.00  0.00     0.031 C 
HETATM    7  C8  UNL     1      -1.890  -4.453  16.214  1.00  0.00     0.007 C 
HETATM    8  C9  UNL     1      -2.624  -3.244  15.748  1.00  0.00    -0.010 C 
HETATM    9  C10 UNL     1      -3.784  -3.863  14.968  1.00  0.00     0.035 C 
HETATM   10  C11 UNL     1      -3.657  -3.059  16.869  1.00  0.00     0.035 C 
ENDBRANCH   3   5
BRANCH   2  11
HETATM   11  C2  UNL     1      -7.467  -5.636  17.865  1.00  0.00     0.374 C 
BRANCH  11  12
HETATM   12  N1  UNL     1      -7.915  -6.661  16.959  1.00  0.00     0.097 N 
HETATM   13  C3  UNL     1      -9.221  -7.185  17.184  1.00  0.00     0.275 C 
HETATM   14  C4  UNL     1      -8.641  -8.584  16.940  1.00  0.00     0.060 C 
HETATM   15  C5  UNL     1      -7.266  -7.941  17.084  1.00  0.00     0.275 C 
ENDBRANCH  11  12
ENDBRANCH   2  11
TORSDOF 3
ENDMDL
MODEL 4
REMARK VINA RESULT: -6.367268050      0.569      1.307
REMARK  3 active torsions:
REMARK  status: ('A' for Active; 'I' for Inactive)
REMARK    1  A    between atoms: C1_2  and  C2_3 
REMARK       I    between atoms: C1_2  and  N2_8 
REMARK    2  A    between atoms: C2_3  and  N1_4 
REMARK    3  A    between atoms: N2_8  and  C6_10 
ROOT
HETATM    1  O1  UNL     1      -5.014  -6.738  17.878  1.00  0.00    -0.272 OA
HETATM    2  C1  UNL     1      -5.285  -5.642  17.291  1.00  0.00     0.246 C 
HETATM    3  N2  UNL     1      -6.561  -5.502  16.736  1.00  0.00    -0.350 N 
ATOM      4  H2  UNL     1      -6.775  -4.622  16.265  1.00  0.00     0.163 HD
ENDROOT
BRANCH   3   5
HETATM    5  C6  UNL     1      -7.552  -6.459  16.776  1.00  0.00     0.033 C 
HETATM    6  C7  UNL     1      -7.241  -7.903  17.039  1.00  0.00     0.031 C 
HETATM    7  C8  UNL     1      -8.683  -8.457  17.061  1.00  0.00     0.007 C 
HETATM    8  C9  UNL     1      -9.437  -7.190  16.848  1.00  0.00    -0.010 C 
HETATM    9  C10 UNL     1      -8.698  -6.226  17.775  1.00  0.00     0.035 C 
HETATM   10  C11 UNL     1      -8.616  -6.527  15.732  1.00  0.00     0.035 C 
ENDBRANCH   3   5
BRANCH   2  11
HETATM   11  C2  UNL     1      -4.236  -4.622  17.247  1.00  0.00     0.374 C 
BRANCH  11  12
HETATM   12  N1  UNL     1      -4.323  -3.752  16.104  1.00  0.00     0.097 N 
HETATM   13  C3  UNL     1      -3.097  -3.432  15.451  1.00  0.00     0.275 C 
HETATM   14  C4  UNL     1      -3.580  -1.978  15.375  1.00  0.00     0.060 C 
HETATM   15  C5  UNL     1      -4.653  -2.377  16.382  1.00  0.00     0.275 C 
ENDBRANCH  11  12
ENDBRANCH   2  11
TORSDOF 3
ENDMDL
MODEL 5
REMARK VINA RESULT: -6.308465498      1.801      2.456
REMARK  3 active torsions:
REMARK  status: ('A' for Active; 'I' for Inactive)
REMARK    1  A    between atoms: C1_2  and  C2_3 
REMARK       I    between atoms: C1_2  and  N2_8 
REMARK    2  A    between atoms: C2_3  and  N1_4 
REMARK    3  A    between atoms: N2_8  and  C6_10 
ROOT
HETATM    1  O1  UNL     1      -3.657  -6.834  17.491  1.00  0.00    -0.272 OA
HETATM    2  C1  UNL     1      -3.858  -5.577  17.474  1.00  0.00     0.246 C 
HETATM    3  N2  UNL     1      -5.178  -5.133  17.343  1.00  0.00    -0.350 N 
ATOM      4  H2  UNL     1      -5.336  -4.125  17.328  1.00  0.00     0.163 HD
ENDROOT
BRANCH   3   5
HETATM    5  C6  UNL     1      -6.282  -5.951  17.233  1.00  0.00     0.033 C 
HETATM    6  C7  UNL     1      -6.188  -7.433  17.451  1.00  0.00     0.031 C 
HETATM    7  C8  UNL     1      -7.683  -7.790  17.299  1.00  0.00     0.007 C 
HETATM    8  C9  UNL     1      -8.242  -6.427  17.078  1.00  0.00    -0.010 C 
HETATM    9  C10 UNL     1      -7.488  -5.606  18.124  1.00  0.00     0.035 C 
HETATM   10  C11 UNL     1      -7.229  -5.837  16.086  1.00  0.00     0.035 C 
ENDBRANCH   3   5
BRANCH   2  11
HETATM   11  C2  UNL     1      -2.689  -4.705  17.590  1.00  0.00     0.374 C 
BRANCH  11  12
HETATM   12  N1  UNL     1      -1.742  -4.859  16.517  1.00  0.00     0.097 N 
HETATM   13  C3  UNL     1      -0.453  -4.286  16.716  1.00  0.00     0.275 C 
HETATM   14  C4  UNL     1      -0.525  -3.759  15.278  1.00  0.00     0.060 C 
HETATM   15  C5  UNL     1      -2.011  -4.096  15.325  1.00  0.00     0.275 C 
ENDBRANCH  11  12
ENDBRANCH   2  11
TORSDOF 3
ENDMDL
