MODEL 1
REMARK VINA RESULT: -7.703946986      0.000      0.000
REMARK  4 active torsions:
REMARK  status: ('A' for Active; 'I' for Inactive)
REMARK    1  A    between atoms: C3_3  and  C4_4 
REMARK       I    between atoms: N1_7  and  C7_8 
REMARK    2  A    between atoms: C7_8  and  C8_10 
REMARK    3  A    between atoms: C8_10  and  C9_11 
REMARK    4  A    between atoms: C9_11  and  N2_12 
ROOT
HETATM    1  C1  UNL     1      -8.797  -7.105  17.097  1.00  0.00     0.012 C 
HETATM    2  C2  UNL     1      -7.860  -6.471  17.527  1.00  0.00    -0.117 C 
HETATM    3  C3  UNL     1      -6.754  -5.713  18.064  1.00  0.00     0.097 C 
ENDROOT
BRANCH   3   4
HETATM    4  C4  UNL     1      -5.550  -5.708  17.152  1.00  0.00    -0.000 C 
HETATM    5  C5  UNL     1      -4.297  -6.152  17.811  1.00  0.00     0.025 C 
HETATM    6  C6  UNL     1      -3.360  -5.001  17.953  1.00  0.00     0.126 C 
HETATM    7  N1  UNL     1      -3.043  -4.476  16.643  1.00  0.00    -0.352 N 
HETATM    8  C7  UNL     1      -1.676  -4.367  16.296  1.00  0.00     0.221 C 
HETATM    9  C10 UNL     1      -4.148  -4.112  15.805  1.00  0.00     0.126 C 
HETATM   10  O1  UNL     1      -0.757  -4.708  17.086  1.00  0.00    -0.273 OA
HETATM   11  C11 UNL     1      -5.481  -4.392  16.452  1.00  0.00     0.025 C 
BRANCH   8  12
HETATM   12  C8  UNL     1      -1.289  -3.826  14.941  1.00  0.00     0.130 C 
BRANCH  12  13
HETATM   13  C9  UNL     1       0.171  -3.417  14.964  1.00  0.00     0.238 C 
BRANCH  13  14
HETATM   14  N2  UNL     1       0.346  -2.001  14.896  1.00  0.00    -0.079 N 
ATOM     15  H23 UNL     1      -0.096  -1.617  14.061  1.00  0.00     0.274 HD
ATOM     16  H22 UNL     1      -0.211  -1.528  15.608  1.00  0.00     0.274 HD
ATOM     17  H21 UNL     1       1.325  -1.724  14.954  1.00  0.00     0.274 HD
ENDBRANCH  13  14
ENDBRANCH  12  13
ENDBRANCH   8  12
ENDBRANCH   3   4
TORSDOF 4
ENDMDL
MODEL 2
REMARK VINA RESULT: -7.452691866      1.611      2.339
REMARK  4 active torsions:
REMARK  status: ('A' for Active; 'I' for Inactive)
REMARK    1  A    between atoms: C3_3  and  C4_4 
REMARK       I    between atoms: N1_7  and  C7_8 
REMARK    2  A    between atoms: C7_8  and  C8_10 
REMARK    3  A    between atoms: C8_10  and  C9_11 
REMARK    4  A    between atoms: C9_11  and  N2_12 
ROOT
HETATM    1  C1  UNL     1     -10.029  -6.149  17.727  1.00  0.00     0.012 C 
HETATM    2  C2  UNL     1      -8.953  -6.658  17.509  1.00  0.00    -0.117 C 
HETATM    3  C3  UNL     1      -7.680  -7.281  17.231  1.00  0.00     0.097 C 
ENDROOT
BRANCH   3   4
HETATM    4  C4  UNL     1      -6.515  -6.518  17.815  1.00  0.00    -0.000 C 
HETATM    5  C5  UNL     1      -6.553  -5.061  17.538  1.00  0.00     0.025 C 
HETATM    6  C6  UNL     1      -5.460  -4.692  16.593  1.00  0.00     0.126 C 
HETATM    7  N1  UNL     1      -4.183  -5.025  17.184  1.00  0.00    -0.352 N 
HETATM    8  C7  UNL     1      -3.214  -3.998  17.269  1.00  0.00     0.221 C 
HETATM    9  C10 UNL     1      -4.010  -6.375  17.636  1.00  0.00     0.126 C 
HETATM   10  O1  UNL     1      -3.438  -2.832  16.850  1.00  0.00    -0.273 OA
HETATM   11  C11 UNL     1      -5.248  -7.213  17.443  1.00  0.00     0.025 C 
BRANCH   8  12
HETATM   12  C8  UNL     1      -1.865  -4.291  17.877  1.00  0.00     0.130 C 
BRANCH  12  13
HETATM   13  C9  UNL     1      -0.859  -4.539  16.769  1.00  0.00     0.238 C 
BRANCH  13  14
HETATM   14  N2  UNL     1      -1.068  -3.691  15.639  1.00  0.00    -0.079 N 
ATOM     15  H23 UNL     1      -2.061  -3.506  15.498  1.00  0.00     0.274 HD
ATOM     16  H22 UNL     1      -0.750  -2.741  15.829  1.00  0.00     0.274 HD
ATOM     17  H21 UNL     1      -0.639  -4.058  14.790  1.00  0.00     0.274 HD
ENDBRANCH  13  14
ENDBRANCH  12  13
ENDBRANCH   8  12
ENDBRANCH   3   4
TORSDOF 4
ENDMDL
MODEL 3
REMARK VINA RESULT: -7.308935638      1.296      1.846
REMARK  4 active torsions:
REMARK  status: ('A' for Active; 'I' for Inactive)
REMARK    1  A    between atoms: C3_3  and  C4_4 
REMARK       I    between atoms: N1_7  and  C7_8 
REMARK    2  A    between atoms: C7_8  and  C8_10 
REMARK    3  A    between atoms: C8_10  and  C9_11 
REMARK    4  A    between atoms: C9_11  and  N2_12 
ROOT
HETATM    1  C1  UNL     1      -8.971  -5.004  18.255  1.00  0.00     0.012 C 
HETATM    2  C2  UNL     1      -7.978  -5.665  18.051  1.00  0.00    -0.117 C 
HETATM    3  C3  UNL     1      -6.807  -6.474  17.800  1.00  0.00     0.097 C 
ENDROOT
BRANCH   3   4
HETATM    4  C4  UNL     1      -5.529  -5.671  17.800  1.00  0.00    -0.000 C 
HETATM    5  C5  UNL     1      -5.623  -4.392  17.053  1.00  0.00     0.025 C 
HETATM    6  C6  UNL     1      -4.794  -4.462  15.815  1.00  0.00     0.126 C 
HETATM    7  N1  UNL     1      -3.413  -4.695  16.177  1.00  0.00    -0.352 N 
HETATM    8  C7  UNL     1      -2.446  -3.792  15.677  1.00  0.00     0.221 C 
HETATM    9  C10 UNL     1      -3.144  -5.826  17.017  1.00  0.00     0.126 C 
HETATM   10  O1  UNL     1      -2.757  -2.817  14.944  1.00  0.00    -0.273 OA
HETATM   11  C11 UNL     1      -4.397  -6.563  17.413  1.00  0.00     0.025 C 
BRANCH   8  12
HETATM   12  C8  UNL     1      -0.990  -3.987  16.024  1.00  0.00     0.130 C 
BRANCH  12  13
HETATM   13  C9  UNL     1      -0.133  -3.564  14.847  1.00  0.00     0.238 C 
BRANCH  13  14
HETATM   14  N2  UNL     1       0.226  -2.182  14.899  1.00  0.00    -0.079 N 
ATOM     15  H23 UNL     1       0.027  -1.718  14.013  1.00  0.00     0.274 HD
ATOM     16  H22 UNL     1      -0.409  -1.660  15.503  1.00  0.00     0.274 HD
ATOM     17  H21 UNL     1       1.196  -2.040  15.178  1.00  0.00     0.274 HD
ENDBRANCH  13  14
ENDBRANCH  12  13
ENDBRANCH   8  12
ENDBRANCH   3   4
TORSDOF 4
ENDMDL
MODEL 4
REMARK VINA RESULT: -7.212635452      3.890      6.909
REMARK  4 active torsions:
REMARK  status: ('A' for Active; 'I' for Inactive)
REMARK    1  A    between atoms: C3_3  and  C4_4 
REMARK       I    between atoms: N1_7  and  C7_8 
REMARK    2  A    between atoms: C7_8  and  C8_10 
REMARK    3  A    between atoms: C8_10  and  C9_11 
REMARK    4  A    between atoms: C9_11  and  N2_12 
ROOT
HETATM    1  C1  UNL     1      -4.157  -1.625  16.394  1.00  0.00     0.012 C 
HETATM    2  C2  UNL     1      -3.866  -2.735  16.778  1.00  0.00    -0.117 C 
HETATM    3  C3  UNL     1      -3.502  -4.050  17.254  1.00  0.00     0.097 C 
ENDROOT
BRANCH   3   4
HETATM    4  C4  UNL     1      -4.438  -5.130  16.766  1.00  0.00    -0.000 C 
HETATM    5  C5  UNL     1      -5.795  -4.637  16.423  1.00  0.00     0.025 C 
HETATM    6  C6  UNL     1      -6.789  -5.151  17.409  1.00  0.00     0.126 C 
HETATM    7  N1  UNL     1      -6.791  -6.597  17.377  1.00  0.00    -0.352 N 
HETATM    8  C7  UNL     1      -8.031  -7.244  17.167  1.00  0.00     0.221 C 
HETATM    9  C10 UNL     1      -5.528  -7.252  17.561  1.00  0.00     0.126 C 
HETATM   10  O1  UNL     1      -9.102  -6.601  17.012  1.00  0.00    -0.273 OA
HETATM   11  C11 UNL     1      -4.389  -6.278  17.717  1.00  0.00     0.025 C 
BRANCH   8  12
HETATM   12  C8  UNL     1      -8.090  -8.751  17.124  1.00  0.00     0.130 C 
BRANCH  12  13
HETATM   13  C9  UNL     1      -9.536  -9.192  17.001  1.00  0.00     0.238 C 
BRANCH  13  14
HETATM   14  N2  UNL     1      -9.823 -10.356  17.779  1.00  0.00    -0.079 N 
ATOM     15  H23 UNL     1      -9.117 -11.077  17.633  1.00  0.00     0.274 HD
ATOM     16  H22 UNL     1      -9.674 -10.179  18.772  1.00  0.00     0.274 HD
ATOM     17  H21 UNL     1     -10.760 -10.720  17.608  1.00  0.00     0.274 HD
ENDBRANCH  13  14
ENDBRANCH  12  13
ENDBRANCH   8  12
ENDBRANCH   3   4
TORSDOF 4
ENDMDL
MODEL 5
REMARK VINA RESULT: -7.170940995      2.281      2.936
REMARK  4 active torsions:
REMARK  status: ('A' for Active; 'I' for Inactive)
REMARK    1  A    between atoms: C3_3  and  C4_4 
REMARK       I    between atoms: N1_7  and  C7_8 
REMARK    2  A    between atoms: C7_8  and  C8_10 
REMARK    3  A    between atoms: C8_10  and  C9_11 
REMARK    4  A    between atoms: C9_11  and  N2_12 
ROOT
HETATM    1  C1  UNL     1      -9.898  -5.764  17.744  1.00  0.00     0.012 C 
HETATM    2  C2  UNL     1      -8.876  -6.383  17.554  1.00  0.00    -0.117 C 
HETATM    3  C3  UNL     1      -7.668  -7.139  17.311  1.00  0.00     0.097 C 
ENDROOT
BRANCH   3   4
HETATM    4  C4  UNL     1      -6.431  -6.451  17.835  1.00  0.00    -0.000 C 
HETATM    5  C5  UNL     1      -6.353  -5.010  17.486  1.00  0.00     0.025 C 
HETATM    6  C6  UNL     1      -5.254  -4.782  16.505  1.00  0.00     0.126 C 
HETATM    7  N1  UNL     1      -3.996  -5.193  17.090  1.00  0.00    -0.352 N 
HETATM    8  C7  UNL     1      -2.943  -4.249  17.106  1.00  0.00     0.221 C 
HETATM    9  C10 UNL     1      -3.928  -6.530  17.606  1.00  0.00     0.126 C 
HETATM   10  O1  UNL     1      -3.077  -3.090  16.633  1.00  0.00    -0.273 OA
HETATM   11  C11 UNL     1      -5.235  -7.268  17.476  1.00  0.00     0.025 C 
BRANCH   8  12
HETATM   12  C8  UNL     1      -1.610  -4.626  17.705  1.00  0.00     0.130 C 
BRANCH  12  13
HETATM   13  C9  UNL     1      -1.570  -4.184  19.155  1.00  0.00     0.238 C 
BRANCH  13  14
HETATM   14  N2  UNL     1      -1.203  -5.243  20.041  1.00  0.00    -0.079 N 
ATOM     15  H23 UNL     1      -0.604  -5.923  19.572  1.00  0.00     0.274 HD
ATOM     16  H22 UNL     1      -0.551  -4.916  20.754  1.00  0.00     0.274 HD
ATOM     17  H21 UNL     1      -2.011  -5.697  20.465  1.00  0.00     0.274 HD
ENDBRANCH  13  14
ENDBRANCH  12  13
ENDBRANCH   8  12
ENDBRANCH   3   4
TORSDOF 4
ENDMDL
