MODEL 1
REMARK VINA RESULT: -8.094251496      0.000      0.000
REMARK  3 active torsions:
REMARK  status: ('A' for Active; 'I' for Inactive)
REMARK    1  A    between atoms: C1_2  and  C2_4 
REMARK    2  A    between atoms: C2_4  and  C8_13 
REMARK       I    between atoms: N2_5  and  C3_7 
REMARK    3  A    between atoms: C3_7  and  C4_9 
ROOT
HETATM    1  C2  UNL     1      -3.146  -4.424  16.228  1.00  0.00     0.081 C 
HETATM    2  N2  UNL     1      -3.360  -5.302  17.109  1.00  0.00    -0.326 N 
ATOM      3  H2  UNL     1      -2.586  -5.926  17.336  1.00  0.00     0.168 HD
HETATM    4  C3  UNL     1      -4.564  -5.501  17.805  1.00  0.00     0.226 C 
HETATM    5  O2  UNL     1      -4.571  -5.288  19.063  1.00  0.00    -0.273 OA
ENDROOT
BRANCH   1   6
HETATM    6  C1  UNL     1      -1.823  -4.358  15.601  1.00  0.00     0.277 C 
HETATM    7  N1  UNL     1      -0.616  -4.315  16.353  1.00  0.00    -0.056 NA
HETATM    8  O1  UNL     1      -1.694  -4.336  14.341  1.00  0.00    -0.270 OA
ENDBRANCH   1   6
BRANCH   1   9
HETATM    9  C8  UNL     1      -4.160  -3.458  15.786  1.00  0.00     0.041 A 
HETATM   10  C9  UNL     1      -3.719  -2.080  15.332  1.00  0.00     0.011 A 
HETATM   11  C10 UNL     1      -4.387  -2.245  16.645  1.00  0.00     0.011 A 
ENDBRANCH   1   9
BRANCH   4  12
HETATM   12  C4  UNL     1      -5.758  -5.942  17.073  1.00  0.00     0.078 C 
HETATM   13  C5  UNL     1      -7.076  -5.454  17.636  1.00  0.00     0.014 C 
HETATM   14  C6  UNL     1      -7.641  -6.832  17.350  1.00  0.00     0.002 C 
HETATM   15  C7  UNL     1      -6.224  -7.358  17.446  1.00  0.00     0.014 C 
ENDBRANCH   4  12
TORSDOF 3
ENDMDL
MODEL 2
REMARK VINA RESULT: -7.345533766      1.938      2.451
REMARK  3 active torsions:
REMARK  status: ('A' for Active; 'I' for Inactive)
REMARK    1  A    between atoms: C1_2  and  C2_4 
REMARK    2  A    between atoms: C2_4  and  C8_13 
REMARK       I    between atoms: N2_5  and  C3_7 
REMARK    3  A    between atoms: C3_7  and  C4_9 
ROOT
HETATM    1  C2  UNL     1      -4.827  -5.240  17.419  1.00  0.00     0.081 C 
HETATM    2  N2  UNL     1      -5.730  -5.735  18.149  1.00  0.00    -0.326 N 
ATOM      3  H2  UNL     1      -5.425  -6.290  18.947  1.00  0.00     0.168 HD
HETATM    4  C3  UNL     1      -7.115  -5.591  17.964  1.00  0.00     0.226 C 
HETATM    5  O2  UNL     1      -7.774  -4.948  18.848  1.00  0.00    -0.273 OA
ENDROOT
BRANCH   1   6
HETATM    6  C1  UNL     1      -3.424  -5.493  17.760  1.00  0.00     0.277 C 
HETATM    7  N1  UNL     1      -2.905  -5.301  19.070  1.00  0.00    -0.056 NA
HETATM    8  O1  UNL     1      -2.598  -5.898  16.889  1.00  0.00    -0.270 OA
ENDBRANCH   1   6
BRANCH   1   9
HETATM    9  C8  UNL     1      -5.104  -4.425  16.230  1.00  0.00     0.041 A 
HETATM   10  C9  UNL     1      -3.945  -3.811  15.468  1.00  0.00     0.011 A 
HETATM   11  C10 UNL     1      -4.810  -2.952  16.312  1.00  0.00     0.011 A 
ENDBRANCH   1   9
BRANCH   4  12
HETATM   12  C4  UNL     1      -7.751  -6.177  16.777  1.00  0.00     0.078 C 
HETATM   13  C5  UNL     1      -9.265  -6.169  16.788  1.00  0.00     0.014 C 
HETATM   14  C6  UNL     1      -9.219  -7.563  16.195  1.00  0.00     0.002 C 
HETATM   15  C7  UNL     1      -7.847  -7.711  16.823  1.00  0.00     0.014 C 
ENDBRANCH   4  12
TORSDOF 3
ENDMDL
MODEL 3
REMARK VINA RESULT: -7.271855936      1.314      4.498
REMARK  3 active torsions:
REMARK  status: ('A' for Active; 'I' for Inactive)
REMARK    1  A    between atoms: C1_2  and  C2_4 
REMARK    2  A    between atoms: C2_4  and  C8_13 
REMARK       I    between atoms: N2_5  and  C3_7 
REMARK    3  A    between atoms: C3_7  and  C4_9 
ROOT
HETATM    1  C2  UNL     1      -3.790  -5.389  17.105  1.00  0.00     0.081 C 
HETATM    2  N2  UNL     1      -2.905  -4.674  16.559  1.00  0.00    -0.326 N 
ATOM      3  H2  UNL     1      -1.977  -4.684  16.983  1.00  0.00     0.168 HD
HETATM    4  C3  UNL     1      -3.077  -3.866  15.423  1.00  0.00     0.226 C 
HETATM    5  O2  UNL     1      -2.437  -4.177  14.364  1.00  0.00    -0.273 OA
ENDROOT
BRANCH   1   6
HETATM    6  C1  UNL     1      -3.434  -6.173  18.291  1.00  0.00     0.277 C 
HETATM    7  N1  UNL     1      -3.053  -5.573  19.523  1.00  0.00    -0.056 NA
HETATM    8  O1  UNL     1      -3.450  -7.440  18.270  1.00  0.00    -0.270 OA
ENDBRANCH   1   6
BRANCH   1   9
HETATM    9  C8  UNL     1      -5.173  -5.474  16.619  1.00  0.00     0.041 A 
HETATM   10  C9  UNL     1      -6.289  -4.885  17.460  1.00  0.00     0.011 A 
HETATM   11  C10 UNL     1      -6.124  -6.356  17.381  1.00  0.00     0.011 A 
ENDBRANCH   1   9
BRANCH   4  12
HETATM   12  C4  UNL     1      -3.974  -2.706  15.490  1.00  0.00     0.078 C 
HETATM   13  C5  UNL     1      -3.376  -1.400  15.012  1.00  0.00     0.014 C 
HETATM   14  C6  UNL     1      -4.074  -0.722  16.174  1.00  0.00     0.002 C 
HETATM   15  C7  UNL     1      -4.047  -2.060  16.883  1.00  0.00     0.014 C 
ENDBRANCH   4  12
TORSDOF 3
ENDMDL
MODEL 4
REMARK VINA RESULT: -6.988877967      0.955      1.285
REMARK  3 active torsions:
REMARK  status: ('A' for Active; 'I' for Inactive)
REMARK    1  A    between atoms: C1_2  and  C2_4 
REMARK    2  A    between atoms: C2_4  and  C8_13 
REMARK       I    between atoms: N2_5  and  C3_7 
REMARK    3  A    between atoms: C3_7  and  C4_9 
ROOT
HETATM    1  C2  UNL     1      -2.899  -4.330  16.328  1.00  0.00     0.081 C 
HETATM    2  N2  UNL     1      -3.036  -5.493  16.797  1.00  0.00    -0.326 N 
ATOM      3  H2  UNL     1      -2.572  -6.250  16.295  1.00  0.00     0.168 HD
HETATM    4  C3  UNL     1      -3.767  -5.843  17.945  1.00  0.00     0.226 C 
HETATM    5  O2  UNL     1      -3.125  -6.308  18.945  1.00  0.00    -0.273 OA
ENDROOT
BRANCH   1   6
HETATM    6  C1  UNL     1      -2.098  -4.145  15.115  1.00  0.00     0.277 C 
HETATM    7  N1  UNL     1      -0.742  -3.720  15.146  1.00  0.00    -0.056 NA
HETATM    8  O1  UNL     1      -2.588  -4.359  13.965  1.00  0.00    -0.270 OA
ENDBRANCH   1   6
BRANCH   1   9
HETATM    9  C8  UNL     1      -3.512  -3.138  16.930  1.00  0.00     0.041 A 
HETATM   10  C9  UNL     1      -4.736  -2.527  16.276  1.00  0.00     0.011 A 
HETATM   11  C10 UNL     1      -3.423  -1.848  16.162  1.00  0.00     0.011 A 
ENDBRANCH   1   9
BRANCH   4  12
HETATM   12  C4  UNL     1      -5.224  -5.667  17.956  1.00  0.00     0.078 C 
HETATM   13  C5  UNL     1      -6.029  -6.948  17.902  1.00  0.00     0.014 C 
HETATM   14  C6  UNL     1      -6.974  -6.246  16.948  1.00  0.00     0.002 C 
HETATM   15  C7  UNL     1      -5.818  -5.341  16.576  1.00  0.00     0.014 C 
ENDBRANCH   4  12
TORSDOF 3
ENDMDL
MODEL 5
REMARK VINA RESULT: -6.822770590      2.040      2.692
REMARK  3 active torsions:
REMARK  status: ('A' for Active; 'I' for Inactive)
REMARK    1  A    between atoms: C1_2  and  C2_4 
REMARK    2  A    between atoms: C2_4  and  C8_13 
REMARK       I    between atoms: N2_5  and  C3_7 
REMARK    3  A    between atoms: C3_7  and  C4_9 
ROOT
HETATM    1  C2  UNL     1      -2.102  -4.843  17.135  1.00  0.00     0.081 C 
HETATM    2  N2  UNL     1      -2.871  -5.772  16.766  1.00  0.00    -0.326 N 
ATOM      3  H2  UNL     1      -2.769  -6.103  15.807  1.00  0.00     0.168 HD
HETATM    4  C3  UNL     1      -3.856  -6.393  17.552  1.00  0.00     0.226 C 
HETATM    5  O2  UNL     1      -3.703  -7.627  17.839  1.00  0.00    -0.273 OA
ENDROOT
BRANCH   1   6
HETATM    6  C1  UNL     1      -1.128  -4.309  16.179  1.00  0.00     0.277 C 
HETATM    7  N1  UNL     1      -1.507  -3.739  14.933  1.00  0.00    -0.056 NA
HETATM    8  O1  UNL     1       0.115  -4.333  16.425  1.00  0.00    -0.270 OA
ENDBRANCH   1   6
BRANCH   1   9
HETATM    9  C8  UNL     1      -2.132  -4.254  18.480  1.00  0.00     0.041 A 
HETATM   10  C9  UNL     1      -0.835  -4.109  19.252  1.00  0.00     0.011 A 
HETATM   11  C10 UNL     1      -1.810  -5.155  19.641  1.00  0.00     0.011 A 
ENDBRANCH   1   9
BRANCH   4  12
HETATM   12  C4  UNL     1      -5.014  -5.615  18.010  1.00  0.00     0.078 C 
HETATM   13  C5  UNL     1      -6.336  -6.353  17.989  1.00  0.00     0.014 C 
HETATM   14  C6  UNL     1      -6.972  -5.079  17.470  1.00  0.00     0.002 C 
HETATM   15  C7  UNL     1      -5.610  -4.699  16.928  1.00  0.00     0.014 C 
ENDBRANCH   4  12
TORSDOF 3
ENDMDL
