MODEL 1
REMARK VINA RESULT: -8.353661582      0.000      0.000
REMARK  3 active torsions:
REMARK  status: ('A' for Active; 'I' for Inactive)
REMARK       I    between atoms: C1_2  and  N1_3 
REMARK    1  A    between atoms: C1_2  and  C5_8 
REMARK    2  A    between atoms: N1_3  and  C2_5 
REMARK    3  A    between atoms: C5_8  and  C6_10 
ROOT
HETATM    1  C5  UNL     1      -3.088  -5.111  17.126  1.00  0.00     0.221 C 
HETATM    2  O2  UNL     1      -1.935  -5.550  16.895  1.00  0.00    -0.287 OA
ENDROOT
BRANCH   1   3
HETATM    3  C1  UNL     1      -4.082  -6.076  17.566  1.00  0.00     0.288 C 
HETATM    4  O1  UNL     1      -3.685  -7.132  18.110  1.00  0.00    -0.264 OA
HETATM    5  N1  UNL     1      -5.472  -5.887  17.414  1.00  0.00    -0.350 N 
ATOM      6  H1  UNL     1      -5.814  -5.033  16.974  1.00  0.00     0.163 HD
BRANCH   5   7
HETATM    7  C2  UNL     1      -6.418  -6.873  17.866  1.00  0.00     0.085 A 
HETATM    8  C3  UNL     1      -7.107  -7.733  16.850  1.00  0.00     0.027 A 
HETATM    9  C4  UNL     1      -7.857  -6.591  17.433  1.00  0.00     0.027 A 
ENDBRANCH   5   7
ENDBRANCH   1   3
BRANCH   1  10
HETATM   10  C6  UNL     1      -3.369  -3.682  16.945  1.00  0.00     0.074 C 
HETATM   11  C7  UNL     1      -2.827  -3.080  15.649  1.00  0.00    -0.002 C 
HETATM   12  C8  UNL     1      -3.268  -1.659  15.761  1.00  0.00     0.006 C 
HETATM   13  C11 UNL     1      -4.045  -3.733  14.990  1.00  0.00     0.011 C 
HETATM   14  C9  UNL     1      -4.711  -1.880  16.263  1.00  0.00     0.006 C 
HETATM   15  C10 UNL     1      -4.712  -3.377  16.328  1.00  0.00    -0.002 C 
ENDBRANCH   1  10
TORSDOF 3
ENDMDL
MODEL 2
REMARK VINA RESULT: -7.544608144      1.665      4.873
REMARK  3 active torsions:
REMARK  status: ('A' for Active; 'I' for Inactive)
REMARK       I    between atoms: C1_2  and  N1_3 
REMARK    1  A    between atoms: C1_2  and  C5_8 
REMARK    2  A    between atoms: N1_3  and  C2_5 
REMARK    3  A    between atoms: C5_8  and  C6_10 
ROOT
HETATM    1  C5  UNL     1      -3.211  -5.149  16.564  1.00  0.00     0.221 C 
HETATM    2  O2  UNL     1      -2.160  -5.575  17.104  1.00  0.00    -0.287 OA
ENDROOT
BRANCH   1   3
HETATM    3  C1  UNL     1      -3.131  -3.859  15.899  1.00  0.00     0.288 C 
HETATM    4  O1  UNL     1      -2.697  -3.822  14.723  1.00  0.00    -0.264 OA
HETATM    5  N1  UNL     1      -3.518  -2.645  16.505  1.00  0.00    -0.350 N 
ATOM      6  H1  UNL     1      -3.875  -2.656  17.460  1.00  0.00     0.163 HD
BRANCH   5   7
HETATM    7  C2  UNL     1      -3.421  -1.392  15.804  1.00  0.00     0.085 A 
HETATM    8  C3  UNL     1      -3.285  -0.128  16.599  1.00  0.00     0.027 A 
HETATM    9  C4  UNL     1      -4.616  -0.465  16.030  1.00  0.00     0.027 A 
ENDBRANCH   5   7
ENDBRANCH   1   3
BRANCH   1  10
HETATM   10  C6  UNL     1      -4.435  -5.954  16.629  1.00  0.00     0.074 C 
HETATM   11  C7  UNL     1      -4.569  -6.822  17.880  1.00  0.00    -0.002 C 
HETATM   12  C8  UNL     1      -5.881  -7.493  17.651  1.00  0.00     0.006 C 
HETATM   13  C11 UNL     1      -4.999  -5.525  18.572  1.00  0.00     0.011 C 
HETATM   14  C9  UNL     1      -6.701  -6.285  17.150  1.00  0.00     0.006 C 
HETATM   15  C10 UNL     1      -5.632  -5.237  17.202  1.00  0.00    -0.002 C 
ENDBRANCH   1  10
TORSDOF 3
ENDMDL
MODEL 3
REMARK VINA RESULT: -7.513682453      1.351      2.139
REMARK  3 active torsions:
REMARK  status: ('A' for Active; 'I' for Inactive)
REMARK       I    between atoms: C1_2  and  N1_3 
REMARK    1  A    between atoms: C1_2  and  C5_8 
REMARK    2  A    between atoms: N1_3  and  C2_5 
REMARK    3  A    between atoms: C5_8  and  C6_10 
ROOT
HETATM    1  C5  UNL     1      -3.995  -5.981  17.718  1.00  0.00     0.221 C 
HETATM    2  O2  UNL     1      -3.266  -6.360  18.668  1.00  0.00    -0.287 OA
ENDROOT
BRANCH   1   3
HETATM    3  C1  UNL     1      -5.429  -6.158  17.879  1.00  0.00     0.288 C 
HETATM    4  O1  UNL     1      -6.060  -5.312  18.556  1.00  0.00    -0.264 OA
HETATM    5  N1  UNL     1      -6.150  -7.230  17.313  1.00  0.00    -0.350 N 
ATOM      6  H1  UNL     1      -5.654  -7.927  16.759  1.00  0.00     0.163 HD
BRANCH   5   7
HETATM    7  C2  UNL     1      -7.570  -7.362  17.501  1.00  0.00     0.085 A 
HETATM    8  C3  UNL     1      -8.277  -8.527  16.877  1.00  0.00     0.027 A 
HETATM    9  C4  UNL     1      -8.380  -7.202  16.213  1.00  0.00     0.027 A 
ENDBRANCH   5   7
ENDBRANCH   1   3
BRANCH   1  10
HETATM   10  C6  UNL     1      -3.379  -5.393  16.523  1.00  0.00     0.074 C 
HETATM   11  C7  UNL     1      -4.082  -4.148  15.984  1.00  0.00    -0.002 C 
HETATM   12  C8  UNL     1      -3.236  -3.802  14.805  1.00  0.00     0.006 C 
HETATM   13  C11 UNL     1      -3.357  -3.411  17.114  1.00  0.00     0.011 C 
HETATM   14  C9  UNL     1      -1.837  -4.000  15.429  1.00  0.00     0.006 C 
HETATM   15  C10 UNL     1      -2.251  -4.431  16.803  1.00  0.00    -0.002 C 
ENDBRANCH   1  10
TORSDOF 3
ENDMDL
MODEL 4
REMARK VINA RESULT: -7.452177924      1.260      4.642
REMARK  3 active torsions:
REMARK  status: ('A' for Active; 'I' for Inactive)
REMARK       I    between atoms: C1_2  and  N1_3 
REMARK    1  A    between atoms: C1_2  and  C5_8 
REMARK    2  A    between atoms: N1_3  and  C2_5 
REMARK    3  A    between atoms: C5_8  and  C6_10 
ROOT
HETATM    1  C5  UNL     1      -4.579  -6.205  17.740  1.00  0.00     0.221 C 
HETATM    2  O2  UNL     1      -3.895  -7.243  17.556  1.00  0.00    -0.287 OA
ENDROOT
BRANCH   1   3
HETATM    3  C1  UNL     1      -3.887  -4.933  17.623  1.00  0.00     0.288 C 
HETATM    4  O1  UNL     1      -2.877  -4.737  18.339  1.00  0.00    -0.264 OA
HETATM    5  N1  UNL     1      -4.290  -3.905  16.744  1.00  0.00    -0.350 N 
ATOM      6  H1  UNL     1      -5.108  -4.047  16.153  1.00  0.00     0.163 HD
BRANCH   5   7
HETATM    7  C2  UNL     1      -3.571  -2.661  16.664  1.00  0.00     0.085 A 
HETATM    8  C3  UNL     1      -4.326  -1.410  16.328  1.00  0.00     0.027 A 
HETATM    9  C4  UNL     1      -3.530  -2.063  15.257  1.00  0.00     0.027 A 
ENDBRANCH   5   7
ENDBRANCH   1   3
BRANCH   1  10
HETATM   10  C6  UNL     1      -6.006  -6.327  18.058  1.00  0.00     0.074 C 
HETATM   11  C7  UNL     1      -6.871  -5.158  17.586  1.00  0.00    -0.002 C 
HETATM   12  C8  UNL     1      -8.228  -5.574  18.046  1.00  0.00     0.006 C 
HETATM   13  C11 UNL     1      -6.790  -5.826  16.210  1.00  0.00     0.011 C 
HETATM   14  C9  UNL     1      -8.195  -7.059  17.625  1.00  0.00     0.006 C 
HETATM   15  C10 UNL     1      -6.811  -7.111  17.052  1.00  0.00    -0.002 C 
ENDBRANCH   1  10
TORSDOF 3
ENDMDL
MODEL 5
REMARK VINA RESULT: -7.332609489      1.448      2.153
REMARK  3 active torsions:
REMARK  status: ('A' for Active; 'I' for Inactive)
REMARK       I    between atoms: C1_2  and  N1_3 
REMARK    1  A    between atoms: C1_2  and  C5_8 
REMARK    2  A    between atoms: N1_3  and  C2_5 
REMARK    3  A    between atoms: C5_8  and  C6_10 
ROOT
HETATM    1  C5  UNL     1      -4.673  -5.576  17.848  1.00  0.00     0.221 C 
HETATM    2  O2  UNL     1      -4.361  -5.338  19.041  1.00  0.00    -0.287 OA
ENDROOT
BRANCH   1   3
HETATM    3  C1  UNL     1      -5.860  -6.385  17.628  1.00  0.00     0.288 C 
HETATM    4  O1  UNL     1      -5.714  -7.614  17.429  1.00  0.00    -0.264 OA
HETATM    5  N1  UNL     1      -7.171  -5.862  17.629  1.00  0.00    -0.350 N 
ATOM      6  H1  UNL     1      -7.310  -4.865  17.790  1.00  0.00     0.163 HD
BRANCH   5   7
HETATM    7  C2  UNL     1      -8.315  -6.705  17.406  1.00  0.00     0.085 A 
HETATM    8  C3  UNL     1      -9.110  -6.528  16.147  1.00  0.00     0.027 A 
HETATM    9  C4  UNL     1      -9.646  -5.951  17.407  1.00  0.00     0.027 A 
ENDBRANCH   5   7
ENDBRANCH   1   3
BRANCH   1  10
HETATM   10  C6  UNL     1      -3.845  -5.038  16.763  1.00  0.00     0.074 C 
HETATM   11  C7  UNL     1      -4.612  -4.260  15.694  1.00  0.00    -0.002 C 
HETATM   12  C8  UNL     1      -3.519  -3.856  14.763  1.00  0.00     0.006 C 
HETATM   13  C11 UNL     1      -4.597  -3.112  16.708  1.00  0.00     0.011 C 
HETATM   14  C9  UNL     1      -2.459  -3.409  15.793  1.00  0.00     0.006 C 
HETATM   15  C10 UNL     1      -3.219  -3.697  17.052  1.00  0.00    -0.002 C 
ENDBRANCH   1  10
TORSDOF 3
ENDMDL
