MODEL 1
REMARK VINA RESULT: -9.024542656      0.000      0.000
REMARK  12 active torsions:
REMARK  status: ('A' for Active; 'I' for Inactive)
REMARK    1  A    between atoms: N1_1  and  C1_4 
REMARK    2  A    between atoms: N4_9  and  C2_10 
REMARK    3  A    between atoms: C2_10  and  C3_11 
REMARK    4  A    between atoms: C3_11  and  C4_12 
REMARK    5  A    between atoms: C4_12  and  C5_13 
REMARK    6  A    between atoms: C5_13  and  S1_14 
REMARK    7  A    between atoms: S1_14  and  C6_15 
REMARK    8  A    between atoms: C10_26  and  N8_27 
REMARK    9  A    between atoms: N10_34  and  C13_35 
REMARK   10  A    between atoms: C13_35  and  C14_36 
REMARK   11  A    between atoms: C14_36  and  C15_37 
REMARK   12  A    between atoms: C15_37  and  N11_38 
ROOT
HETATM    1  C6  UNL     1       4.850 -22.236 -27.316  1.00  0.00     0.143 A 
HETATM    2  N5  UNL     1       3.832 -22.109 -28.246  1.00  0.00    -0.340 N 
ATOM      3  H5  UNL     1       3.595 -22.915 -28.826  1.00  0.00     0.167 HD
HETATM    4  C7  UNL     1       3.146 -20.973 -28.415  1.00  0.00     0.123 A 
HETATM    5  C8  UNL     1       3.446 -19.870 -27.650  1.00  0.00     0.141 A 
HETATM    6  N6  UNL     1       4.425 -19.944 -26.739  1.00  0.00    -0.305 N 
ATOM      7  H6  UNL     1       4.657 -19.133 -26.165  1.00  0.00     0.170 HD
HETATM    8  C9  UNL     1       5.115 -21.126 -26.584  1.00  0.00     0.281 A 
HETATM    9  O1  UNL     1       6.007 -21.068 -25.713  1.00  0.00    -0.265 OA
HETATM   10  N7  UNL     1       2.507 -19.234 -28.278  1.00  0.00    -0.324 N 
ATOM     11  H7  UNL     1       2.142 -18.284 -28.218  1.00  0.00     0.169 HD
HETATM   12  C10 UNL     1       2.179 -20.357 -29.079  1.00  0.00     0.151 A 
ENDROOT
BRANCH  12  13
HETATM   13  N8  UNL     1       1.225 -20.619 -30.101  1.00  0.00    -0.222 N 
HETATM   14  C11 UNL     1       1.581 -21.277 -31.240  1.00  0.00     0.337 A 
HETATM   15  O2  UNL     1       2.782 -21.636 -31.348  1.00  0.00    -0.246 OA
HETATM   16  N9  UNL     1       0.704 -21.546 -32.224  1.00  0.00    -0.284 N 
HETATM   17  C12 UNL     1      -0.585 -21.164 -32.111  1.00  0.00     0.184 A 
ATOM     18  H9  UNL     1       1.015 -22.042 -33.060  1.00  0.00     0.173 HD
HETATM   19  S2  UNL     1      -1.624 -21.509 -33.328  1.00  0.00    -0.040 SA
HETATM   20  N10 UNL     1      -0.958 -20.511 -30.993  1.00  0.00    -0.300 N 
HETATM   21  C16 UNL     1      -0.067 -20.253 -30.022  1.00  0.00     0.192 A 
HETATM   22  S3  UNL     1      -0.538 -19.460 -28.667  1.00  0.00    -0.040 SA
BRANCH  20  23
HETATM   23  C13 UNL     1      -2.347 -20.114 -30.902  1.00  0.00     0.135 C 
BRANCH  23  24
HETATM   24  C14 UNL     1      -2.588 -18.748 -31.493  1.00  0.00     0.047 C 
BRANCH  24  25
HETATM   25  C15 UNL     1      -3.837 -18.178 -30.872  1.00  0.00     0.231 C 
BRANCH  25  26
HETATM   26  N11 UNL     1      -3.593 -17.621 -29.561  1.00  0.00    -0.079 N 
ATOM     27 3H11 UNL     1      -3.796 -18.301 -28.829  1.00  0.00     0.274 HD
ATOM     28 2H11 UNL     1      -2.595 -17.495 -29.395  1.00  0.00     0.274 HD
ATOM     29 1H11 UNL     1      -4.104 -16.751 -29.408  1.00  0.00     0.274 HD
ENDBRANCH  25  26
ENDBRANCH  24  25
ENDBRANCH  23  24
ENDBRANCH  20  23
ENDBRANCH  12  13
BRANCH   1  30
HETATM   30  S1  UNL     1       5.756 -23.755 -27.243  1.00  0.00    -0.079 SA
BRANCH  30  31
HETATM   31  C5  UNL     1       6.986 -24.029 -28.449  1.00  0.00     0.052 C 
BRANCH  31  32
HETATM   32  C4  UNL     1       8.358 -23.636 -28.404  1.00  0.00     0.005 C 
BRANCH  32  33
HETATM   33  C3  UNL     1       9.296 -23.451 -27.548  1.00  0.00    -0.005 C 
BRANCH  33  34
HETATM   34  C2  UNL     1       9.623 -24.129 -26.286  1.00  0.00     0.181 C 
BRANCH  34  35
HETATM   35  N4  UNL     1      10.334 -25.379 -26.505  1.00  0.00    -0.236 N 
HETATM   36  N3  UNL     1      11.648 -25.576 -26.519  1.00  0.00    -0.236 N 
HETATM   37  N2  UNL     1      11.932 -26.844 -26.751  1.00  0.00    -0.266 N 
ATOM     38  H3  UNL     1      12.343 -24.845 -26.371  1.00  0.00     0.208 HD
HETATM   39  C1  UNL     1      10.781 -27.519 -26.898  1.00  0.00     0.186 A 
ATOM     40  H2  UNL     1      12.869 -27.243 -26.810  1.00  0.00     0.190 HD
HETATM   41  C17 UNL     1       9.773 -26.565 -26.736  1.00  0.00     0.308 A 
HETATM   42  O3  UNL     1       8.552 -26.863 -26.814  1.00  0.00    -0.262 OA
BRANCH  39  43
HETATM   43  N1  UNL     1      10.635 -28.789 -27.139  1.00  0.00    -0.380 N 
ATOM     44  H12 UNL     1      11.336 -29.435 -27.502  1.00  0.00     0.158 HD
ATOM     45  H11 UNL     1       9.795 -29.353 -27.005  1.00  0.00     0.158 HD
ENDBRANCH  39  43
ENDBRANCH  34  35
ENDBRANCH  33  34
ENDBRANCH  32  33
ENDBRANCH  31  32
ENDBRANCH  30  31
ENDBRANCH   1  30
TORSDOF 12
ENDMDL
MODEL 2
REMARK VINA RESULT: -8.889361979      2.175      2.838
REMARK  12 active torsions:
REMARK  status: ('A' for Active; 'I' for Inactive)
REMARK    1  A    between atoms: N1_1  and  C1_4 
REMARK    2  A    between atoms: N4_9  and  C2_10 
REMARK    3  A    between atoms: C2_10  and  C3_11 
REMARK    4  A    between atoms: C3_11  and  C4_12 
REMARK    5  A    between atoms: C4_12  and  C5_13 
REMARK    6  A    between atoms: C5_13  and  S1_14 
REMARK    7  A    between atoms: S1_14  and  C6_15 
REMARK    8  A    between atoms: C10_26  and  N8_27 
REMARK    9  A    between atoms: N10_34  and  C13_35 
REMARK   10  A    between atoms: C13_35  and  C14_36 
REMARK   11  A    between atoms: C14_36  and  C15_37 
REMARK   12  A    between atoms: C15_37  and  N11_38 
ROOT
HETATM    1  C6  UNL     1       4.906 -22.341 -27.335  1.00  0.00     0.143 A 
HETATM    2  N5  UNL     1       3.878 -22.212 -28.254  1.00  0.00    -0.340 N 
ATOM      3  H5  UNL     1       3.629 -23.019 -28.826  1.00  0.00     0.167 HD
HETATM    4  C7  UNL     1       3.198 -21.072 -28.422  1.00  0.00     0.123 A 
HETATM    5  C8  UNL     1       3.515 -19.967 -27.666  1.00  0.00     0.141 A 
HETATM    6  N6  UNL     1       4.503 -20.042 -26.766  1.00  0.00    -0.305 N 
ATOM      7  H6  UNL     1       4.748 -19.230 -26.200  1.00  0.00     0.170 HD
HETATM    8  C9  UNL     1       5.187 -21.228 -26.612  1.00  0.00     0.281 A 
HETATM    9  O1  UNL     1       6.089 -21.172 -25.752  1.00  0.00    -0.265 OA
HETATM   10  N7  UNL     1       2.573 -19.328 -28.288  1.00  0.00    -0.324 N 
ATOM     11  H7  UNL     1       2.215 -18.375 -28.230  1.00  0.00     0.169 HD
HETATM   12  C10 UNL     1       2.228 -20.454 -29.078  1.00  0.00     0.151 A 
ENDROOT
BRANCH  12  13
HETATM   13  N8  UNL     1       1.260 -20.715 -30.088  1.00  0.00    -0.222 N 
HETATM   14  C11 UNL     1       1.593 -21.407 -31.214  1.00  0.00     0.337 A 
HETATM   15  O2  UNL     1       2.783 -21.798 -31.322  1.00  0.00    -0.246 OA
HETATM   16  N9  UNL     1       0.702 -21.677 -32.186  1.00  0.00    -0.284 N 
HETATM   17  C12 UNL     1      -0.576 -21.260 -32.073  1.00  0.00     0.184 A 
ATOM     18  H9  UNL     1       0.994 -22.199 -33.012  1.00  0.00     0.173 HD
HETATM   19  S2  UNL     1      -1.632 -21.606 -33.276  1.00  0.00    -0.040 SA
HETATM   20  N10 UNL     1      -0.925 -20.573 -30.969  1.00  0.00    -0.300 N 
HETATM   21  C16 UNL     1      -0.021 -20.314 -30.009  1.00  0.00     0.192 A 
HETATM   22  S3  UNL     1      -0.463 -19.479 -28.670  1.00  0.00    -0.040 SA
BRANCH  20  23
HETATM   23  C13 UNL     1      -2.303 -20.138 -30.878  1.00  0.00     0.135 C 
BRANCH  23  24
HETATM   24  C14 UNL     1      -2.499 -18.747 -31.425  1.00  0.00     0.047 C 
BRANCH  24  25
HETATM   25  C15 UNL     1      -3.779 -18.191 -30.858  1.00  0.00     0.231 C 
BRANCH  25  26
HETATM   26  N11 UNL     1      -3.586 -17.581 -29.562  1.00  0.00    -0.079 N 
ATOM     27 3H11 UNL     1      -3.141 -16.667 -29.648  1.00  0.00     0.274 HD
ATOM     28 2H11 UNL     1      -4.475 -17.291 -29.155  1.00  0.00     0.274 HD
ATOM     29 1H11 UNL     1      -3.069 -18.184 -28.922  1.00  0.00     0.274 HD
ENDBRANCH  25  26
ENDBRANCH  24  25
ENDBRANCH  23  24
ENDBRANCH  20  23
ENDBRANCH  12  13
BRANCH   1  30
HETATM   30  S1  UNL     1       5.802 -23.865 -27.262  1.00  0.00    -0.079 SA
BRANCH  30  31
HETATM   31  C5  UNL     1       7.493 -23.837 -27.690  1.00  0.00     0.052 C 
BRANCH  31  32
HETATM   32  C4  UNL     1       8.594 -24.349 -26.939  1.00  0.00     0.005 C 
BRANCH  32  33
HETATM   33  C3  UNL     1       9.756 -23.985 -26.534  1.00  0.00    -0.005 C 
BRANCH  33  34
HETATM   34  C2  UNL     1      10.330 -22.662 -26.256  1.00  0.00     0.181 C 
BRANCH  34  35
HETATM   35  N4  UNL     1      10.962 -22.604 -24.947  1.00  0.00    -0.236 N 
HETATM   36  N3  UNL     1      10.643 -23.295 -23.858  1.00  0.00    -0.236 N 
HETATM   37  N2  UNL     1      11.435 -22.979 -22.850  1.00  0.00    -0.266 N 
ATOM     38  H3  UNL     1       9.888 -23.978 -23.808  1.00  0.00     0.208 HD
HETATM   39  C1  UNL     1      12.310 -22.051 -23.270  1.00  0.00     0.186 A 
ATOM     40  H2  UNL     1      11.389 -23.374 -21.910  1.00  0.00     0.190 HD
HETATM   41  C17 UNL     1      11.991 -21.826 -24.611  1.00  0.00     0.308 A 
HETATM   42  O3  UNL     1      12.625 -21.000 -25.319  1.00  0.00    -0.262 OA
BRANCH  39  43
HETATM   43  N1  UNL     1      13.253 -21.483 -22.576  1.00  0.00    -0.380 N 
ATOM     44  H12 UNL     1      13.290 -21.364 -21.563  1.00  0.00     0.158 HD
ATOM     45  H11 UNL     1      14.114 -21.063 -22.927  1.00  0.00     0.158 HD
ENDBRANCH  39  43
ENDBRANCH  34  35
ENDBRANCH  33  34
ENDBRANCH  32  33
ENDBRANCH  31  32
ENDBRANCH  30  31
ENDBRANCH   1  30
TORSDOF 12
ENDMDL
MODEL 3
REMARK VINA RESULT: -8.874191979      3.334     11.547
REMARK  12 active torsions:
REMARK  status: ('A' for Active; 'I' for Inactive)
REMARK    1  A    between atoms: N1_1  and  C1_4 
REMARK    2  A    between atoms: N4_9  and  C2_10 
REMARK    3  A    between atoms: C2_10  and  C3_11 
REMARK    4  A    between atoms: C3_11  and  C4_12 
REMARK    5  A    between atoms: C4_12  and  C5_13 
REMARK    6  A    between atoms: C5_13  and  S1_14 
REMARK    7  A    between atoms: S1_14  and  C6_15 
REMARK    8  A    between atoms: C10_26  and  N8_27 
REMARK    9  A    between atoms: N10_34  and  C13_35 
REMARK   10  A    between atoms: C13_35  and  C14_36 
REMARK   11  A    between atoms: C14_36  and  C15_37 
REMARK   12  A    between atoms: C15_37  and  N11_38 
ROOT
HETATM    1  C6  UNL     1       3.731 -24.374 -32.196  1.00  0.00     0.143 A 
HETATM    2  N5  UNL     1       4.755 -24.328 -31.265  1.00  0.00    -0.340 N 
ATOM      3  H5  UNL     1       4.523 -24.127 -30.292  1.00  0.00     0.167 HD
HETATM    4  C7  UNL     1       6.036 -24.537 -31.590  1.00  0.00     0.123 A 
HETATM    5  C8  UNL     1       6.378 -24.807 -32.894  1.00  0.00     0.141 A 
HETATM    6  N6  UNL     1       5.422 -24.859 -33.831  1.00  0.00    -0.305 N 
ATOM      7  H6  UNL     1       5.663 -25.058 -34.802  1.00  0.00     0.170 HD
HETATM    8  C9  UNL     1       4.111 -24.641 -33.471  1.00  0.00     0.281 A 
HETATM    9  O1  UNL     1       3.316 -24.707 -34.430  1.00  0.00    -0.265 OA
HETATM   10  N7  UNL     1       7.612 -24.886 -32.507  1.00  0.00    -0.324 N 
ATOM     11  H7  UNL     1       8.490 -25.076 -32.992  1.00  0.00     0.169 HD
HETATM   12  C10 UNL     1       7.285 -24.610 -31.156  1.00  0.00     0.151 A 
ENDROOT
BRANCH  12  13
HETATM   13  N8  UNL     1       8.024 -24.492 -29.945  1.00  0.00    -0.222 N 
HETATM   14  C11 UNL     1       8.559 -23.297 -29.566  1.00  0.00     0.337 A 
HETATM   15  O2  UNL     1       8.376 -22.313 -30.327  1.00  0.00    -0.246 OA
HETATM   16  N9  UNL     1       9.259 -23.148 -28.426  1.00  0.00    -0.284 N 
HETATM   17  C12 UNL     1       9.457 -24.201 -27.606  1.00  0.00     0.184 A 
ATOM     18  H9  UNL     1       9.642 -22.235 -28.180  1.00  0.00     0.173 HD
HETATM   19  S2  UNL     1      10.313 -23.982 -26.227  1.00  0.00    -0.040 SA
HETATM   20  N10 UNL     1       8.938 -25.391 -27.963  1.00  0.00    -0.300 N 
HETATM   21  C16 UNL     1       8.242 -25.519 -29.105  1.00  0.00     0.192 A 
HETATM   22  S3  UNL     1       7.614 -26.974 -29.524  1.00  0.00    -0.040 SA
BRANCH  20  23
HETATM   23  C13 UNL     1       9.168 -26.501 -27.064  1.00  0.00     0.135 C 
BRANCH  23  24
HETATM   24  C14 UNL     1      10.512 -27.148 -27.288  1.00  0.00     0.047 C 
BRANCH  24  25
HETATM   25  C15 UNL     1      10.295 -28.620 -27.524  1.00  0.00     0.231 C 
BRANCH  25  26
HETATM   26  N11 UNL     1      11.496 -29.394 -27.307  1.00  0.00    -0.079 N 
ATOM     27 3H11 UNL     1      11.690 -30.003 -28.102  1.00  0.00     0.274 HD
ATOM     28 2H11 UNL     1      12.327 -28.803 -27.348  1.00  0.00     0.274 HD
ATOM     29 1H11 UNL     1      11.464 -29.923 -26.436  1.00  0.00     0.274 HD
ENDBRANCH  25  26
ENDBRANCH  24  25
ENDBRANCH  23  24
ENDBRANCH  20  23
ENDBRANCH  12  13
BRANCH   1  30
HETATM   30  S1  UNL     1       2.084 -23.987 -31.676  1.00  0.00    -0.079 SA
BRANCH  30  31
HETATM   31  C5  UNL     1       1.441 -22.423 -32.105  1.00  0.00     0.052 C 
BRANCH  31  32
HETATM   32  C4  UNL     1       1.511 -21.212 -31.352  1.00  0.00     0.005 C 
BRANCH  32  33
HETATM   33  C3  UNL     1       0.928 -20.639 -30.362  1.00  0.00    -0.005 C 
BRANCH  33  34
HETATM   34  C2  UNL     1      -0.183 -21.059 -29.499  1.00  0.00     0.181 C 
BRANCH  34  35
HETATM   35  N4  UNL     1      -1.279 -20.103 -29.514  1.00  0.00    -0.236 N 
HETATM   36  N3  UNL     1      -2.331 -20.083 -30.324  1.00  0.00    -0.236 N 
HETATM   37  N2  UNL     1      -3.121 -19.063 -30.047  1.00  0.00    -0.266 N 
ATOM     38  H3  UNL     1      -2.504 -20.764 -31.063  1.00  0.00     0.208 HD
HETATM   39  C1  UNL     1      -2.589 -18.377 -29.022  1.00  0.00     0.186 A 
ATOM     40  H2  UNL     1      -3.991 -18.834 -30.530  1.00  0.00     0.190 HD
HETATM   41  C17 UNL     1      -1.414 -19.058 -28.697  1.00  0.00     0.308 A 
HETATM   42  O3  UNL     1      -0.656 -18.677 -27.766  1.00  0.00    -0.262 OA
BRANCH  39  43
HETATM   43  N1  UNL     1      -3.065 -17.307 -28.455  1.00  0.00    -0.380 N 
ATOM     44  H12 UNL     1      -2.851 -16.337 -28.685  1.00  0.00     0.158 HD
ATOM     45  H11 UNL     1      -3.734 -17.260 -27.685  1.00  0.00     0.158 HD
ENDBRANCH  39  43
ENDBRANCH  34  35
ENDBRANCH  33  34
ENDBRANCH  32  33
ENDBRANCH  31  32
ENDBRANCH  30  31
ENDBRANCH   1  30
TORSDOF 12
ENDMDL
MODEL 4
REMARK VINA RESULT: -8.693292189      1.684      2.908
REMARK  12 active torsions:
REMARK  status: ('A' for Active; 'I' for Inactive)
REMARK    1  A    between atoms: N1_1  and  C1_4 
REMARK    2  A    between atoms: N4_9  and  C2_10 
REMARK    3  A    between atoms: C2_10  and  C3_11 
REMARK    4  A    between atoms: C3_11  and  C4_12 
REMARK    5  A    between atoms: C4_12  and  C5_13 
REMARK    6  A    between atoms: C5_13  and  S1_14 
REMARK    7  A    between atoms: S1_14  and  C6_15 
REMARK    8  A    between atoms: C10_26  and  N8_27 
REMARK    9  A    between atoms: N10_34  and  C13_35 
REMARK   10  A    between atoms: C13_35  and  C14_36 
REMARK   11  A    between atoms: C14_36  and  C15_37 
REMARK   12  A    between atoms: C15_37  and  N11_38 
ROOT
HETATM    1  C6  UNL     1       4.891 -22.331 -27.224  1.00  0.00     0.143 A 
HETATM    2  N5  UNL     1       3.818 -22.077 -28.062  1.00  0.00    -0.340 N 
ATOM      3  H5  UNL     1       3.455 -22.837 -28.638  1.00  0.00     0.167 HD
HETATM    4  C7  UNL     1       3.239 -20.874 -28.147  1.00  0.00     0.123 A 
HETATM    5  C8  UNL     1       3.709 -19.830 -27.386  1.00  0.00     0.141 A 
HETATM    6  N6  UNL     1       4.747 -20.028 -26.562  1.00  0.00    -0.305 N 
ATOM      7  H6  UNL     1       5.105 -19.261 -25.992  1.00  0.00     0.170 HD
HETATM    8  C9  UNL     1       5.325 -21.276 -26.492  1.00  0.00     0.281 A 
HETATM    9  O1  UNL     1       6.286 -21.332 -25.698  1.00  0.00    -0.265 OA
HETATM   10  N7  UNL     1       2.791 -19.086 -27.918  1.00  0.00    -0.324 N 
ATOM     11  H7  UNL     1       2.529 -18.107 -27.807  1.00  0.00     0.169 HD
HETATM   12  C10 UNL     1       2.288 -20.146 -28.714  1.00  0.00     0.151 A 
ENDROOT
BRANCH  12  13
HETATM   13  N8  UNL     1       1.232 -20.282 -29.658  1.00  0.00    -0.222 N 
HETATM   14  C11 UNL     1       0.001 -19.753 -29.412  1.00  0.00     0.337 A 
HETATM   15  O2  UNL     1      -0.162 -19.148 -28.321  1.00  0.00    -0.246 OA
HETATM   16  N9  UNL     1      -1.019 -19.858 -30.284  1.00  0.00    -0.284 N 
HETATM   17  C12 UNL     1      -0.849 -20.505 -31.456  1.00  0.00     0.184 A 
ATOM     18  H9  UNL     1      -1.925 -19.446 -30.059  1.00  0.00     0.173 HD
HETATM   19  S2  UNL     1      -2.111 -20.612 -32.493  1.00  0.00    -0.040 SA
HETATM   20  N10 UNL     1       0.361 -21.037 -31.718  1.00  0.00    -0.300 N 
HETATM   21  C16 UNL     1       1.365 -20.920 -30.834  1.00  0.00     0.192 A 
HETATM   22  S3  UNL     1       2.832 -21.570 -31.170  1.00  0.00    -0.040 SA
BRANCH  20  23
HETATM   23  C13 UNL     1       0.511 -21.725 -32.982  1.00  0.00     0.135 C 
BRANCH  23  24
HETATM   24  C14 UNL     1       0.204 -23.197 -32.869  1.00  0.00     0.047 C 
BRANCH  24  25
HETATM   25  C15 UNL     1       1.228 -23.957 -33.672  1.00  0.00     0.231 C 
BRANCH  25  26
HETATM   26  N11 UNL     1       0.625 -24.777 -34.697  1.00  0.00    -0.079 N 
ATOM     27 3H11 UNL     1      -0.391 -24.794 -34.604  1.00  0.00     0.274 HD
ATOM     28 2H11 UNL     1       0.696 -24.333 -35.613  1.00  0.00     0.274 HD
ATOM     29 1H11 UNL     1       1.009 -25.721 -34.716  1.00  0.00     0.274 HD
ENDBRANCH  25  26
ENDBRANCH  24  25
ENDBRANCH  23  24
ENDBRANCH  20  23
ENDBRANCH  12  13
BRANCH   1  30
HETATM   30  S1  UNL     1       5.643 -23.933 -27.261  1.00  0.00    -0.079 SA
BRANCH  30  31
HETATM   31  C5  UNL     1       7.203 -24.083 -28.026  1.00  0.00     0.052 C 
BRANCH  31  32
HETATM   32  C4  UNL     1       8.446 -23.527 -27.595  1.00  0.00     0.005 C 
BRANCH  32  33
HETATM   33  C3  UNL     1       9.570 -23.906 -27.104  1.00  0.00    -0.005 C 
BRANCH  33  34
HETATM   34  C2  UNL     1       9.904 -24.811 -25.997  1.00  0.00     0.181 C 
BRANCH  34  35
HETATM   35  N4  UNL     1      10.345 -26.114 -26.471  1.00  0.00    -0.236 N 
HETATM   36  N3  UNL     1      11.588 -26.577 -26.543  1.00  0.00    -0.236 N 
HETATM   37  N2  UNL     1      11.607 -27.805 -27.027  1.00  0.00    -0.266 N 
ATOM     38  H3  UNL     1      12.416 -26.053 -26.262  1.00  0.00     0.208 HD
HETATM   39  C1  UNL     1      10.344 -28.180 -27.289  1.00  0.00     0.186 A 
ATOM     40  H2  UNL     1      12.441 -28.373 -27.178  1.00  0.00     0.190 HD
HETATM   41  C17 UNL     1       9.554 -27.087 -26.926  1.00  0.00     0.308 A 
HETATM   42  O3  UNL     1       8.301 -27.099 -27.045  1.00  0.00    -0.262 OA
BRANCH  39  43
HETATM   43  N1  UNL     1       9.943 -29.318 -27.776  1.00  0.00    -0.380 N 
ATOM     44  H12 UNL     1       9.656 -30.147 -27.257  1.00  0.00     0.158 HD
ATOM     45  H11 UNL     1       9.848 -29.571 -28.760  1.00  0.00     0.158 HD
ENDBRANCH  39  43
ENDBRANCH  34  35
ENDBRANCH  33  34
ENDBRANCH  32  33
ENDBRANCH  31  32
ENDBRANCH  30  31
ENDBRANCH   1  30
TORSDOF 12
ENDMDL
MODEL 5
REMARK VINA RESULT: -8.680489914      3.216     11.736
REMARK  12 active torsions:
REMARK  status: ('A' for Active; 'I' for Inactive)
REMARK    1  A    between atoms: N1_1  and  C1_4 
REMARK    2  A    between atoms: N4_9  and  C2_10 
REMARK    3  A    between atoms: C2_10  and  C3_11 
REMARK    4  A    between atoms: C3_11  and  C4_12 
REMARK    5  A    between atoms: C4_12  and  C5_13 
REMARK    6  A    between atoms: C5_13  and  S1_14 
REMARK    7  A    between atoms: S1_14  and  C6_15 
REMARK    8  A    between atoms: C10_26  and  N8_27 
REMARK    9  A    between atoms: N10_34  and  C13_35 
REMARK   10  A    between atoms: C13_35  and  C14_36 
REMARK   11  A    between atoms: C14_36  and  C15_37 
REMARK   12  A    between atoms: C15_37  and  N11_38 
ROOT
HETATM    1  C6  UNL     1       3.444 -24.067 -31.854  1.00  0.00     0.143 A 
HETATM    2  N5  UNL     1       4.537 -24.083 -31.004  1.00  0.00    -0.340 N 
ATOM      3  H5  UNL     1       4.403 -23.822 -30.027  1.00  0.00     0.167 HD
HETATM    4  C7  UNL     1       5.764 -24.428 -31.414  1.00  0.00     0.123 A 
HETATM    5  C8  UNL     1       5.975 -24.780 -32.726  1.00  0.00     0.141 A 
HETATM    6  N6  UNL     1       4.948 -24.777 -33.586  1.00  0.00    -0.305 N 
ATOM      7  H6  UNL     1       5.092 -25.037 -34.562  1.00  0.00     0.170 HD
HETATM    8  C9  UNL     1       3.695 -24.420 -33.139  1.00  0.00     0.281 A 
HETATM    9  O1  UNL     1       2.825 -24.447 -34.033  1.00  0.00    -0.265 OA
HETATM   10  N7  UNL     1       7.224 -24.963 -32.429  1.00  0.00    -0.324 N 
ATOM     11  H7  UNL     1       8.039 -25.255 -32.969  1.00  0.00     0.169 HD
HETATM   12  C10 UNL     1       7.031 -24.603 -31.071  1.00  0.00     0.151 A 
ENDROOT
BRANCH  12  13
HETATM   13  N8  UNL     1       7.871 -24.508 -29.927  1.00  0.00    -0.222 N 
HETATM   14  C11 UNL     1       8.468 -23.330 -29.592  1.00  0.00     0.337 A 
HETATM   15  O2  UNL     1       8.249 -22.339 -30.334  1.00  0.00    -0.246 OA
HETATM   16  N9  UNL     1       9.264 -23.203 -28.514  1.00  0.00    -0.284 N 
HETATM   17  C12 UNL     1       9.501 -24.264 -27.714  1.00  0.00     0.184 A 
ATOM     18  H9  UNL     1       9.690 -22.302 -28.300  1.00  0.00     0.173 HD
HETATM   19  S2  UNL     1      10.473 -24.072 -26.411  1.00  0.00    -0.040 SA
HETATM   20  N10 UNL     1       8.921 -25.438 -28.028  1.00  0.00    -0.300 N 
HETATM   21  C16 UNL     1       8.129 -25.543 -29.108  1.00  0.00     0.192 A 
HETATM   22  S3  UNL     1       7.430 -26.979 -29.475  1.00  0.00    -0.040 SA
BRANCH  20  23
HETATM   23  C13 UNL     1       9.195 -26.557 -27.151  1.00  0.00     0.135 C 
BRANCH  23  24
HETATM   24  C14 UNL     1      10.516 -27.215 -27.463  1.00  0.00     0.047 C 
BRANCH  24  25
HETATM   25  C15 UNL     1      10.306 -28.707 -27.488  1.00  0.00     0.231 C 
BRANCH  25  26
HETATM   26  N11 UNL     1      11.543 -29.438 -27.329  1.00  0.00    -0.079 N 
ATOM     27 3H11 UNL     1      11.975 -29.629 -28.233  1.00  0.00     0.274 HD
ATOM     28 2H11 UNL     1      12.269 -28.848 -26.922  1.00  0.00     0.274 HD
ATOM     29 1H11 UNL     1      11.420 -30.295 -26.790  1.00  0.00     0.274 HD
ENDBRANCH  25  26
ENDBRANCH  24  25
ENDBRANCH  23  24
ENDBRANCH  20  23
ENDBRANCH  12  13
BRANCH   1  30
HETATM   30  S1  UNL     1       1.886 -23.503 -31.231  1.00  0.00    -0.079 SA
BRANCH  30  31
HETATM   31  C5  UNL     1       1.474 -21.824 -31.467  1.00  0.00     0.052 C 
BRANCH  31  32
HETATM   32  C4  UNL     1       1.368 -20.802 -30.475  1.00  0.00     0.005 C 
BRANCH  32  33
HETATM   33  C3  UNL     1       0.471 -20.088 -29.898  1.00  0.00    -0.005 C 
BRANCH  33  34
HETATM   34  C2  UNL     1      -0.851 -20.422 -29.352  1.00  0.00     0.181 C 
BRANCH  34  35
HETATM   35  N4  UNL     1      -1.921 -19.716 -30.040  1.00  0.00    -0.236 N 
HETATM   36  N3  UNL     1      -2.729 -18.783 -29.548  1.00  0.00    -0.236 N 
HETATM   37  N2  UNL     1      -3.583 -18.367 -30.464  1.00  0.00    -0.266 N 
ATOM     38  H3  UNL     1      -2.694 -18.436 -28.590  1.00  0.00     0.208 HD
HETATM   39  C1  UNL     1      -3.345 -19.036 -31.604  1.00  0.00     0.186 A 
ATOM     40  H2  UNL     1      -4.303 -17.657 -30.328  1.00  0.00     0.190 HD
HETATM   41  C17 UNL     1      -2.280 -19.892 -31.312  1.00  0.00     0.308 A 
HETATM   42  O3  UNL     1      -1.797 -20.675 -32.171  1.00  0.00    -0.262 OA
BRANCH  39  43
HETATM   43  N1  UNL     1      -3.973 -18.915 -32.737  1.00  0.00    -0.380 N 
ATOM     44  H12 UNL     1      -4.982 -18.899 -32.888  1.00  0.00     0.158 HD
ATOM     45  H11 UNL     1      -3.561 -18.814 -33.665  1.00  0.00     0.158 HD
ENDBRANCH  39  43
ENDBRANCH  34  35
ENDBRANCH  33  34
ENDBRANCH  32  33
ENDBRANCH  31  32
ENDBRANCH  30  31
ENDBRANCH   1  30
TORSDOF 12
ENDMDL
