MODEL 1
REMARK VINA RESULT: -9.167384847      0.000      0.000
REMARK  8 active torsions:
REMARK  status: ('A' for Active; 'I' for Inactive)
REMARK    1  A    between atoms: C2_2  and  O2_4 
REMARK    2  A    between atoms: O2_4  and  C3_5 
REMARK    3  A    between atoms: C12_15  and  C13_16 
REMARK    4  A    between atoms: C13_16  and  O4_17 
REMARK    5  A    between atoms: O4_17  and  N1_18 
REMARK    6  A    between atoms: C26_33  and  O5_35 
REMARK    7  A    between atoms: O5_35  and  C28_36 
REMARK    8  A    between atoms: C31_40  and  C32_41 
ROOT
HETATM    1  C3  UNL     1      29.635   8.104  40.959  1.00  0.00     0.171 C 
HETATM    2  C4  UNL     1      29.057   7.015  40.173  1.00  0.00     0.027 C 
HETATM    3  C5  UNL     1      27.604   6.748  40.400  1.00  0.00     0.008 C 
HETATM    4  C6  UNL     1      26.905   6.163  39.229  1.00  0.00     0.006 C 
HETATM    5  C7  UNL     1      27.798   5.498  38.213  1.00  0.00    -0.001 C 
HETATM    6  C8  UNL     1      26.953   5.107  37.057  1.00  0.00    -0.005 C 
HETATM    7  C9  UNL     1      25.553   5.754  37.096  1.00  0.00     0.008 C 
HETATM    8  C10 UNL     1      24.758   5.174  35.966  1.00  0.00     0.042 C 
HETATM    9  C11 UNL     1      25.473   4.101  35.198  1.00  0.00     0.103 A 
HETATM   10  O3  UNL     1      24.651   3.631  34.150  1.00  0.00    -0.360 OA
HETATM   11  C12 UNL     1      25.269   2.756  35.071  1.00  0.00     0.117 A 
HETATM   12  C14 UNL     1      26.459   2.057  34.586  1.00  0.00     0.044 C 
HETATM   13  C15 UNL     1      27.535   3.138  34.608  1.00  0.00     0.016 C 
HETATM   14  C16 UNL     1      26.825   4.475  34.687  1.00  0.00    -0.005 C 
HETATM   15  C17 UNL     1      26.640   5.138  33.340  1.00  0.00     0.019 C 
HETATM   16  C18 UNL     1      27.482   5.407  35.699  1.00  0.00     0.001 C 
HETATM   17  C19 UNL     1      28.968   5.381  35.592  1.00  0.00     0.007 C 
HETATM   18  C20 UNL     1      29.396   6.522  36.520  1.00  0.00     0.011 C 
HETATM   19  C21 UNL     1      29.107   6.139  37.948  1.00  0.00    -0.032 C 
HETATM   20  C22 UNL     1      30.252   5.184  38.316  1.00  0.00     0.016 C 
HETATM   21  C23 UNL     1      29.249   7.422  38.733  1.00  0.00    -0.028 C 
HETATM   22  C24 UNL     1      28.305   8.482  38.300  1.00  0.00     0.016 C 
HETATM   23  C25 UNL     1      30.637   8.010  38.770  1.00  0.00     0.051 C 
HETATM   24  C26 UNL     1      30.873   8.562  40.149  1.00  0.00     0.088 C 
HETATM   25  C27 UNL     1      30.860  10.078  40.204  1.00  0.00     0.049 C 
ENDROOT
BRANCH  24  26
HETATM   26  O5  UNL     1      31.939   8.089  40.859  1.00  0.00    -0.347 OA
BRANCH  26  27
HETATM   27  C28 UNL     1      31.676   7.155  41.835  1.00  0.00     0.272 C 
HETATM   28  C29 UNL     1      32.792   6.056  41.645  1.00  0.00     0.115 C 
HETATM   29  C30 UNL     1      33.327   5.804  42.958  1.00  0.00     0.046 C 
HETATM   30 CL1  UNL     1      34.531   4.553  43.287  1.00  0.00    -0.086 Cl
HETATM   31  C31 UNL     1      32.824   6.698  43.786  1.00  0.00     0.075 C 
HETATM   32  O6  UNL     1      31.980   7.558  43.111  1.00  0.00    -0.322 OA
BRANCH  31  33
HETATM   33  C32 UNL     1      33.196   6.751  45.211  1.00  0.00    -0.001 C 
HETATM   34  C33 UNL     1      33.046   5.437  45.930  1.00  0.00     0.021 C 
HETATM   35  C34 UNL     1      32.207   7.771  45.818  1.00  0.00     0.021 C 
HETATM   36  C35 UNL     1      34.594   7.261  45.460  1.00  0.00     0.021 C 
ENDBRANCH  31  33
ENDBRANCH  26  27
ENDBRANCH  24  26
BRANCH   1  37
HETATM   37  O2  UNL     1      28.786   9.206  41.239  1.00  0.00    -0.313 OA
BRANCH  37  38
HETATM   38  C2  UNL     1      28.508   9.585  42.529  1.00  0.00     0.255 C 
HETATM   39  C1  UNL     1      29.554   9.635  43.583  1.00  0.00     0.126 C 
HETATM   40  O1  UNL     1      27.358   9.842  42.859  1.00  0.00    -0.266 OA
ENDBRANCH  37  38
ENDBRANCH   1  37
BRANCH  11  41
HETATM   41  C13 UNL     1      24.151   2.061  35.868  1.00  0.00     0.241 C 
BRANCH  41  42
HETATM   42  O4  UNL     1      24.714   1.853  37.132  1.00  0.00    -0.284 OA
BRANCH  42  43
HETATM   43  N1  UNL     1      24.247   0.647  37.628  1.00  0.00    -0.311 N 
ATOM     44  H12 UNL     1      23.888  -0.120  37.060  1.00  0.00     0.184 HD
ATOM     45  H11 UNL     1      24.324   0.664  38.645  1.00  0.00     0.184 HD
ENDBRANCH  42  43
ENDBRANCH  41  42
ENDBRANCH  11  41
TORSDOF 8
ENDMDL
MODEL 2
REMARK VINA RESULT: -8.885750781      1.948      2.588
REMARK  8 active torsions:
REMARK  status: ('A' for Active; 'I' for Inactive)
REMARK    1  A    between atoms: C2_2  and  O2_4 
REMARK    2  A    between atoms: O2_4  and  C3_5 
REMARK    3  A    between atoms: C12_15  and  C13_16 
REMARK    4  A    between atoms: C13_16  and  O4_17 
REMARK    5  A    between atoms: O4_17  and  N1_18 
REMARK    6  A    between atoms: C26_33  and  O5_35 
REMARK    7  A    between atoms: O5_35  and  C28_36 
REMARK    8  A    between atoms: C31_40  and  C32_41 
ROOT
HETATM    1  C3  UNL     1      30.021   7.972  40.781  1.00  0.00     0.171 C 
HETATM    2  C4  UNL     1      29.379   6.921  39.993  1.00  0.00     0.027 C 
HETATM    3  C5  UNL     1      27.970   6.592  40.370  1.00  0.00     0.008 C 
HETATM    4  C6  UNL     1      27.151   6.065  39.251  1.00  0.00     0.006 C 
HETATM    5  C7  UNL     1      27.932   5.499  38.092  1.00  0.00    -0.001 C 
HETATM    6  C8  UNL     1      26.964   5.160  37.019  1.00  0.00    -0.005 C 
HETATM    7  C9  UNL     1      25.564   5.758  37.268  1.00  0.00     0.008 C 
HETATM    8  C10 UNL     1      24.653   5.229  36.201  1.00  0.00     0.042 C 
HETATM    9  C11 UNL     1      25.297   4.235  35.281  1.00  0.00     0.103 A 
HETATM   10  O3  UNL     1      24.367   3.810  34.306  1.00  0.00    -0.360 OA
HETATM   11  C12 UNL     1      25.112   2.895  35.084  1.00  0.00     0.117 A 
HETATM   12  C14 UNL     1      26.251   2.269  34.414  1.00  0.00     0.044 C 
HETATM   13  C15 UNL     1      27.296   3.380  34.386  1.00  0.00     0.016 C 
HETATM   14  C16 UNL     1      26.569   4.685  34.642  1.00  0.00    -0.005 C 
HETATM   15  C17 UNL     1      26.209   5.431  33.376  1.00  0.00     0.019 C 
HETATM   16  C18 UNL     1      27.319   5.568  35.633  1.00  0.00     0.001 C 
HETATM   17  C19 UNL     1      28.782   5.597  35.351  1.00  0.00     0.007 C 
HETATM   18  C20 UNL     1      29.291   6.686  36.300  1.00  0.00     0.011 C 
HETATM   19  C21 UNL     1      29.183   6.198  37.721  1.00  0.00    -0.032 C 
HETATM   20  C22 UNL     1      30.387   5.257  37.884  1.00  0.00     0.016 C 
HETATM   21  C23 UNL     1      29.388   7.430  38.574  1.00  0.00    -0.028 C 
HETATM   22  C24 UNL     1      28.374   8.485  38.330  1.00  0.00     0.016 C 
HETATM   23  C25 UNL     1      30.756   8.057  38.488  1.00  0.00     0.051 C 
HETATM   24  C26 UNL     1      31.142   8.523  39.865  1.00  0.00     0.088 C 
HETATM   25  C27 UNL     1      31.099  10.031  40.028  1.00  0.00     0.049 C 
ENDROOT
BRANCH  24  26
HETATM   26  O5  UNL     1      32.296   8.038  40.410  1.00  0.00    -0.347 OA
BRANCH  26  27
HETATM   27  C28 UNL     1      33.189   7.438  39.551  1.00  0.00     0.272 C 
HETATM   28  C29 UNL     1      34.381   8.466  39.437  1.00  0.00     0.115 C 
HETATM   29  C30 UNL     1      35.585   7.698  39.624  1.00  0.00     0.046 C 
HETATM   30 CL1  UNL     1      37.205   8.386  39.462  1.00  0.00    -0.086 Cl
HETATM   31  C31 UNL     1      35.243   6.480  39.994  1.00  0.00     0.075 C 
HETATM   32  O6  UNL     1      33.869   6.372  40.083  1.00  0.00    -0.322 OA
BRANCH  31  33
HETATM   33  C32 UNL     1      36.240   5.442  40.308  1.00  0.00    -0.001 C 
HETATM   34  C33 UNL     1      37.139   5.090  39.152  1.00  0.00     0.021 C 
HETATM   35  C34 UNL     1      35.390   4.205  40.675  1.00  0.00     0.021 C 
HETATM   36  C35 UNL     1      37.113   5.769  41.493  1.00  0.00     0.021 C 
ENDBRANCH  31  33
ENDBRANCH  26  27
ENDBRANCH  24  26
BRANCH   1  37
HETATM   37  O2  UNL     1      29.185   9.024  41.236  1.00  0.00    -0.313 OA
BRANCH  37  38
HETATM   38  C2  UNL     1      29.137   9.377  42.563  1.00  0.00     0.255 C 
HETATM   39  C1  UNL     1      30.219   9.023  43.517  1.00  0.00     0.126 C 
HETATM   40  O1  UNL     1      28.154   9.954  43.009  1.00  0.00    -0.266 OA
ENDBRANCH  37  38
ENDBRANCH   1  37
BRANCH  11  41
HETATM   41  C13 UNL     1      24.114   2.113  35.955  1.00  0.00     0.241 C 
BRANCH  41  42
HETATM   42  O4  UNL     1      24.844   1.796  37.106  1.00  0.00    -0.284 OA
BRANCH  42  43
HETATM   43  N1  UNL     1      24.348   0.611  37.629  1.00  0.00    -0.311 N 
ATOM     44  H12 UNL     1      24.844   0.009  38.285  1.00  0.00     0.184 HD
ATOM     45  H11 UNL     1      23.416   0.454  37.245  1.00  0.00     0.184 HD
ENDBRANCH  42  43
ENDBRANCH  41  42
ENDBRANCH  11  41
TORSDOF 8
ENDMDL
MODEL 3
REMARK VINA RESULT: -8.731154590      1.416      1.825
REMARK  8 active torsions:
REMARK  status: ('A' for Active; 'I' for Inactive)
REMARK    1  A    between atoms: C2_2  and  O2_4 
REMARK    2  A    between atoms: O2_4  and  C3_5 
REMARK    3  A    between atoms: C12_15  and  C13_16 
REMARK    4  A    between atoms: C13_16  and  O4_17 
REMARK    5  A    between atoms: O4_17  and  N1_18 
REMARK    6  A    between atoms: C26_33  and  O5_35 
REMARK    7  A    between atoms: O5_35  and  C28_36 
REMARK    8  A    between atoms: C31_40  and  C32_41 
ROOT
HETATM    1  C3  UNL     1      29.776   7.683  41.375  1.00  0.00     0.171 C 
HETATM    2  C4  UNL     1      29.100   6.781  40.444  1.00  0.00     0.027 C 
HETATM    3  C5  UNL     1      27.670   7.101  40.149  1.00  0.00     0.008 C 
HETATM    4  C6  UNL     1      27.213   6.652  38.811  1.00  0.00     0.006 C 
HETATM    5  C7  UNL     1      28.044   5.566  38.177  1.00  0.00    -0.001 C 
HETATM    6  C8  UNL     1      27.532   5.349  36.802  1.00  0.00    -0.005 C 
HETATM    7  C9  UNL     1      26.568   6.464  36.342  1.00  0.00     0.008 C 
HETATM    8  C10 UNL     1      26.016   6.059  35.009  1.00  0.00     0.042 C 
HETATM    9  C11 UNL     1      26.454   4.700  34.549  1.00  0.00     0.103 A 
HETATM   10  O3  UNL     1      25.896   4.419  33.282  1.00  0.00    -0.360 OA
HETATM   11  C12 UNL     1      25.789   3.521  34.368  1.00  0.00     0.117 A 
HETATM   12  C14 UNL     1      26.693   2.372  34.335  1.00  0.00     0.044 C 
HETATM   13  C15 UNL     1      28.039   2.973  34.726  1.00  0.00     0.016 C 
HETATM   14  C16 UNL     1      27.930   4.473  34.541  1.00  0.00    -0.005 C 
HETATM   15  C17 UNL     1      28.463   4.956  33.211  1.00  0.00     0.019 C 
HETATM   16  C18 UNL     1      28.540   5.235  35.713  1.00  0.00     0.001 C 
HETATM   17  C19 UNL     1      29.844   4.650  36.135  1.00  0.00     0.007 C 
HETATM   18  C20 UNL     1      30.366   5.675  37.145  1.00  0.00     0.011 C 
HETATM   19  C21 UNL     1      29.509   5.636  38.384  1.00  0.00    -0.032 C 
HETATM   20  C22 UNL     1      30.001   4.391  39.138  1.00  0.00     0.016 C 
HETATM   21  C23 UNL     1      29.887   6.876  39.161  1.00  0.00    -0.028 C 
HETATM   22  C24 UNL     1      29.630   8.133  38.416  1.00  0.00     0.016 C 
HETATM   23  C25 UNL     1      31.302   6.911  39.677  1.00  0.00     0.051 C 
HETATM   24  C26 UNL     1      31.282   7.532  41.048  1.00  0.00     0.088 C 
HETATM   25  C27 UNL     1      31.852   8.938  41.084  1.00  0.00     0.049 C 
ENDROOT
BRANCH  24  26
HETATM   26  O5  UNL     1      31.787   6.808  42.090  1.00  0.00    -0.347 OA
BRANCH  26  27
HETATM   27  C28 UNL     1      32.620   7.469  42.965  1.00  0.00     0.272 C 
HETATM   28  C29 UNL     1      31.929   7.304  44.374  1.00  0.00     0.115 C 
HETATM   29  C30 UNL     1      32.968   6.880  45.277  1.00  0.00     0.046 C 
HETATM   30 CL1  UNL     1      32.714   6.677  47.014  1.00  0.00    -0.086 Cl
HETATM   31  C31 UNL     1      34.047   6.617  44.568  1.00  0.00     0.075 C 
HETATM   32  O6  UNL     1      33.804   6.826  43.224  1.00  0.00    -0.322 OA
BRANCH  31  33
HETATM   33  C32 UNL     1      35.291   6.119  45.181  1.00  0.00    -0.001 C 
HETATM   34  C33 UNL     1      36.073   7.173  45.918  1.00  0.00     0.021 C 
HETATM   35  C34 UNL     1      36.128   5.624  43.980  1.00  0.00     0.021 C 
HETATM   36  C35 UNL     1      35.090   4.951  46.114  1.00  0.00     0.021 C 
ENDBRANCH  31  33
ENDBRANCH  26  27
ENDBRANCH  24  26
BRANCH   1  37
HETATM   37  O2  UNL     1      29.390   9.047  41.332  1.00  0.00    -0.313 OA
BRANCH  37  38
HETATM   38  C2  UNL     1      28.954   9.703  42.457  1.00  0.00     0.255 C 
HETATM   39  C1  UNL     1      29.893  10.233  43.479  1.00  0.00     0.126 C 
HETATM   40  O1  UNL     1      27.754   9.820  42.673  1.00  0.00    -0.266 OA
ENDBRANCH  37  38
ENDBRANCH   1  37
BRANCH  11  41
HETATM   41  C13 UNL     1      24.296   3.408  34.726  1.00  0.00     0.241 C 
BRANCH  41  42
HETATM   42  O4  UNL     1      24.290   2.686  35.925  1.00  0.00    -0.284 OA
BRANCH  42  43
HETATM   43  N1  UNL     1      23.311   1.708  35.843  1.00  0.00    -0.311 N 
ATOM     44  H12 UNL     1      22.342   1.871  35.570  1.00  0.00     0.184 HD
ATOM     45  H11 UNL     1      23.727   0.813  36.101  1.00  0.00     0.184 HD
ENDBRANCH  42  43
ENDBRANCH  41  42
ENDBRANCH  11  41
TORSDOF 8
ENDMDL
MODEL 4
REMARK VINA RESULT: -8.723621403      1.716      2.247
REMARK  8 active torsions:
REMARK  status: ('A' for Active; 'I' for Inactive)
REMARK    1  A    between atoms: C2_2  and  O2_4 
REMARK    2  A    between atoms: O2_4  and  C3_5 
REMARK    3  A    between atoms: C12_15  and  C13_16 
REMARK    4  A    between atoms: C13_16  and  O4_17 
REMARK    5  A    between atoms: O4_17  and  N1_18 
REMARK    6  A    between atoms: C26_33  and  O5_35 
REMARK    7  A    between atoms: O5_35  and  C28_36 
REMARK    8  A    between atoms: C31_40  and  C32_41 
ROOT
HETATM    1  C3  UNL     1      30.009   7.923  40.816  1.00  0.00     0.171 C 
HETATM    2  C4  UNL     1      29.352   6.888  40.019  1.00  0.00     0.027 C 
HETATM    3  C5  UNL     1      27.928   6.601  40.371  1.00  0.00     0.008 C 
HETATM    4  C6  UNL     1      27.115   6.095  39.238  1.00  0.00     0.006 C 
HETATM    5  C7  UNL     1      27.899   5.503  38.096  1.00  0.00    -0.001 C 
HETATM    6  C8  UNL     1      26.943   5.188  37.006  1.00  0.00    -0.005 C 
HETATM    7  C9  UNL     1      25.556   5.826  37.227  1.00  0.00     0.008 C 
HETATM    8  C10 UNL     1      24.650   5.321  36.145  1.00  0.00     0.042 C 
HETATM    9  C11 UNL     1      25.281   4.306  35.239  1.00  0.00     0.103 A 
HETATM   10  O3  UNL     1      24.358   3.905  34.249  1.00  0.00    -0.360 OA
HETATM   11  C12 UNL     1      25.061   2.971  35.043  1.00  0.00     0.117 A 
HETATM   12  C14 UNL     1      26.194   2.311  34.395  1.00  0.00     0.044 C 
HETATM   13  C15 UNL     1      27.271   3.391  34.383  1.00  0.00     0.016 C 
HETATM   14  C16 UNL     1      26.577   4.717  34.622  1.00  0.00    -0.005 C 
HETATM   15  C17 UNL     1      26.262   5.469  33.349  1.00  0.00     0.019 C 
HETATM   16  C18 UNL     1      27.335   5.581  35.625  1.00  0.00     0.001 C 
HETATM   17  C19 UNL     1      28.803   5.567  35.370  1.00  0.00     0.007 C 
HETATM   18  C20 UNL     1      29.325   6.644  36.325  1.00  0.00     0.011 C 
HETATM   19  C21 UNL     1      29.178   6.165  37.746  1.00  0.00    -0.032 C 
HETATM   20  C22 UNL     1      30.350   5.190  37.933  1.00  0.00     0.016 C 
HETATM   21  C23 UNL     1      29.402   7.392  38.598  1.00  0.00    -0.028 C 
HETATM   22  C24 UNL     1      28.423   8.475  38.333  1.00  0.00     0.016 C 
HETATM   23  C25 UNL     1      30.788   7.980  38.536  1.00  0.00     0.051 C 
HETATM   24  C26 UNL     1      31.162   8.439  39.919  1.00  0.00     0.088 C 
HETATM   25  C27 UNL     1      31.160   9.948  40.077  1.00  0.00     0.049 C 
ENDROOT
BRANCH  24  26
HETATM   26  O5  UNL     1      32.292   7.922  40.486  1.00  0.00    -0.347 OA
BRANCH  26  27
HETATM   27  C28 UNL     1      32.975   6.970  39.764  1.00  0.00     0.272 C 
HETATM   28  C29 UNL     1      34.498   7.283  40.035  1.00  0.00     0.115 C 
HETATM   29  C30 UNL     1      35.108   6.022  40.370  1.00  0.00     0.046 C 
HETATM   30 CL1  UNL     1      36.843   5.830  40.641  1.00  0.00    -0.086 Cl
HETATM   31  C31 UNL     1      34.151   5.125  40.501  1.00  0.00     0.075 C 
HETATM   32  O6  UNL     1      32.915   5.703  40.286  1.00  0.00    -0.322 OA
BRANCH  31  33
HETATM   33  C32 UNL     1      34.427   3.728  40.882  1.00  0.00    -0.001 C 
HETATM   34  C33 UNL     1      35.303   2.991  39.904  1.00  0.00     0.021 C 
HETATM   35  C34 UNL     1      33.032   3.064  40.904  1.00  0.00     0.021 C 
HETATM   36  C35 UNL     1      35.032   3.575  42.255  1.00  0.00     0.021 C 
ENDBRANCH  31  33
ENDBRANCH  26  27
ENDBRANCH  24  26
BRANCH   1  37
HETATM   37  O2  UNL     1      29.196   9.001  41.253  1.00  0.00    -0.313 OA
BRANCH  37  38
HETATM   38  C2  UNL     1      29.156   9.377  42.573  1.00  0.00     0.255 C 
HETATM   39  C1  UNL     1      30.253   9.056  43.522  1.00  0.00     0.126 C 
HETATM   40  O1  UNL     1      28.170   9.950  43.018  1.00  0.00    -0.266 OA
ENDBRANCH  37  38
ENDBRANCH   1  37
BRANCH  11  41
HETATM   41  C13 UNL     1      24.025   2.220  35.898  1.00  0.00     0.241 C 
BRANCH  41  42
HETATM   42  O4  UNL     1      24.746   1.818  37.028  1.00  0.00    -0.284 OA
BRANCH  42  43
HETATM   43  N1  UNL     1      24.272   0.581  37.434  1.00  0.00    -0.311 N 
ATOM     44  H12 UNL     1      23.928  -0.148  36.808  1.00  0.00     0.184 HD
ATOM     45  H11 UNL     1      24.328   0.531  38.451  1.00  0.00     0.184 HD
ENDBRANCH  42  43
ENDBRANCH  41  42
ENDBRANCH  11  41
TORSDOF 8
ENDMDL
MODEL 5
REMARK VINA RESULT: -8.620244768      3.916      9.463
REMARK  8 active torsions:
REMARK  status: ('A' for Active; 'I' for Inactive)
REMARK    1  A    between atoms: C2_2  and  O2_4 
REMARK    2  A    between atoms: O2_4  and  C3_5 
REMARK    3  A    between atoms: C12_15  and  C13_16 
REMARK    4  A    between atoms: C13_16  and  O4_17 
REMARK    5  A    between atoms: O4_17  and  N1_18 
REMARK    6  A    between atoms: C26_33  and  O5_35 
REMARK    7  A    between atoms: O5_35  and  C28_36 
REMARK    8  A    between atoms: C31_40  and  C32_41 
ROOT
HETATM    1  C3  UNL     1      27.641   5.720  35.183  1.00  0.00     0.171 C 
HETATM    2  C4  UNL     1      28.359   6.071  36.407  1.00  0.00     0.027 C 
HETATM    3  C5  UNL     1      27.571   5.978  37.674  1.00  0.00     0.008 C 
HETATM    4  C6  UNL     1      28.390   5.691  38.877  1.00  0.00     0.006 C 
HETATM    5  C7  UNL     1      29.858   6.011  38.748  1.00  0.00    -0.001 C 
HETATM    6  C8  UNL     1      30.535   5.530  39.978  1.00  0.00    -0.005 C 
HETATM    7  C9  UNL     1      29.639   4.605  40.828  1.00  0.00     0.008 C 
HETATM    8  C10 UNL     1      30.377   4.307  42.098  1.00  0.00     0.042 C 
HETATM    9  C11 UNL     1      31.684   5.031  42.233  1.00  0.00     0.103 A 
HETATM   10  O3  UNL     1      32.308   4.674  43.449  1.00  0.00    -0.360 OA
HETATM   11  C12 UNL     1      32.116   6.021  43.070  1.00  0.00     0.117 A 
HETATM   12  C14 UNL     1      33.297   6.711  42.552  1.00  0.00     0.044 C 
HETATM   13  C15 UNL     1      33.446   6.143  41.144  1.00  0.00     0.016 C 
HETATM   14  C16 UNL     1      32.626   4.870  41.086  1.00  0.00    -0.005 C 
HETATM   15  C17 UNL     1      33.439   3.619  41.330  1.00  0.00     0.019 C 
HETATM   16  C18 UNL     1      31.808   4.780  39.802  1.00  0.00     0.001 C 
HETATM   17  C19 UNL     1      32.605   5.184  38.609  1.00  0.00     0.007 C 
HETATM   18  C20 UNL     1      31.683   4.814  37.443  1.00  0.00     0.011 C 
HETATM   19  C21 UNL     1      30.491   5.735  37.438  1.00  0.00    -0.032 C 
HETATM   20  C22 UNL     1      31.028   7.036  36.822  1.00  0.00     0.016 C 
HETATM   21  C23 UNL     1      29.507   5.096  36.485  1.00  0.00    -0.028 C 
HETATM   22  C24 UNL     1      29.086   3.737  36.904  1.00  0.00     0.016 C 
HETATM   23  C25 UNL     1      29.947   5.034  35.044  1.00  0.00     0.051 C 
HETATM   24  C26 UNL     1      28.748   5.312  34.179  1.00  0.00     0.088 C 
HETATM   25  C27 UNL     1      28.220   4.082  33.465  1.00  0.00     0.049 C 
ENDROOT
BRANCH  24  26
HETATM   26  O5  UNL     1      28.815   6.357  33.302  1.00  0.00    -0.347 OA
BRANCH  26  27
HETATM   27  C28 UNL     1      27.894   7.367  33.461  1.00  0.00     0.272 C 
HETATM   28  C29 UNL     1      28.670   8.492  34.250  1.00  0.00     0.115 C 
HETATM   29  C30 UNL     1      28.405   9.722  33.550  1.00  0.00     0.046 C 
HETATM   30 CL1  UNL     1      28.961  11.298  34.122  1.00  0.00    -0.086 Cl
HETATM   31  C31 UNL     1      27.775   9.429  32.430  1.00  0.00     0.075 C 
HETATM   32  O6  UNL     1      27.603   8.063  32.316  1.00  0.00    -0.322 OA
BRANCH  31  33
HETATM   33  C32 UNL     1      27.387  10.461  31.451  1.00  0.00    -0.001 C 
HETATM   34  C33 UNL     1      26.420  11.480  31.991  1.00  0.00     0.021 C 
HETATM   35  C34 UNL     1      26.696   9.664  30.322  1.00  0.00     0.021 C 
HETATM   36  C35 UNL     1      28.553  11.200  30.845  1.00  0.00     0.021 C 
ENDBRANCH  31  33
ENDBRANCH  26  27
ENDBRANCH  24  26
BRANCH   1  37
HETATM   37  O2  UNL     1      26.663   4.698  35.290  1.00  0.00    -0.313 OA
BRANCH  37  38
HETATM   38  C2  UNL     1      25.341   4.940  35.009  1.00  0.00     0.255 C 
HETATM   39  C1  UNL     1      24.672   6.213  35.383  1.00  0.00     0.126 C 
HETATM   40  O1  UNL     1      24.656   4.072  34.484  1.00  0.00    -0.266 OA
ENDBRANCH  37  38
ENDBRANCH   1  37
BRANCH  11  41
HETATM   41  C13 UNL     1      31.152   6.653  44.089  1.00  0.00     0.241 C 
BRANCH  41  42
HETATM   42  O4  UNL     1      30.395   7.552  43.327  1.00  0.00    -0.284 OA
BRANCH  42  43
HETATM   43  N1  UNL     1      30.515   8.813  43.889  1.00  0.00    -0.311 N 
ATOM     44  H12 UNL     1      29.890   9.201  44.595  1.00  0.00     0.184 HD
ATOM     45  H11 UNL     1      31.326   9.274  43.476  1.00  0.00     0.184 HD
ENDBRANCH  42  43
ENDBRANCH  41  42
ENDBRANCH  11  41
TORSDOF 8
ENDMDL
