MODEL 1
REMARK VINA RESULT: -9.362662806      0.000      0.000
REMARK  9 active torsions:
REMARK  status: ('A' for Active; 'I' for Inactive)
REMARK    1  A    between atoms: C2_2  and  C3_3 
REMARK    2  A    between atoms: C8_8  and  C9_9 
REMARK    3  A    between atoms: C9_9  and  O1_10 
REMARK    4  A    between atoms: N1_12  and  O2_14 
REMARK    5  A    between atoms: C11_17  and  O3_18 
REMARK    6  A    between atoms: O3_18  and  C12_19 
REMARK    7  A    between atoms: C12_19  and  O5_21 
REMARK    8  A    between atoms: O5_21  and  C13_22 
REMARK    9  A    between atoms: C13_22  and  C14_23 
ROOT
HETATM    1  C3  UNL     1      28.997   8.455  36.061  1.00  0.00     0.052 C 
HETATM    2  C4  UNL     1      28.369   9.859  36.021  1.00  0.00     0.021 C 
HETATM    3  C5  UNL     1      27.919  10.109  34.624  1.00  0.00     0.018 C 
HETATM    4  C6  UNL     1      28.411  11.380  33.984  1.00  0.00     0.010 C 
HETATM    5  C7  UNL     1      29.005  10.979  32.620  1.00  0.00     0.018 C 
HETATM    6  C8  UNL     1      28.812   9.441  32.559  1.00  0.00     0.094 C 
HETATM    7  C10 UNL     1      28.898   9.142  33.931  1.00  0.00    -0.034 C 
HETATM    8  C11 UNL     1      28.878   7.896  34.676  1.00  0.00     0.067 C 
ENDROOT
BRANCH   1   9
HETATM    9  C2  UNL     1      28.493   7.666  37.225  1.00  0.00    -0.034 C 
HETATM   10  C1  UNL     1      27.050   7.253  36.901  1.00  0.00     0.016 C 
HETATM   11  C15 UNL     1      29.214   6.402  37.503  1.00  0.00     0.010 C 
HETATM   12  C16 UNL     1      29.505   6.192  38.988  1.00  0.00     0.006 C 
HETATM   13  C17 UNL     1      30.370   7.357  39.341  1.00  0.00    -0.002 C 
HETATM   14  C18 UNL     1      29.441   8.535  39.434  1.00  0.00    -0.009 C 
HETATM   15  C26 UNL     1      31.085   7.157  40.656  1.00  0.00    -0.036 C 
HETATM   16  C19 UNL     1      30.364   9.753  39.483  1.00  0.00     0.005 C 
HETATM   17  C30 UNL     1      28.392   8.612  38.396  1.00  0.00     0.015 C 
HETATM   18  C20 UNL     1      31.057   9.678  40.834  1.00  0.00     0.006 C 
HETATM   19  C21 UNL     1      31.785   8.401  41.073  1.00  0.00    -0.001 C 
HETATM   20  C22 UNL     1      32.254   8.393  42.507  1.00  0.00     0.074 C 
HETATM   21  C23 UNL     1      31.269   7.763  43.457  1.00  0.00     0.164 C 
HETATM   22  C24 UNL     1      30.991   6.344  42.961  1.00  0.00     0.069 C 
HETATM   23  O6  UNL     1      30.059   8.406  43.520  1.00  0.00    -0.353 OA
HETATM   24  O7  UNL     1      31.828   7.698  44.708  1.00  0.00    -0.353 OA
HETATM   25  C25 UNL     1      30.176   6.548  41.677  1.00  0.00     0.015 C 
HETATM   26  C28 UNL     1      30.044   9.165  44.688  1.00  0.00     0.197 C 
HETATM   27  C29 UNL     1      30.980   8.383  45.574  1.00  0.00     0.197 C 
HETATM   28  C27 UNL     1      32.171   6.106  40.372  1.00  0.00     0.016 C 
ENDBRANCH   1   9
BRANCH   8  29
HETATM   29  O3  UNL     1      28.092   6.855  34.419  1.00  0.00    -0.259 OA
BRANCH  29  30
HETATM   30  C12 UNL     1      28.215   5.706  33.704  1.00  0.00     0.411 C 
HETATM   31  O4  UNL     1      29.331   5.712  33.188  1.00  0.00    -0.229 OA
BRANCH  30  32
HETATM   32  O5  UNL     1      27.305   4.764  33.588  1.00  0.00    -0.297 OA
BRANCH  32  33
HETATM   33  C13 UNL     1      26.037   4.795  33.100  1.00  0.00     0.192 C 
BRANCH  33  34
HETATM   34  C14 UNL     1      25.006   4.128  33.947  1.00  0.00     0.112 C 
HETATM   35 BR1  UNL     1      25.203   2.260  34.243  1.00  0.00    -0.094 Br
ENDBRANCH  33  34
ENDBRANCH  32  33
ENDBRANCH  30  32
ENDBRANCH  29  30
ENDBRANCH   8  29
BRANCH   6  36
HETATM   36  C9  UNL     1      27.664   9.222  31.737  1.00  0.00     0.143 C 
HETATM   37  N1  UNL     1      27.303  10.012  30.789  1.00  0.00    -0.251 N 
ATOM     38  H1  UNL     1      27.879  10.838  30.627  1.00  0.00     0.196 HD
BRANCH  36  39
HETATM   39  O1  UNL     1      26.828   8.100  31.908  1.00  0.00    -0.348 OA
ATOM     40  H1  UNL     1      26.741   7.663  32.748  1.00  0.00     0.219 HD
ENDBRANCH  36  39
BRANCH  37  41
HETATM   41  O2  UNL     1      26.225   9.843  29.988  1.00  0.00    -0.288 OA
ATOM     42  H2  UNL     1      25.479  10.428  29.933  1.00  0.00     0.244 HD
ENDBRANCH  37  41
ENDBRANCH   6  36
TORSDOF 9
ENDMDL
MODEL 2
REMARK VINA RESULT: -8.973037717      4.282     10.303
REMARK  9 active torsions:
REMARK  status: ('A' for Active; 'I' for Inactive)
REMARK    1  A    between atoms: C2_2  and  C3_3 
REMARK    2  A    between atoms: C8_8  and  C9_9 
REMARK    3  A    between atoms: C9_9  and  O1_10 
REMARK    4  A    between atoms: N1_12  and  O2_14 
REMARK    5  A    between atoms: C11_17  and  O3_18 
REMARK    6  A    between atoms: O3_18  and  C12_19 
REMARK    7  A    between atoms: C12_19  and  O5_21 
REMARK    8  A    between atoms: O5_21  and  C13_22 
REMARK    9  A    between atoms: C13_22  and  C14_23 
ROOT
HETATM    1  C3  UNL     1      31.000   7.763  41.550  1.00  0.00     0.052 C 
HETATM    2  C4  UNL     1      31.069   9.223  42.029  1.00  0.00     0.021 C 
HETATM    3  C5  UNL     1      31.572   9.213  43.430  1.00  0.00     0.018 C 
HETATM    4  C6  UNL     1      30.736   9.948  44.443  1.00  0.00     0.010 C 
HETATM    5  C7  UNL     1      30.514   8.971  45.614  1.00  0.00     0.018 C 
HETATM    6  C8  UNL     1      31.264   7.684  45.183  1.00  0.00     0.094 C 
HETATM    7  C10 UNL     1      31.116   7.786  43.788  1.00  0.00    -0.034 C 
HETATM    8  C11 UNL     1      31.495   6.920  42.685  1.00  0.00     0.067 C 
ENDROOT
BRANCH   1   9
HETATM    9  C2  UNL     1      31.602   7.606  40.192  1.00  0.00    -0.034 C 
HETATM   10  C1  UNL     1      33.109   7.871  40.331  1.00  0.00     0.016 C 
HETATM   11  C15 UNL     1      31.491   6.256  39.594  1.00  0.00     0.010 C 
HETATM   12  C16 UNL     1      31.081   6.284  38.123  1.00  0.00     0.006 C 
HETATM   13  C17 UNL     1      29.739   6.939  38.147  1.00  0.00    -0.002 C 
HETATM   14  C18 UNL     1      30.010   8.403  38.358  1.00  0.00    -0.009 C 
HETATM   15  C26 UNL     1      28.982   6.734  36.857  1.00  0.00    -0.036 C 
HETATM   16  C19 UNL     1      28.645   9.005  38.691  1.00  0.00     0.005 C 
HETATM   17  C30 UNL     1      31.070   8.728  39.335  1.00  0.00     0.015 C 
HETATM   18  C20 UNL     1      27.844   8.924  37.401  1.00  0.00     0.006 C 
HETATM   19  C21 UNL     1      27.739   7.550  36.836  1.00  0.00    -0.001 C 
HETATM   20  C22 UNL     1      27.091   7.653  35.478  1.00  0.00     0.074 C 
HETATM   21  C23 UNL     1      28.080   7.811  34.352  1.00  0.00     0.164 C 
HETATM   22  C24 UNL     1      29.044   6.627  34.414  1.00  0.00     0.069 C 
HETATM   23  O6  UNL     1      28.843   8.949  34.430  1.00  0.00    -0.353 OA
HETATM   24  O7  UNL     1      27.410   7.779  33.156  1.00  0.00    -0.353 OA
HETATM   25  C25 UNL     1      29.883   6.890  35.672  1.00  0.00     0.015 C 
HETATM   26  C28 UNL     1      28.319   9.871  33.526  1.00  0.00     0.197 C 
HETATM   27  C29 UNL     1      27.701   8.966  32.489  1.00  0.00     0.197 C 
HETATM   28  C27 UNL     1      28.549   5.259  36.871  1.00  0.00     0.016 C 
ENDBRANCH   1   9
BRANCH   8  29
HETATM   29  O3  UNL     1      32.635   6.242  42.593  1.00  0.00    -0.259 OA
BRANCH  29  30
HETATM   30  C12 UNL     1      33.114   5.083  43.118  1.00  0.00     0.411 C 
HETATM   31  O4  UNL     1      32.907   4.194  42.294  1.00  0.00    -0.229 OA
BRANCH  30  32
HETATM   32  O5  UNL     1      33.691   4.943  44.291  1.00  0.00    -0.297 OA
BRANCH  32  33
HETATM   33  C13 UNL     1      34.970   4.636  44.631  1.00  0.00     0.192 C 
BRANCH  33  34
HETATM   34  C14 UNL     1      35.237   4.527  46.095  1.00  0.00     0.112 C 
HETATM   35 BR1  UNL     1      36.965   5.044  46.701  1.00  0.00    -0.094 Br
ENDBRANCH  33  34
ENDBRANCH  32  33
ENDBRANCH  30  32
ENDBRANCH  29  30
ENDBRANCH   8  29
BRANCH   6  36
HETATM   36  C9  UNL     1      32.510   7.701  45.884  1.00  0.00     0.143 C 
HETATM   37  N1  UNL     1      33.636   7.983  45.332  1.00  0.00    -0.251 N 
ATOM     38  H1  UNL     1      33.624   8.204  44.337  1.00  0.00     0.196 HD
BRANCH  36  39
HETATM   39  O1  UNL     1      32.594   7.407  47.260  1.00  0.00    -0.348 OA
ATOM     40  H1  UNL     1      33.418   7.181  47.676  1.00  0.00     0.219 HD
ENDBRANCH  36  39
BRANCH  37  41
HETATM   41  O2  UNL     1      34.836   8.011  45.957  1.00  0.00    -0.288 OA
ATOM     42  H2  UNL     1      35.211   8.761  46.403  1.00  0.00     0.244 HD
ENDBRANCH  37  41
ENDBRANCH   6  36
TORSDOF 9
ENDMDL
MODEL 3
REMARK VINA RESULT: -8.893267524      2.577      4.512
REMARK  9 active torsions:
REMARK  status: ('A' for Active; 'I' for Inactive)
REMARK    1  A    between atoms: C2_2  and  C3_3 
REMARK    2  A    between atoms: C8_8  and  C9_9 
REMARK    3  A    between atoms: C9_9  and  O1_10 
REMARK    4  A    between atoms: N1_12  and  O2_14 
REMARK    5  A    between atoms: C11_17  and  O3_18 
REMARK    6  A    between atoms: O3_18  and  C12_19 
REMARK    7  A    between atoms: C12_19  and  O5_21 
REMARK    8  A    between atoms: O5_21  and  C13_22 
REMARK    9  A    between atoms: C13_22  and  C14_23 
ROOT
HETATM    1  C3  UNL     1      26.582   4.570  38.070  1.00  0.00     0.052 C 
HETATM    2  C4  UNL     1      25.846   3.294  37.626  1.00  0.00     0.021 C 
HETATM    3  C5  UNL     1      25.834   3.277  36.138  1.00  0.00     0.018 C 
HETATM    4  C6  UNL     1      24.489   3.104  35.484  1.00  0.00     0.010 C 
HETATM    5  C7  UNL     1      24.365   4.229  34.439  1.00  0.00     0.018 C 
HETATM    6  C8  UNL     1      25.699   5.011  34.563  1.00  0.00     0.094 C 
HETATM    7  C10 UNL     1      25.967   4.797  35.926  1.00  0.00    -0.034 C 
HETATM    8  C11 UNL     1      27.013   5.269  36.816  1.00  0.00     0.067 C 
ENDROOT
BRANCH   1   9
HETATM    9  C2  UNL     1      27.584   4.278  39.138  1.00  0.00    -0.034 C 
HETATM   10  C1  UNL     1      27.305   2.854  39.643  1.00  0.00     0.016 C 
HETATM   11  C15 UNL     1      28.999   4.274  38.704  1.00  0.00     0.010 C 
HETATM   12  C16 UNL     1      29.925   5.008  39.673  1.00  0.00     0.006 C 
HETATM   13  C17 UNL     1      29.398   6.405  39.667  1.00  0.00    -0.002 C 
HETATM   14  C18 UNL     1      28.147   6.366  40.500  1.00  0.00    -0.009 C 
HETATM   15  C26 UNL     1      30.381   7.388  40.257  1.00  0.00    -0.036 C 
HETATM   16  C19 UNL     1      27.460   7.705  40.229  1.00  0.00     0.005 C 
HETATM   17  C30 UNL     1      27.276   5.189  40.301  1.00  0.00     0.015 C 
HETATM   18  C20 UNL     1      28.348   8.752  40.883  1.00  0.00     0.006 C 
HETATM   19  C21 UNL     1      29.760   8.730  40.413  1.00  0.00    -0.001 C 
HETATM   20  C22 UNL     1      30.554   9.679  41.275  1.00  0.00     0.074 C 
HETATM   21  C23 UNL     1      31.169   9.022  42.483  1.00  0.00     0.164 C 
HETATM   22  C24 UNL     1      32.042   7.869  41.987  1.00  0.00     0.069 C 
HETATM   23  O6  UNL     1      30.258   8.483  43.355  1.00  0.00    -0.353 OA
HETATM   24  O7  UNL     1      31.960   9.931  43.137  1.00  0.00    -0.353 OA
HETATM   25  C25 UNL     1      31.035   6.827  41.481  1.00  0.00     0.015 C 
HETATM   26  C28 UNL     1      30.133   9.360  44.430  1.00  0.00     0.197 C 
HETATM   27  C29 UNL     1      31.488  10.023  44.444  1.00  0.00     0.197 C 
HETATM   28  C27 UNL     1      31.494   7.528  39.206  1.00  0.00     0.016 C 
ENDBRANCH   1   9
BRANCH   8  29
HETATM   29  O3  UNL     1      28.300   5.385  36.501  1.00  0.00    -0.259 OA
BRANCH  29  30
HETATM   30  C12 UNL     1      29.041   6.267  35.779  1.00  0.00     0.411 C 
HETATM   31  O4  UNL     1      30.195   6.207  36.198  1.00  0.00    -0.229 OA
BRANCH  30  32
HETATM   32  O5  UNL     1      28.599   7.040  34.812  1.00  0.00    -0.297 OA
BRANCH  32  33
HETATM   33  C13 UNL     1      27.763   8.112  34.829  1.00  0.00     0.192 C 
BRANCH  33  34
HETATM   34  C14 UNL     1      28.377   9.398  35.270  1.00  0.00     0.112 C 
HETATM   35 BR1  UNL     1      28.368   9.768  37.136  1.00  0.00    -0.094 Br
ENDBRANCH  33  34
ENDBRANCH  32  33
ENDBRANCH  30  32
ENDBRANCH  29  30
ENDBRANCH   8  29
BRANCH   6  36
HETATM   36  C9  UNL     1      26.518   4.564  33.480  1.00  0.00     0.143 C 
HETATM   37  N1  UNL     1      27.737   4.182  33.618  1.00  0.00    -0.251 N 
ATOM     38  H1  UNL     1      28.128   4.205  34.559  1.00  0.00     0.196 HD
BRANCH  36  39
HETATM   39  O1  UNL     1      26.037   4.508  32.156  1.00  0.00    -0.348 OA
ATOM     40  H1  UNL     1      25.511   3.780  31.844  1.00  0.00     0.219 HD
ENDBRANCH  36  39
BRANCH  37  41
HETATM   41  O2  UNL     1      28.547   3.752  32.622  1.00  0.00    -0.288 OA
ATOM     42  H2  UNL     1      29.461   3.986  32.511  1.00  0.00     0.244 HD
ENDBRANCH  37  41
ENDBRANCH   6  36
TORSDOF 9
ENDMDL
MODEL 4
REMARK VINA RESULT: -8.885197744      3.432      9.669
REMARK  9 active torsions:
REMARK  status: ('A' for Active; 'I' for Inactive)
REMARK    1  A    between atoms: C2_2  and  C3_3 
REMARK    2  A    between atoms: C8_8  and  C9_9 
REMARK    3  A    between atoms: C9_9  and  O1_10 
REMARK    4  A    between atoms: N1_12  and  O2_14 
REMARK    5  A    between atoms: C11_17  and  O3_18 
REMARK    6  A    between atoms: O3_18  and  C12_19 
REMARK    7  A    between atoms: C12_19  and  O5_21 
REMARK    8  A    between atoms: O5_21  and  C13_22 
REMARK    9  A    between atoms: C13_22  and  C14_23 
ROOT
HETATM    1  C3  UNL     1      30.960   7.803  41.508  1.00  0.00     0.052 C 
HETATM    2  C4  UNL     1      30.922   9.248  42.034  1.00  0.00     0.021 C 
HETATM    3  C5  UNL     1      31.428   9.230  43.434  1.00  0.00     0.018 C 
HETATM    4  C6  UNL     1      30.541   9.868  44.470  1.00  0.00     0.010 C 
HETATM    5  C7  UNL     1      30.394   8.841  45.609  1.00  0.00     0.018 C 
HETATM    6  C8  UNL     1      31.237   7.627  45.136  1.00  0.00     0.094 C 
HETATM    7  C10 UNL     1      31.079   7.763  43.745  1.00  0.00    -0.034 C 
HETATM    8  C11 UNL     1      31.519   6.963  42.616  1.00  0.00     0.067 C 
ENDROOT
BRANCH   1   9
HETATM    9  C2  UNL     1      31.570   7.735  40.146  1.00  0.00    -0.034 C 
HETATM   10  C1  UNL     1      33.045   8.141  40.289  1.00  0.00     0.016 C 
HETATM   11  C15 UNL     1      31.588   6.394  39.519  1.00  0.00     0.010 C 
HETATM   12  C16 UNL     1      31.173   6.414  38.049  1.00  0.00     0.006 C 
HETATM   13  C17 UNL     1      29.774   6.936  38.089  1.00  0.00    -0.002 C 
HETATM   14  C18 UNL     1      29.902   8.413  38.332  1.00  0.00    -0.009 C 
HETATM   15  C26 UNL     1      29.035   6.686  36.796  1.00  0.00    -0.036 C 
HETATM   16  C19 UNL     1      28.486   8.873  38.681  1.00  0.00     0.005 C 
HETATM   17  C30 UNL     1      30.929   8.818  39.315  1.00  0.00     0.015 C 
HETATM   18  C20 UNL     1      27.693   8.743  37.391  1.00  0.00     0.006 C 
HETATM   19  C21 UNL     1      27.719   7.379  36.796  1.00  0.00    -0.001 C 
HETATM   20  C22 UNL     1      27.060   7.447  35.440  1.00  0.00     0.074 C 
HETATM   21  C23 UNL     1      28.024   7.725  34.317  1.00  0.00     0.164 C 
HETATM   22  C24 UNL     1      29.099   6.639  34.352  1.00  0.00     0.069 C 
HETATM   23  O6  UNL     1      28.674   8.929  34.419  1.00  0.00    -0.353 OA
HETATM   24  O7  UNL     1      27.356   7.655  33.121  1.00  0.00    -0.353 OA
HETATM   25  C25 UNL     1      29.912   6.955  35.614  1.00  0.00     0.015 C 
HETATM   26  C28 UNL     1      28.060   9.816  33.536  1.00  0.00     0.197 C 
HETATM   27  C29 UNL     1      27.529   8.879  32.481  1.00  0.00     0.197 C 
HETATM   28  C27 UNL     1      28.747   5.176  36.779  1.00  0.00     0.016 C 
ENDBRANCH   1   9
BRANCH   8  29
HETATM   29  O3  UNL     1      32.706   6.374  42.502  1.00  0.00    -0.259 OA
BRANCH  29  30
HETATM   30  C12 UNL     1      33.246   5.201  42.926  1.00  0.00     0.411 C 
HETATM   31  O4  UNL     1      34.110   5.473  43.756  1.00  0.00    -0.229 OA
BRANCH  30  32
HETATM   32  O5  UNL     1      32.902   3.998  42.520  1.00  0.00    -0.297 OA
BRANCH  32  33
HETATM   33  C13 UNL     1      32.890   3.438  41.282  1.00  0.00     0.192 C 
BRANCH  33  34
HETATM   34  C14 UNL     1      31.601   2.806  40.874  1.00  0.00     0.112 C 
HETATM   35 BR1  UNL     1      30.003   3.582  41.554  1.00  0.00    -0.094 Br
ENDBRANCH  33  34
ENDBRANCH  32  33
ENDBRANCH  30  32
ENDBRANCH  29  30
ENDBRANCH   8  29
BRANCH   6  36
HETATM   36  C9  UNL     1      32.479   7.714  45.839  1.00  0.00     0.143 C 
HETATM   37  N1  UNL     1      33.587   8.061  45.288  1.00  0.00    -0.251 N 
ATOM     38  H1  UNL     1      33.564   8.283  44.294  1.00  0.00     0.196 HD
BRANCH  36  39
HETATM   39  O1  UNL     1      32.579   7.422  47.214  1.00  0.00    -0.348 OA
ATOM     40  H1  UNL     1      31.972   7.785  47.850  1.00  0.00     0.219 HD
ENDBRANCH  36  39
BRANCH  37  41
HETATM   41  O2  UNL     1      34.784   8.156  45.914  1.00  0.00    -0.288 OA
ATOM     42  H2  UNL     1      35.505   8.714  45.649  1.00  0.00     0.244 HD
ENDBRANCH  37  41
ENDBRANCH   6  36
TORSDOF 9
ENDMDL
MODEL 5
REMARK VINA RESULT: -8.860665236      3.463      4.379
REMARK  9 active torsions:
REMARK  status: ('A' for Active; 'I' for Inactive)
REMARK    1  A    between atoms: C2_2  and  C3_3 
REMARK    2  A    between atoms: C8_8  and  C9_9 
REMARK    3  A    between atoms: C9_9  and  O1_10 
REMARK    4  A    between atoms: N1_12  and  O2_14 
REMARK    5  A    between atoms: C11_17  and  O3_18 
REMARK    6  A    between atoms: O3_18  and  C12_19 
REMARK    7  A    between atoms: C12_19  and  O5_21 
REMARK    8  A    between atoms: O5_21  and  C13_22 
REMARK    9  A    between atoms: C13_22  and  C14_23 
ROOT
HETATM    1  C3  UNL     1      28.509   5.484  37.284  1.00  0.00     0.052 C 
HETATM    2  C4  UNL     1      27.062   6.003  37.357  1.00  0.00     0.021 C 
HETATM    3  C5  UNL     1      26.326   5.447  36.189  1.00  0.00     0.018 C 
HETATM    4  C6  UNL     1      25.602   6.443  35.323  1.00  0.00     0.010 C 
HETATM    5  C7  UNL     1      26.033   6.152  33.873  1.00  0.00     0.018 C 
HETATM    6  C8  UNL     1      27.019   4.962  34.000  1.00  0.00     0.094 C 
HETATM    7  C10 UNL     1      27.548   5.235  35.275  1.00  0.00    -0.034 C 
HETATM    8  C11 UNL     1      28.584   4.604  36.074  1.00  0.00     0.067 C 
ENDROOT
BRANCH   1   9
HETATM    9  C2  UNL     1      28.970   4.967  38.607  1.00  0.00    -0.034 C 
HETATM   10  C1  UNL     1      28.338   3.579  38.796  1.00  0.00     0.016 C 
HETATM   11  C15 UNL     1      30.430   4.759  38.740  1.00  0.00     0.010 C 
HETATM   12  C16 UNL     1      30.990   5.271  40.066  1.00  0.00     0.006 C 
HETATM   13  C17 UNL     1      30.688   6.733  40.030  1.00  0.00    -0.002 C 
HETATM   14  C18 UNL     1      29.217   6.847  40.320  1.00  0.00    -0.009 C 
HETATM   15  C26 UNL     1      31.479   7.504  41.059  1.00  0.00    -0.036 C 
HETATM   16  C19 UNL     1      28.866   8.295  39.973  1.00  0.00     0.005 C 
HETATM   17  C30 UNL     1      28.351   5.842  39.669  1.00  0.00     0.015 C 
HETATM   18  C20 UNL     1      29.553   9.140  41.034  1.00  0.00     0.006 C 
HETATM   19  C21 UNL     1      31.022   8.917  41.130  1.00  0.00    -0.001 C 
HETATM   20  C22 UNL     1      31.531   9.670  42.334  1.00  0.00     0.074 C 
HETATM   21  C23 UNL     1      31.538   8.847  43.596  1.00  0.00     0.164 C 
HETATM   22  C24 UNL     1      32.381   7.600  43.331  1.00  0.00     0.069 C 
HETATM   23  O6  UNL     1      30.298   8.412  43.991  1.00  0.00    -0.353 OA
HETATM   24  O7  UNL     1      32.120   9.574  44.604  1.00  0.00    -0.353 OA
HETATM   25  C25 UNL     1      31.528   6.770  42.362  1.00  0.00     0.015 C 
HETATM   26  C28 UNL     1      29.877   9.230  45.037  1.00  0.00     0.197 C 
HETATM   27  C29 UNL     1      31.191   9.661  45.638  1.00  0.00     0.197 C 
HETATM   28  C27 UNL     1      32.922   7.526  40.528  1.00  0.00     0.016 C 
ENDBRANCH   1   9
BRANCH   8  29
HETATM   29  O3  UNL     1      28.780   3.293  36.187  1.00  0.00    -0.259 OA
BRANCH  29  30
HETATM   30  C12 UNL     1      29.680   2.406  35.686  1.00  0.00     0.411 C 
HETATM   31  O4  UNL     1      29.601   2.455  34.460  1.00  0.00    -0.229 OA
BRANCH  30  32
HETATM   32  O5  UNL     1      30.485   1.639  36.388  1.00  0.00    -0.297 OA
BRANCH  32  33
HETATM   33  C13 UNL     1      31.737   1.854  36.869  1.00  0.00     0.192 C 
BRANCH  33  34
HETATM   34  C14 UNL     1      32.821   1.893  35.844  1.00  0.00     0.112 C 
HETATM   35 BR1  UNL     1      34.037   0.431  35.812  1.00  0.00    -0.094 Br
ENDBRANCH  33  34
ENDBRANCH  32  33
ENDBRANCH  30  32
ENDBRANCH  29  30
ENDBRANCH   8  29
BRANCH   6  36
HETATM   36  C9  UNL     1      26.273   3.794  33.648  1.00  0.00     0.143 C 
HETATM   37  N1  UNL     1      26.575   2.609  34.043  1.00  0.00    -0.251 N 
ATOM     38  H1  UNL     1      27.395   2.512  34.640  1.00  0.00     0.196 HD
BRANCH  36  39
HETATM   39  O1  UNL     1      25.129   3.861  32.827  1.00  0.00    -0.348 OA
ATOM     40  H1  UNL     1      24.255   3.719  33.172  1.00  0.00     0.219 HD
ENDBRANCH  36  39
BRANCH  37  41
HETATM   41  O2  UNL     1      25.898   1.478  33.734  1.00  0.00    -0.288 OA
ATOM     42  H2  UNL     1      25.525   0.868  34.359  1.00  0.00     0.244 HD
ENDBRANCH  37  41
ENDBRANCH   6  36
TORSDOF 9
ENDMDL
