MODEL 1
REMARK VINA RESULT: -6.536340527      0.000      0.000
REMARK  5 active torsions:
REMARK  status: ('A' for Active; 'I' for Inactive)
REMARK    1  A    between atoms: N1_2  and  C3_4 
REMARK    2  A    between atoms: C3_4  and  C4_5 
REMARK    3  A    between atoms: N2_6  and  C5_8 
REMARK    4  A    between atoms: C8_13  and  C9_14 
REMARK    5  A    between atoms: C10_15  and  C11_16 
ROOT
HETATM    1  C5  UNL     1     -29.985  11.754  23.369  1.00  0.00     0.107 A 
HETATM    2  C6  UNL     1     -29.699  12.769  22.491  1.00  0.00     0.065 A 
HETATM    3  C7  UNL     1     -30.113  12.756  21.175  1.00  0.00     0.094 A 
HETATM    4  N3  UNL     1     -30.824  11.703  20.749  1.00  0.00    -0.345 N 
ATOM      5  H3  UNL     1     -31.147  11.663  19.782  1.00  0.00     0.167 HD
HETATM    6  C8  UNL     1     -31.112  10.703  21.594  1.00  0.00     0.162 A 
HETATM    7  N4  UNL     1     -30.717  10.710  22.861  1.00  0.00    -0.321 N 
ATOM      8  H4  UNL     1     -30.960   9.926  23.467  1.00  0.00     0.169 HD
ENDROOT
BRANCH   1   9
HETATM    9  N2  UNL     1     -29.661  11.682  24.538  1.00  0.00    -0.354 N 
HETATM   10  C4  UNL     1     -28.968  12.099  25.618  1.00  0.00     0.092 C 
ATOM     11  H2  UNL     1     -30.194  10.886  24.887  1.00  0.00     0.166 HD
BRANCH  10  12
HETATM   12  C3  UNL     1     -27.682  12.845  25.289  1.00  0.00     0.315 C 
BRANCH  12  13
HETATM   13  N1  UNL     1     -26.629  12.325  26.103  1.00  0.00     0.084 N 
HETATM   14  C1  UNL     1     -26.592  12.843  27.440  1.00  0.00     0.309 C 
HETATM   15  C2  UNL     1     -25.345  12.458  25.428  1.00  0.00     0.309 C 
ENDBRANCH  12  13
ENDBRANCH  10  12
ENDBRANCH   1   9
BRANCH   6  16
HETATM   16  C9  UNL     1     -31.888   9.586  21.094  1.00  0.00    -0.029 C 
HETATM   17  C10 UNL     1     -32.552   8.653  20.694  1.00  0.00    -0.089 C 
BRANCH  17  18
HETATM   18  C11 UNL     1     -33.376   7.540  20.223  1.00  0.00     0.013 C 
HETATM   19  C12 UNL     1     -33.962   7.945  18.875  1.00  0.00     0.028 C 
HETATM   20  C13 UNL     1     -32.539   6.302  20.098  1.00  0.00     0.028 C 
HETATM   21  C14 UNL     1     -34.525   7.355  21.197  1.00  0.00     0.028 C 
ENDBRANCH  17  18
ENDBRANCH   6  16
TORSDOF 5
ENDMDL
MODEL 2
REMARK VINA RESULT: -6.339721883      1.929      3.545
REMARK  5 active torsions:
REMARK  status: ('A' for Active; 'I' for Inactive)
REMARK    1  A    between atoms: N1_2  and  C3_4 
REMARK    2  A    between atoms: C3_4  and  C4_5 
REMARK    3  A    between atoms: N2_6  and  C5_8 
REMARK    4  A    between atoms: C8_13  and  C9_14 
REMARK    5  A    between atoms: C10_15  and  C11_16 
ROOT
HETATM    1  C5  UNL     1     -30.655   9.805  21.486  1.00  0.00     0.107 A 
HETATM    2  C6  UNL     1     -29.680   8.884  21.777  1.00  0.00     0.065 A 
HETATM    3  C7  UNL     1     -29.931   7.529  21.848  1.00  0.00     0.094 A 
HETATM    4  N3  UNL     1     -31.182   7.108  21.620  1.00  0.00    -0.345 N 
ATOM      5  H3  UNL     1     -31.401   6.112  21.663  1.00  0.00     0.167 HD
HETATM    6  C8  UNL     1     -32.146   7.994  21.334  1.00  0.00     0.162 A 
HETATM    7  N4  UNL     1     -31.911   9.299  21.264  1.00  0.00    -0.321 N 
ATOM      8  H4  UNL     1     -32.676   9.935  21.043  1.00  0.00     0.169 HD
ENDROOT
BRANCH   1   9
HETATM    9  N2  UNL     1     -30.524  11.010  21.405  1.00  0.00    -0.354 N 
HETATM   10  C4  UNL     1     -30.245  12.224  21.924  1.00  0.00     0.092 C 
ATOM     11  H2  UNL     1     -30.738  11.210  20.429  1.00  0.00     0.166 HD
BRANCH  10  12
HETATM   12  C3  UNL     1     -30.478  12.332  23.426  1.00  0.00     0.315 C 
BRANCH  12  13
HETATM   13  N1  UNL     1     -29.236  12.125  24.099  1.00  0.00     0.084 N 
HETATM   14  C1  UNL     1     -29.357  11.653  25.449  1.00  0.00     0.309 C 
HETATM   15  C2  UNL     1     -28.397  13.312  24.007  1.00  0.00     0.309 C 
ENDBRANCH  12  13
ENDBRANCH  10  12
ENDBRANCH   1   9
BRANCH   6  16
HETATM   16  C9  UNL     1     -33.484   7.495  21.088  1.00  0.00    -0.029 C 
HETATM   17  C10 UNL     1     -34.601   7.063  20.898  1.00  0.00    -0.089 C 
BRANCH  17  18
HETATM   18  C11 UNL     1     -35.950   6.534  20.697  1.00  0.00     0.013 C 
HETATM   19  C12 UNL     1     -36.765   6.878  21.939  1.00  0.00     0.028 C 
HETATM   20  C13 UNL     1     -36.558   7.139  19.467  1.00  0.00     0.028 C 
HETATM   21  C14 UNL     1     -35.857   5.022  20.603  1.00  0.00     0.028 C 
ENDBRANCH  17  18
ENDBRANCH   6  16
TORSDOF 5
ENDMDL
MODEL 3
REMARK VINA RESULT: -6.293164779      2.101      3.516
REMARK  5 active torsions:
REMARK  status: ('A' for Active; 'I' for Inactive)
REMARK    1  A    between atoms: N1_2  and  C3_4 
REMARK    2  A    between atoms: C3_4  and  C4_5 
REMARK    3  A    between atoms: N2_6  and  C5_8 
REMARK    4  A    between atoms: C8_13  and  C9_14 
REMARK    5  A    between atoms: C10_15  and  C11_16 
ROOT
HETATM    1  C5  UNL     1     -30.652   9.625  21.410  1.00  0.00     0.107 A 
HETATM    2  C6  UNL     1     -29.679   8.762  21.847  1.00  0.00     0.065 A 
HETATM    3  C7  UNL     1     -29.838   7.391  21.837  1.00  0.00     0.094 A 
HETATM    4  N3  UNL     1     -30.994   6.895  21.378  1.00  0.00    -0.345 N 
ATOM      5  H3  UNL     1     -31.144   5.886  21.355  1.00  0.00     0.167 HD
HETATM    6  C8  UNL     1     -31.955   7.724  20.947  1.00  0.00     0.162 A 
HETATM    7  N4  UNL     1     -31.809   9.044  20.955  1.00  0.00    -0.321 N 
ATOM      8  H4  UNL     1     -32.568   9.635  20.617  1.00  0.00     0.169 HD
ENDROOT
BRANCH   1   9
HETATM    9  N2  UNL     1     -30.599  10.839  21.385  1.00  0.00    -0.354 N 
HETATM   10  C4  UNL     1     -30.378  12.041  21.956  1.00  0.00     0.092 C 
ATOM     11  H2  UNL     1     -30.856  11.071  20.426  1.00  0.00     0.166 HD
BRANCH  10  12
HETATM   12  C3  UNL     1     -30.570  12.064  23.466  1.00  0.00     0.315 C 
BRANCH  12  13
HETATM   13  N1  UNL     1     -29.287  12.022  24.092  1.00  0.00     0.084 N 
HETATM   14  C1  UNL     1     -29.311  11.695  25.489  1.00  0.00     0.309 C 
HETATM   15  C2  UNL     1     -28.547  13.249  23.830  1.00  0.00     0.309 C 
ENDBRANCH  12  13
ENDBRANCH  10  12
ENDBRANCH   1   9
BRANCH   6  16
HETATM   16  C9  UNL     1     -33.189   7.146  20.453  1.00  0.00    -0.029 C 
HETATM   17  C10 UNL     1     -34.215   6.642  20.049  1.00  0.00    -0.089 C 
BRANCH  17  18
HETATM   18  C11 UNL     1     -35.454   6.016  19.584  1.00  0.00     0.013 C 
HETATM   19  C12 UNL     1     -35.198   5.486  18.178  1.00  0.00     0.028 C 
HETATM   20  C13 UNL     1     -35.847   4.909  20.516  1.00  0.00     0.028 C 
HETATM   21  C14 UNL     1     -36.522   7.091  19.493  1.00  0.00     0.028 C 
ENDBRANCH  17  18
ENDBRANCH   6  16
TORSDOF 5
ENDMDL
MODEL 4
REMARK VINA RESULT: -6.192662676      2.389      3.154
REMARK  5 active torsions:
REMARK  status: ('A' for Active; 'I' for Inactive)
REMARK    1  A    between atoms: N1_2  and  C3_4 
REMARK    2  A    between atoms: C3_4  and  C4_5 
REMARK    3  A    between atoms: N2_6  and  C5_8 
REMARK    4  A    between atoms: C8_13  and  C9_14 
REMARK    5  A    between atoms: C10_15  and  C11_16 
ROOT
HETATM    1  C5  UNL     1     -29.976  11.789  22.712  1.00  0.00     0.107 A 
HETATM    2  C6  UNL     1     -29.437  10.528  22.647  1.00  0.00     0.065 A 
HETATM    3  C7  UNL     1     -29.954   9.537  21.838  1.00  0.00     0.094 A 
HETATM    4  N3  UNL     1     -31.025   9.830  21.089  1.00  0.00    -0.345 N 
ATOM      5  H3  UNL     1     -31.431   9.121  20.479  1.00  0.00     0.167 HD
HETATM    6  C8  UNL     1     -31.563  11.057  21.140  1.00  0.00     0.162 A 
HETATM    7  N4  UNL     1     -31.071  12.015  21.916  1.00  0.00    -0.321 N 
ATOM      8  H4  UNL     1     -31.514  12.934  21.922  1.00  0.00     0.169 HD
ENDROOT
BRANCH   1   9
HETATM    9  N2  UNL     1     -29.589  12.717  23.394  1.00  0.00    -0.354 N 
HETATM   10  C4  UNL     1     -28.761  13.275  24.301  1.00  0.00     0.092 C 
ATOM     11  H2  UNL     1     -30.227  13.475  23.152  1.00  0.00     0.166 HD
BRANCH  10  12
HETATM   12  C3  UNL     1     -28.120  12.281  25.260  1.00  0.00     0.315 C 
BRANCH  12  13
HETATM   13  N1  UNL     1     -26.968  12.888  25.847  1.00  0.00     0.084 N 
HETATM   14  C1  UNL     1     -25.716  12.460  25.292  1.00  0.00     0.309 C 
HETATM   15  C2  UNL     1     -26.998  12.752  27.298  1.00  0.00     0.309 C 
ENDBRANCH  12  13
ENDBRANCH  10  12
ENDBRANCH   1   9
BRANCH   6  16
HETATM   16  C9  UNL     1     -32.718  11.334  20.309  1.00  0.00    -0.029 C 
HETATM   17  C10 UNL     1     -33.682  11.545  19.605  1.00  0.00    -0.089 C 
BRANCH  17  18
HETATM   18  C11 UNL     1     -34.854  11.772  18.759  1.00  0.00     0.013 C 
HETATM   19  C12 UNL     1     -35.577  10.437  18.613  1.00  0.00     0.028 C 
HETATM   20  C13 UNL     1     -35.744  12.803  19.384  1.00  0.00     0.028 C 
HETATM   21  C14 UNL     1     -34.370  12.195  17.383  1.00  0.00     0.028 C 
ENDBRANCH  17  18
ENDBRANCH   6  16
TORSDOF 5
ENDMDL
MODEL 5
REMARK VINA RESULT: -6.190664947      4.629      8.579
REMARK  5 active torsions:
REMARK  status: ('A' for Active; 'I' for Inactive)
REMARK    1  A    between atoms: N1_2  and  C3_4 
REMARK    2  A    between atoms: C3_4  and  C4_5 
REMARK    3  A    between atoms: N2_6  and  C5_8 
REMARK    4  A    between atoms: C8_13  and  C9_14 
REMARK    5  A    between atoms: C10_15  and  C11_16 
ROOT
HETATM    1  C5  UNL     1     -35.678   6.180  21.085  1.00  0.00     0.107 A 
HETATM    2  C6  UNL     1     -35.230   5.242  20.189  1.00  0.00     0.065 A 
HETATM    3  C7  UNL     1     -33.989   5.315  19.590  1.00  0.00     0.094 A 
HETATM    4  N3  UNL     1     -33.198   6.349  19.906  1.00  0.00    -0.345 N 
ATOM      5  H3  UNL     1     -32.274   6.433  19.482  1.00  0.00     0.167 HD
HETATM    6  C8  UNL     1     -33.620   7.274  20.779  1.00  0.00     0.162 A 
HETATM    7  N4  UNL     1     -34.813   7.210  21.359  1.00  0.00    -0.321 N 
ATOM      8  H4  UNL     1     -35.091   7.937  22.018  1.00  0.00     0.169 HD
ENDROOT
BRANCH   1   9
HETATM    9  N2  UNL     1     -36.751   6.195  21.655  1.00  0.00    -0.354 N 
HETATM   10  C4  UNL     1     -38.061   6.505  21.738  1.00  0.00     0.092 C 
ATOM     11  H2  UNL     1     -36.559   5.725  22.540  1.00  0.00     0.166 HD
BRANCH  10  12
HETATM   12  C3  UNL     1     -38.479   7.696  20.884  1.00  0.00     0.315 C 
BRANCH  12  13
HETATM   13  N1  UNL     1     -37.912   8.882  21.442  1.00  0.00     0.084 N 
HETATM   14  C1  UNL     1     -38.804   9.643  22.269  1.00  0.00     0.309 C 
HETATM   15  C2  UNL     1     -37.300   9.697  20.402  1.00  0.00     0.309 C 
ENDBRANCH  12  13
ENDBRANCH  10  12
ENDBRANCH   1   9
BRANCH   6  16
HETATM   16  C9  UNL     1     -32.731   8.373  21.097  1.00  0.00    -0.029 C 
HETATM   17  C10 UNL     1     -31.976   9.289  21.344  1.00  0.00    -0.089 C 
BRANCH  17  18
HETATM   18  C11 UNL     1     -31.063  10.401  21.613  1.00  0.00     0.013 C 
HETATM   19  C12 UNL     1     -31.527  11.071  22.902  1.00  0.00     0.028 C 
HETATM   20  C13 UNL     1     -29.660   9.890  21.744  1.00  0.00     0.028 C 
HETATM   21  C14 UNL     1     -31.199  11.409  20.486  1.00  0.00     0.028 C 
ENDBRANCH  17  18
ENDBRANCH   6  16
TORSDOF 5
ENDMDL
