MODEL 1
REMARK VINA RESULT: -7.047707812      0.000      0.000
REMARK  2 active torsions:
REMARK  status: ('A' for Active; 'I' for Inactive)
REMARK    1  A    between atoms: N2_15  and  C12_16 
REMARK    2  A    between atoms: C12_16  and  C13_17 
ROOT
HETATM    1  C1  UNL     1     -38.322   6.001  21.354  1.00  0.00     0.082 C 
HETATM    2  C2  UNL     1     -39.175   6.998  20.578  1.00  0.00     0.211 C 
HETATM    3  O1  UNL     1     -39.158   6.826  19.221  1.00  0.00    -0.386 OA
HETATM    4  C3  UNL     1     -38.745   7.934  18.491  1.00  0.00     0.168 C 
HETATM    5  C4  UNL     1     -37.457   7.635  17.703  1.00  0.00     0.031 C 
HETATM    6  C5  UNL     1     -36.681   6.720  18.578  1.00  0.00    -0.003 C 
HETATM    7  C6  UNL     1     -35.616   5.890  17.855  1.00  0.00     0.041 C 
HETATM    8  C7  UNL     1     -34.707   5.447  18.989  1.00  0.00     0.225 C 
HETATM    9  C8  UNL     1     -35.456   5.178  20.275  1.00  0.00     0.061 C 
HETATM   10  C9  UNL     1     -35.949   6.456  20.882  1.00  0.00     0.089 C 
HETATM   11  N1  UNL     1     -37.051   6.455  21.709  1.00  0.00    -0.395 N 
ATOM     12  H1  UNL     1     -36.929   6.814  22.656  1.00  0.00     0.159 HD
HETATM   13  C10 UNL     1     -35.962   7.426  19.699  1.00  0.00     0.041 C 
HETATM   14  C11 UNL     1     -34.510   7.721  19.377  1.00  0.00     0.280 C 
HETATM   15  N2  UNL     1     -33.751   6.538  19.101  1.00  0.00     0.094 N 
ENDROOT
BRANCH  15  16
HETATM   16  C12 UNL     1     -32.675   6.252  19.951  1.00  0.00     0.277 C 
BRANCH  16  17
HETATM   17  C13 UNL     1     -32.354   7.253  20.979  1.00  0.00     0.014 A 
HETATM   18  C14 UNL     1     -30.916   7.161  21.590  1.00  0.00     0.007 A 
HETATM   19  C15 UNL     1     -31.432   8.373  20.900  1.00  0.00     0.007 A 
ENDBRANCH  16  17
ENDBRANCH  15  16
TORSDOF 2
ENDMDL
MODEL 2
REMARK VINA RESULT: -6.819113556      1.038      1.233
REMARK  2 active torsions:
REMARK  status: ('A' for Active; 'I' for Inactive)
REMARK    1  A    between atoms: N2_15  and  C12_16 
REMARK    2  A    between atoms: C12_16  and  C13_17 
ROOT
HETATM    1  C1  UNL     1     -38.773   6.657  21.931  1.00  0.00     0.082 C 
HETATM    2  C2  UNL     1     -39.639   7.254  20.827  1.00  0.00     0.211 C 
HETATM    3  O1  UNL     1     -39.358   6.792  19.571  1.00  0.00    -0.386 OA
HETATM    4  C3  UNL     1     -39.024   7.770  18.643  1.00  0.00     0.168 C 
HETATM    5  C4  UNL     1     -37.587   7.580  18.124  1.00  0.00     0.031 C 
HETATM    6  C5  UNL     1     -36.827   7.067  19.292  1.00  0.00    -0.003 C 
HETATM    7  C6  UNL     1     -35.526   6.339  18.942  1.00  0.00     0.041 C 
HETATM    8  C7  UNL     1     -34.764   6.361  20.256  1.00  0.00     0.225 C 
HETATM    9  C8  UNL     1     -35.666   6.234  21.464  1.00  0.00     0.061 C 
HETATM   10  C9  UNL     1     -36.469   7.482  21.661  1.00  0.00     0.089 C 
HETATM   11  N1  UNL     1     -37.681   7.435  22.317  1.00  0.00    -0.395 N 
ATOM     12  H1  UNL     1     -37.788   8.014  23.150  1.00  0.00     0.159 HD
HETATM   13  C10 UNL     1     -36.446   8.140  20.280  1.00  0.00     0.041 C 
HETATM   14  C11 UNL     1     -35.033   8.653  20.079  1.00  0.00     0.280 C 
HETATM   15  N2  UNL     1     -34.045   7.624  20.209  1.00  0.00     0.094 N 
ENDROOT
BRANCH  15  16
HETATM   16  C12 UNL     1     -33.098   7.767  21.232  1.00  0.00     0.277 C 
BRANCH  16  17
HETATM   17  C13 UNL     1     -31.699   7.470  20.891  1.00  0.00     0.014 A 
HETATM   18  C14 UNL     1     -30.629   8.405  21.546  1.00  0.00     0.007 A 
HETATM   19  C15 UNL     1     -30.652   6.932  21.741  1.00  0.00     0.007 A 
ENDBRANCH  16  17
ENDBRANCH  15  16
TORSDOF 2
ENDMDL
MODEL 3
REMARK VINA RESULT: -6.654240824      2.648      5.545
REMARK  2 active torsions:
REMARK  status: ('A' for Active; 'I' for Inactive)
REMARK    1  A    between atoms: N2_15  and  C12_16 
REMARK    2  A    between atoms: C12_16  and  C13_17 
ROOT
HETATM    1  C1  UNL     1     -33.603  10.957  19.616  1.00  0.00     0.082 C 
HETATM    2  C2  UNL     1     -32.423  11.074  20.575  1.00  0.00     0.211 C 
HETATM    3  O1  UNL     1     -31.463  10.113  20.416  1.00  0.00    -0.386 OA
HETATM    4  C3  UNL     1     -31.192   9.357  21.550  1.00  0.00     0.168 C 
HETATM    5  C4  UNL     1     -31.526   7.872  21.324  1.00  0.00     0.031 C 
HETATM    6  C5  UNL     1     -32.721   7.882  20.442  1.00  0.00    -0.003 C 
HETATM    7  C6  UNL     1     -32.964   6.579  19.674  1.00  0.00     0.041 C 
HETATM    8  C7  UNL     1     -34.423   6.694  19.268  1.00  0.00     0.225 C 
HETATM    9  C8  UNL     1     -34.837   8.114  18.950  1.00  0.00     0.061 C 
HETATM   10  C9  UNL     1     -34.895   8.943  20.195  1.00  0.00     0.089 C 
HETATM   11  N1  UNL     1     -34.726  10.310  20.131  1.00  0.00    -0.395 N 
ATOM     12  H1  UNL     1     -35.483  10.894  20.488  1.00  0.00     0.159 HD
HETATM   13  C10 UNL     1     -34.006   8.174  21.174  1.00  0.00     0.041 C 
HETATM   14  C11 UNL     1     -34.773   6.919  21.545  1.00  0.00     0.280 C 
HETATM   15  N2  UNL     1     -35.135   6.131  20.404  1.00  0.00     0.094 N 
ENDROOT
BRANCH  15  16
HETATM   16  C12 UNL     1     -36.502   5.936  20.166  1.00  0.00     0.277 C 
BRANCH  16  17
HETATM   17  C13 UNL     1     -37.437   6.521  21.138  1.00  0.00     0.014 A 
HETATM   18  C14 UNL     1     -38.751   7.124  20.537  1.00  0.00     0.007 A 
HETATM   19  C15 UNL     1     -38.743   6.034  21.549  1.00  0.00     0.007 A 
ENDBRANCH  16  17
ENDBRANCH  15  16
TORSDOF 2
ENDMDL
MODEL 4
REMARK VINA RESULT: -6.430390635      2.205      3.676
REMARK  2 active torsions:
REMARK  status: ('A' for Active; 'I' for Inactive)
REMARK    1  A    between atoms: N2_15  and  C12_16 
REMARK    2  A    between atoms: C12_16  and  C13_17 
ROOT
HETATM    1  C1  UNL     1     -35.308   9.681  16.303  1.00  0.00     0.082 C 
HETATM    2  C2  UNL     1     -35.478   8.646  15.196  1.00  0.00     0.211 C 
HETATM    3  O1  UNL     1     -36.339   7.628  15.497  1.00  0.00    -0.386 OA
HETATM    4  C3  UNL     1     -35.797   6.351  15.416  1.00  0.00     0.168 C 
HETATM    5  C4  UNL     1     -35.815   5.649  16.785  1.00  0.00     0.031 C 
HETATM    6  C5  UNL     1     -35.572   6.733  17.771  1.00  0.00    -0.003 C 
HETATM    7  C6  UNL     1     -36.021   6.414  19.200  1.00  0.00     0.041 C 
HETATM    8  C7  UNL     1     -35.251   7.428  20.029  1.00  0.00     0.225 C 
HETATM    9  C8  UNL     1     -35.080   8.757  19.327  1.00  0.00     0.061 C 
HETATM   10  C9  UNL     1     -34.117   8.636  18.187  1.00  0.00     0.089 C 
HETATM   11  N1  UNL     1     -34.189   9.503  17.118  1.00  0.00    -0.395 N 
ATOM     12  H1  UNL     1     -33.361  10.059  16.905  1.00  0.00     0.159 HD
HETATM   13  C10 UNL     1     -34.124   7.138  17.875  1.00  0.00     0.041 C 
HETATM   14  C11 UNL     1     -33.402   6.463  19.024  1.00  0.00     0.280 C 
HETATM   15  N2  UNL     1     -33.989   6.756  20.298  1.00  0.00     0.094 N 
ENDROOT
BRANCH  15  16
HETATM   16  C12 UNL     1     -33.190   7.423  21.236  1.00  0.00     0.277 C 
BRANCH  16  17
HETATM   17  C13 UNL     1     -31.843   7.821  20.800  1.00  0.00     0.014 A 
HETATM   18  C14 UNL     1     -31.539   9.355  20.849  1.00  0.00     0.007 A 
HETATM   19  C15 UNL     1     -30.748   8.344  21.597  1.00  0.00     0.007 A 
ENDBRANCH  16  17
ENDBRANCH  15  16
TORSDOF 2
ENDMDL
MODEL 5
REMARK VINA RESULT: -6.306370370      1.633      2.273
REMARK  2 active torsions:
REMARK  status: ('A' for Active; 'I' for Inactive)
REMARK    1  A    between atoms: N2_15  and  C12_16 
REMARK    2  A    between atoms: C12_16  and  C13_17 
ROOT
HETATM    1  C1  UNL     1     -37.579   7.508  20.630  1.00  0.00     0.082 C 
HETATM    2  C2  UNL     1     -38.070   7.720  19.202  1.00  0.00     0.211 C 
HETATM    3  O1  UNL     1     -37.487   6.903  18.273  1.00  0.00    -0.386 OA
HETATM    4  C3  UNL     1     -36.849   7.559  17.228  1.00  0.00     0.168 C 
HETATM    5  C4  UNL     1     -35.341   7.252  17.213  1.00  0.00     0.031 C 
HETATM    6  C5  UNL     1     -34.964   7.137  18.645  1.00  0.00    -0.003 C 
HETATM    7  C6  UNL     1     -33.667   6.366  18.907  1.00  0.00     0.041 C 
HETATM    8  C7  UNL     1     -33.293   6.805  20.313  1.00  0.00     0.225 C 
HETATM    9  C8  UNL     1     -34.496   7.033  21.200  1.00  0.00     0.061 C 
HETATM   10  C9  UNL     1     -35.240   8.263  20.782  1.00  0.00     0.089 C 
HETATM   11  N1  UNL     1     -36.586   8.391  21.055  1.00  0.00    -0.395 N 
ATOM     12  H1  UNL     1     -36.878   9.194  21.613  1.00  0.00     0.159 HD
HETATM   13  C10 UNL     1     -34.798   8.468  19.332  1.00  0.00     0.041 C 
HETATM   14  C11 UNL     1     -33.354   8.928  19.391  1.00  0.00     0.280 C 
HETATM   15  N2  UNL     1     -32.508   8.009  20.093  1.00  0.00     0.094 N 
ENDROOT
BRANCH  15  16
HETATM   16  C12 UNL     1     -31.870   8.479  21.249  1.00  0.00     0.277 C 
BRANCH  16  17
HETATM   17  C13 UNL     1     -31.084   9.715  21.120  1.00  0.00     0.014 A 
HETATM   18  C14 UNL     1     -31.245  10.745  22.287  1.00  0.00     0.007 A 
HETATM   19  C15 UNL     1     -29.939  10.149  21.901  1.00  0.00     0.007 A 
ENDBRANCH  16  17
ENDBRANCH  15  16
TORSDOF 2
ENDMDL
