MODEL 1
REMARK VINA RESULT: -6.847359188      0.000      0.000
REMARK  4 active torsions:
REMARK  status: ('A' for Active; 'I' for Inactive)
REMARK    1  A    between atoms: C2_2  and  N1_3 
REMARK    2  A    between atoms: C5_8  and  O1_9 
REMARK    3  A    between atoms: C7_11  and  O2_12 
REMARK    4  A    between atoms: C11_16  and  C12_17 
ROOT
HETATM    1  N1  UNL     1     -34.132  10.822  19.950  1.00  0.00    -0.290 N 
HETATM    2  N2  UNL     1     -33.378  11.592  20.717  1.00  0.00    -0.297 N 
ATOM      3  H2  UNL     1     -33.560  12.568  20.953  1.00  0.00     0.187 HD
HETATM    4  C3  UNL     1     -32.344  10.867  21.124  1.00  0.00     0.063 A 
HETATM    5  C4  UNL     1     -31.249  11.169  21.943  1.00  0.00     0.071 A 
HETATM    6  C5  UNL     1     -30.306  10.210  22.206  1.00  0.00     0.103 A 
HETATM    7  C7  UNL     1     -30.402   8.925  21.679  1.00  0.00     0.102 A 
HETATM    8  C9  UNL     1     -31.471   8.623  20.877  1.00  0.00     0.055 A 
HETATM    9  C10 UNL     1     -32.418   9.593  20.615  1.00  0.00     0.025 A 
HETATM   10  C11 UNL     1     -33.596   9.592  19.851  1.00  0.00     0.078 A 
ENDROOT
BRANCH  10  11
HETATM   11  C12 UNL     1     -34.054   8.440  19.120  1.00  0.00     0.115 C 
HETATM   12  N3  UNL     1     -34.849   7.608  19.641  1.00  0.00    -0.401 N 
HETATM   13  C13 UNL     1     -35.390   6.430  19.056  1.00  0.00     0.145 C 
ATOM     14  H3  UNL     1     -35.138   7.805  20.600  1.00  0.00     0.158 HD
ENDBRANCH  10  11
BRANCH   1  15
HETATM   15  C2  UNL     1     -35.362  11.290  19.337  1.00  0.00     0.145 C 
HETATM   16  C1  UNL     1     -35.144  12.272  18.232  1.00  0.00     0.028 C 
ENDBRANCH   1  15
BRANCH   7  17
HETATM   17  O2  UNL     1     -29.404   8.015  21.996  1.00  0.00    -0.353 OA
HETATM   18  C8  UNL     1     -29.700   6.628  22.025  1.00  0.00     0.210 C 
ENDBRANCH   7  17
BRANCH   6  19
HETATM   19  O1  UNL     1     -29.215  10.494  23.016  1.00  0.00    -0.353 OA
HETATM   20  C6  UNL     1     -29.354  11.512  23.982  1.00  0.00     0.210 C 
ENDBRANCH   6  19
TORSDOF 4
ENDMDL
MODEL 2
REMARK VINA RESULT: -6.636815952      2.143      4.338
REMARK  4 active torsions:
REMARK  status: ('A' for Active; 'I' for Inactive)
REMARK    1  A    between atoms: C2_2  and  N1_3 
REMARK    2  A    between atoms: C5_8  and  O1_9 
REMARK    3  A    between atoms: C7_11  and  O2_12 
REMARK    4  A    between atoms: C11_16  and  C12_17 
ROOT
HETATM    1  N1  UNL     1     -30.460  11.205  21.517  1.00  0.00    -0.290 N 
HETATM    2  N2  UNL     1     -29.682  10.275  22.045  1.00  0.00    -0.297 N 
ATOM      3  H2  UNL     1     -28.834  10.437  22.589  1.00  0.00     0.187 HD
HETATM    4  C3  UNL     1     -30.204   9.093  21.741  1.00  0.00     0.063 A 
HETATM    5  C4  UNL     1     -29.802   7.784  22.037  1.00  0.00     0.071 A 
HETATM    6  C5  UNL     1     -30.543   6.723  21.587  1.00  0.00     0.103 A 
HETATM    7  C7  UNL     1     -31.701   6.904  20.834  1.00  0.00     0.102 A 
HETATM    8  C9  UNL     1     -32.099   8.182  20.541  1.00  0.00     0.055 A 
HETATM    9  C10 UNL     1     -31.348   9.248  20.997  1.00  0.00     0.025 A 
HETATM   10  C11 UNL     1     -31.491  10.638  20.865  1.00  0.00     0.078 A 
ENDROOT
BRANCH  10  11
HETATM   11  C12 UNL     1     -32.571  11.249  20.134  1.00  0.00     0.115 C 
HETATM   12  N3  UNL     1     -33.710  11.402  20.657  1.00  0.00    -0.401 N 
HETATM   13  C13 UNL     1     -34.870  11.982  20.073  1.00  0.00     0.145 C 
ATOM     14  H3  UNL     1     -33.811  11.068  21.616  1.00  0.00     0.158 HD
ENDBRANCH  10  11
BRANCH   1  15
HETATM   15  C2  UNL     1     -30.194  12.625  21.663  1.00  0.00     0.145 C 
HETATM   16  C1  UNL     1     -29.457  12.969  22.916  1.00  0.00     0.028 C 
ENDBRANCH   1  15
BRANCH   7  17
HETATM   17  O2  UNL     1     -32.391   5.775  20.419  1.00  0.00    -0.353 OA
HETATM   18  C8  UNL     1     -33.239   5.846  19.284  1.00  0.00     0.210 C 
ENDBRANCH   7  17
BRANCH   6  19
HETATM   19  O1  UNL     1     -30.158   5.420  21.872  1.00  0.00    -0.353 OA
HETATM   20  C6  UNL     1     -29.941   5.073  23.221  1.00  0.00     0.210 C 
ENDBRANCH   6  19
TORSDOF 4
ENDMDL
MODEL 3
REMARK VINA RESULT: -6.014477611      1.899      3.534
REMARK  4 active torsions:
REMARK  status: ('A' for Active; 'I' for Inactive)
REMARK    1  A    between atoms: C2_2  and  N1_3 
REMARK    2  A    between atoms: C5_8  and  O1_9 
REMARK    3  A    between atoms: C7_11  and  O2_12 
REMARK    4  A    between atoms: C11_16  and  C12_17 
ROOT
HETATM    1  N1  UNL     1     -32.816   7.275  19.964  1.00  0.00    -0.290 N 
HETATM    2  N2  UNL     1     -31.815   7.165  20.821  1.00  0.00    -0.297 N 
ATOM      3  H2  UNL     1     -31.435   6.294  21.193  1.00  0.00     0.187 HD
HETATM    4  C3  UNL     1     -31.396   8.390  21.110  1.00  0.00     0.063 A 
HETATM    5  C4  UNL     1     -30.378   8.861  21.949  1.00  0.00     0.071 A 
HETATM    6  C5  UNL     1     -30.155  10.209  22.064  1.00  0.00     0.103 A 
HETATM    7  C7  UNL     1     -30.918  11.140  21.363  1.00  0.00     0.102 A 
HETATM    8  C9  UNL     1     -31.915  10.685  20.541  1.00  0.00     0.055 A 
HETATM    9  C10 UNL     1     -32.135   9.326  20.429  1.00  0.00     0.025 A 
HETATM   10  C11 UNL     1     -33.057   8.569  19.688  1.00  0.00     0.078 A 
ENDROOT
BRANCH  10  11
HETATM   11  C12 UNL     1     -34.048   9.163  18.830  1.00  0.00     0.115 C 
HETATM   12  N3  UNL     1     -33.963   9.074  17.573  1.00  0.00    -0.401 N 
HETATM   13  C13 UNL     1     -34.853   9.601  16.596  1.00  0.00     0.145 C 
ATOM     14  H3  UNL     1     -33.157   8.562  17.214  1.00  0.00     0.158 HD
ENDBRANCH  10  11
BRANCH   1  15
HETATM   15  C2  UNL     1     -33.513   6.123  19.420  1.00  0.00     0.145 C 
HETATM   16  C1  UNL     1     -34.806   5.827  20.106  1.00  0.00     0.028 C 
ENDBRANCH   1  15
BRANCH   7  17
HETATM   17  O2  UNL     1     -30.625  12.484  21.537  1.00  0.00    -0.353 OA
HETATM   18  C8  UNL     1     -29.490  13.046  20.898  1.00  0.00     0.210 C 
ENDBRANCH   7  17
BRANCH   6  19
HETATM   19  O1  UNL     1     -29.150  10.691  22.891  1.00  0.00    -0.353 OA
HETATM   20  C6  UNL     1     -29.527  11.282  24.115  1.00  0.00     0.210 C 
ENDBRANCH   6  19
TORSDOF 4
ENDMDL
MODEL 4
REMARK VINA RESULT: -5.963702156      1.283      3.670
REMARK  4 active torsions:
REMARK  status: ('A' for Active; 'I' for Inactive)
REMARK    1  A    between atoms: C2_2  and  N1_3 
REMARK    2  A    between atoms: C5_8  and  O1_9 
REMARK    3  A    between atoms: C7_11  and  O2_12 
REMARK    4  A    between atoms: C11_16  and  C12_17 
ROOT
HETATM    1  N1  UNL     1     -34.406   7.940  18.993  1.00  0.00    -0.290 N 
HETATM    2  N2  UNL     1     -33.751   6.902  19.484  1.00  0.00    -0.297 N 
ATOM      3  H2  UNL     1     -33.995   5.920  19.355  1.00  0.00     0.187 HD
HETATM    4  C3  UNL     1     -32.718   7.367  20.175  1.00  0.00     0.063 A 
HETATM    5  C4  UNL     1     -31.704   6.725  20.897  1.00  0.00     0.071 A 
HETATM    6  C5  UNL     1     -30.740   7.466  21.530  1.00  0.00     0.103 A 
HETATM    7  C7  UNL     1     -30.735   8.858  21.479  1.00  0.00     0.102 A 
HETATM    8  C9  UNL     1     -31.724   9.492  20.774  1.00  0.00     0.055 A 
HETATM    9  C10 UNL     1     -32.692   8.741  20.138  1.00  0.00     0.025 A 
HETATM   10  C11 UNL     1     -33.808   9.088  19.359  1.00  0.00     0.078 A 
ENDROOT
BRANCH  10  11
HETATM   11  C12 UNL     1     -34.169  10.452  19.073  1.00  0.00     0.115 C 
HETATM   12  N3  UNL     1     -35.067  11.043  19.735  1.00  0.00    -0.401 N 
HETATM   13  C13 UNL     1     -35.535  12.377  19.578  1.00  0.00     0.145 C 
ATOM     14  H3  UNL     1     -35.512  10.496  20.473  1.00  0.00     0.158 HD
ENDBRANCH  10  11
BRANCH   1  15
HETATM   15  C2  UNL     1     -35.593   7.800  18.169  1.00  0.00     0.145 C 
HETATM   16  C1  UNL     1     -36.816   7.426  18.940  1.00  0.00     0.028 C 
ENDBRANCH   1  15
BRANCH   7  17
HETATM   17  O2  UNL     1     -29.722   9.530  22.147  1.00  0.00    -0.353 OA
HETATM   18  C8  UNL     1     -29.939  10.854  22.605  1.00  0.00     0.210 C 
ENDBRANCH   7  17
BRANCH   6  19
HETATM   19  O1  UNL     1     -29.729   6.844  22.249  1.00  0.00    -0.353 OA
HETATM   20  C6  UNL     1     -29.964   5.539  22.730  1.00  0.00     0.210 C 
ENDBRANCH   6  19
TORSDOF 4
ENDMDL
MODEL 5
REMARK VINA RESULT: -5.819631362      1.863      4.419
REMARK  4 active torsions:
REMARK  status: ('A' for Active; 'I' for Inactive)
REMARK    1  A    between atoms: C2_2  and  N1_3 
REMARK    2  A    between atoms: C5_8  and  O1_9 
REMARK    3  A    between atoms: C7_11  and  O2_12 
REMARK    4  A    between atoms: C11_16  and  C12_17 
ROOT
HETATM    1  N1  UNL     1     -33.924  10.999  19.326  1.00  0.00    -0.290 N 
HETATM    2  N2  UNL     1     -34.531   9.875  18.983  1.00  0.00    -0.297 N 
ATOM      3  H2  UNL     1     -35.406   9.798  18.465  1.00  0.00     0.187 HD
HETATM    4  C3  UNL     1     -33.796   8.867  19.434  1.00  0.00     0.063 A 
HETATM    5  C4  UNL     1     -33.958   7.478  19.358  1.00  0.00     0.071 A 
HETATM    6  C5  UNL     1     -33.025   6.648  19.924  1.00  0.00     0.103 A 
HETATM    7  C7  UNL     1     -31.904   7.147  20.582  1.00  0.00     0.102 A 
HETATM    8  C9  UNL     1     -31.739   8.505  20.659  1.00  0.00     0.055 A 
HETATM    9  C10 UNL     1     -32.682   9.336  20.087  1.00  0.00     0.025 A 
HETATM   10  C11 UNL     1     -32.792  10.733  20.002  1.00  0.00     0.078 A 
ENDROOT
BRANCH  10  11
HETATM   11  C12 UNL     1     -31.826  11.632  20.577  1.00  0.00     0.115 C 
HETATM   12  N3  UNL     1     -31.419  11.482  21.763  1.00  0.00    -0.401 N 
HETATM   13  C13 UNL     1     -30.474  12.277  22.471  1.00  0.00     0.145 C 
ATOM     14  H3  UNL     1     -31.816  10.695  22.277  1.00  0.00     0.158 HD
ENDBRANCH  10  11
BRANCH   1  15
HETATM   15  C2  UNL     1     -34.448  12.309  18.982  1.00  0.00     0.145 C 
HETATM   16  C1  UNL     1     -34.815  12.447  17.541  1.00  0.00     0.028 C 
ENDBRANCH   1  15
BRANCH   7  17
HETATM   17  O2  UNL     1     -31.010   6.237  21.125  1.00  0.00    -0.353 OA
HETATM   18  C8  UNL     1     -29.975   6.692  21.982  1.00  0.00     0.210 C 
ENDBRANCH   7  17
BRANCH   6  19
HETATM   19  O1  UNL     1     -33.173   5.269  19.857  1.00  0.00    -0.353 OA
HETATM   20  C6  UNL     1     -34.414   4.755  19.427  1.00  0.00     0.210 C 
ENDBRANCH   6  19
TORSDOF 4
ENDMDL
