MODEL 1
REMARK VINA RESULT: -6.458652223      0.000      0.000
REMARK  3 active torsions:
REMARK  status: ('A' for Active; 'I' for Inactive)
REMARK    1  A    between atoms: C4_4  and  N1_5 
REMARK    2  A    between atoms: N2_9  and  C8_10 
REMARK    3  A    between atoms: C8_10  and  C9_11 
ROOT
HETATM    1  N1  UNL     1     -33.191   7.199  20.066  1.00  0.00     0.121 N 
HETATM    2  C5  UNL     1     -33.001   5.880  19.571  1.00  0.00     0.280 C 
HETATM    3  C6  UNL     1     -34.287   5.079  19.512  1.00  0.00     0.075 C 
HETATM    4  C7  UNL     1     -35.385   5.838  18.808  1.00  0.00     0.065 C 
HETATM    5  N2  UNL     1     -36.220   6.623  19.605  1.00  0.00    -0.372 N 
HETATM    6  C12 UNL     1     -35.498   7.798  20.043  1.00  0.00     0.157 C 
HETATM    7  C13 UNL     1     -34.338   7.374  20.914  1.00  0.00     0.295 C 
ENDROOT
BRANCH   1   8
HETATM    8  C4  UNL     1     -32.048   7.827  20.639  1.00  0.00     0.419 C 
HETATM    9  C3  UNL     1     -32.399   8.995  21.545  1.00  0.00     0.065 C 
HETATM   10  C2  UNL     1     -31.141   9.825  21.658  1.00  0.00     0.005 C 
HETATM   11  C1  UNL     1     -29.887   9.009  21.528  1.00  0.00     0.028 C 
HETATM   12  C14 UNL     1     -30.040   7.577  21.885  1.00  0.00     0.235 C 
HETATM   13  N3  UNL     1     -31.219   6.940  21.409  1.00  0.00    -0.043 N 
ATOM     14  H32 UNL     1     -31.745   6.518  22.175  1.00  0.00     0.279 HD
ATOM     15  H31 UNL     1     -30.994   6.097  20.881  1.00  0.00     0.279 HD
ENDBRANCH   1   8
BRANCH   5  16
HETATM   16  C8  UNL     1     -37.084   6.073  20.556  1.00  0.00     0.067 C 
BRANCH  16  17
HETATM   17  C9  UNL     1     -38.263   6.895  20.997  1.00  0.00     0.024 A 
HETATM   18  C10 UNL     1     -39.290   6.439  21.929  1.00  0.00     0.010 A 
HETATM   19  C11 UNL     1     -38.293   7.487  22.408  1.00  0.00     0.010 A 
ENDBRANCH  16  17
ENDBRANCH   5  16
TORSDOF 3
ENDMDL
MODEL 2
REMARK VINA RESULT: -6.414925370      2.177      3.742
REMARK  3 active torsions:
REMARK  status: ('A' for Active; 'I' for Inactive)
REMARK    1  A    between atoms: C4_4  and  N1_5 
REMARK    2  A    between atoms: N2_9  and  C8_10 
REMARK    3  A    between atoms: C8_10  and  C9_11 
ROOT
HETATM    1  N1  UNL     1     -31.078   9.509  21.247  1.00  0.00     0.121 N 
HETATM    2  C5  UNL     1     -30.454   8.301  21.665  1.00  0.00     0.280 C 
HETATM    3  C6  UNL     1     -31.388   7.108  21.629  1.00  0.00     0.075 C 
HETATM    4  C7  UNL     1     -32.098   6.995  20.303  1.00  0.00     0.065 C 
HETATM    5  N2  UNL     1     -33.335   7.633  20.193  1.00  0.00    -0.372 N 
HETATM    6  C12 UNL     1     -33.132   9.064  20.119  1.00  0.00     0.157 C 
HETATM    7  C13 UNL     1     -32.506   9.545  21.408  1.00  0.00     0.295 C 
ENDROOT
BRANCH   1   8
HETATM    8  C4  UNL     1     -30.493  10.717  21.720  1.00  0.00     0.419 C 
HETATM    9  C3  UNL     1     -30.815  11.919  20.848  1.00  0.00     0.065 C 
HETATM   10  C2  UNL     1     -29.767  12.959  21.171  1.00  0.00     0.005 C 
HETATM   11  C1  UNL     1     -29.259  12.861  22.580  1.00  0.00     0.028 C 
HETATM   12  C14 UNL     1     -30.200  12.223  23.535  1.00  0.00     0.235 C 
HETATM   13  N3  UNL     1     -30.876  11.065  23.062  1.00  0.00    -0.043 N 
ATOM     14  H32 UNL     1     -31.888  11.171  23.139  1.00  0.00     0.279 HD
ATOM     15  H31 UNL     1     -30.745  10.278  23.697  1.00  0.00     0.279 HD
ENDBRANCH   1   8
BRANCH   5  16
HETATM   16  C8  UNL     1     -34.454   7.233  20.930  1.00  0.00     0.067 C 
BRANCH  16  17
HETATM   17  C9  UNL     1     -35.512   6.430  20.226  1.00  0.00     0.024 A 
HETATM   18  C10 UNL     1     -35.243   5.390  19.237  1.00  0.00     0.010 A 
HETATM   19  C11 UNL     1     -35.742   4.968  20.614  1.00  0.00     0.010 A 
ENDBRANCH  16  17
ENDBRANCH   5  16
TORSDOF 3
ENDMDL
MODEL 3
REMARK VINA RESULT: -6.400945089      2.869      6.058
REMARK  3 active torsions:
REMARK  status: ('A' for Active; 'I' for Inactive)
REMARK    1  A    between atoms: C4_4  and  N1_5 
REMARK    2  A    between atoms: N2_9  and  C8_10 
REMARK    3  A    between atoms: C8_10  and  C9_11 
ROOT
HETATM    1  N1  UNL     1     -34.985   6.550  17.562  1.00  0.00     0.121 N 
HETATM    2  C5  UNL     1     -35.136   5.266  18.155  1.00  0.00     0.280 C 
HETATM    3  C6  UNL     1     -34.425   5.142  19.488  1.00  0.00     0.075 C 
HETATM    4  C7  UNL     1     -34.773   6.281  20.414  1.00  0.00     0.065 C 
HETATM    5  N2  UNL     1     -33.941   7.402  20.374  1.00  0.00    -0.372 N 
HETATM    6  C12 UNL     1     -34.187   8.137  19.152  1.00  0.00     0.157 C 
HETATM    7  C13 UNL     1     -33.813   7.275  17.968  1.00  0.00     0.295 C 
ENDROOT
BRANCH   1   8
HETATM    8  C4  UNL     1     -35.145   6.614  16.149  1.00  0.00     0.419 C 
HETATM    9  C3  UNL     1     -34.273   7.672  15.495  1.00  0.00     0.065 C 
HETATM   10  C2  UNL     1     -34.897   7.950  14.147  1.00  0.00     0.005 C 
HETATM   11  C1  UNL     1     -35.611   6.759  13.576  1.00  0.00     0.028 C 
HETATM   12  C14 UNL     1     -35.129   5.448  14.077  1.00  0.00     0.235 C 
HETATM   13  N3  UNL     1     -34.868   5.375  15.474  1.00  0.00    -0.043 N 
ATOM     14  H32 UNL     1     -33.913   5.064  15.653  1.00  0.00     0.279 HD
ATOM     15  H31 UNL     1     -35.374   4.601  15.902  1.00  0.00     0.279 HD
ENDBRANCH   1   8
BRANCH   5  16
HETATM   16  C8  UNL     1     -32.604   7.360  20.779  1.00  0.00     0.067 C 
BRANCH  16  17
HETATM   17  C9  UNL     1     -31.793   8.621  20.667  1.00  0.00     0.024 A 
HETATM   18  C10 UNL     1     -31.817   9.711  21.638  1.00  0.00     0.010 A 
HETATM   19  C11 UNL     1     -30.577   8.828  21.572  1.00  0.00     0.010 A 
ENDBRANCH  16  17
ENDBRANCH   5  16
TORSDOF 3
ENDMDL
MODEL 4
REMARK VINA RESULT: -6.342687084      1.883      3.691
REMARK  3 active torsions:
REMARK  status: ('A' for Active; 'I' for Inactive)
REMARK    1  A    between atoms: C4_4  and  N1_5 
REMARK    2  A    between atoms: N2_9  and  C8_10 
REMARK    3  A    between atoms: C8_10  and  C9_11 
ROOT
HETATM    1  N1  UNL     1     -33.682   7.463  20.724  1.00  0.00     0.121 N 
HETATM    2  C5  UNL     1     -34.848   7.201  21.494  1.00  0.00     0.280 C 
HETATM    3  C6  UNL     1     -35.919   6.464  20.715  1.00  0.00     0.075 C 
HETATM    4  C7  UNL     1     -35.365   5.244  20.021  1.00  0.00     0.065 C 
HETATM    5  N2  UNL     1     -34.905   5.417  18.714  1.00  0.00    -0.372 N 
HETATM    6  C12 UNL     1     -33.653   6.142  18.739  1.00  0.00     0.157 C 
HETATM    7  C13 UNL     1     -33.890   7.524  19.303  1.00  0.00     0.295 C 
ENDROOT
BRANCH   1   8
HETATM    8  C4  UNL     1     -32.873   8.552  21.156  1.00  0.00     0.419 C 
HETATM    9  C3  UNL     1     -31.405   8.382  20.806  1.00  0.00     0.065 C 
HETATM   10  C2  UNL     1     -30.648   9.313  21.725  1.00  0.00     0.005 C 
HETATM   11  C1  UNL     1     -31.443  10.525  22.115  1.00  0.00     0.028 C 
HETATM   12  C14 UNL     1     -32.511  10.901  21.155  1.00  0.00     0.235 C 
HETATM   13  N3  UNL     1     -33.280   9.826  20.628  1.00  0.00    -0.043 N 
ATOM     14  H32 UNL     1     -33.260   9.825  19.608  1.00  0.00     0.279 HD
ATOM     15  H31 UNL     1     -34.277   9.982  20.772  1.00  0.00     0.279 HD
ENDBRANCH   1   8
BRANCH   5  16
HETATM   16  C8  UNL     1     -35.757   5.745  17.656  1.00  0.00     0.067 C 
BRANCH  16  17
HETATM   17  C9  UNL     1     -35.173   5.801  16.271  1.00  0.00     0.024 A 
HETATM   18  C10 UNL     1     -35.945   6.031  15.054  1.00  0.00     0.010 A 
HETATM   19  C11 UNL     1     -35.035   7.146  15.556  1.00  0.00     0.010 A 
ENDBRANCH  16  17
ENDBRANCH   5  16
TORSDOF 3
ENDMDL
MODEL 5
REMARK VINA RESULT: -6.287351431      2.348      6.601
REMARK  3 active torsions:
REMARK  status: ('A' for Active; 'I' for Inactive)
REMARK    1  A    between atoms: C4_4  and  N1_5 
REMARK    2  A    between atoms: N2_9  and  C8_10 
REMARK    3  A    between atoms: C8_10  and  C9_11 
ROOT
HETATM    1  N1  UNL     1     -32.812   8.881  20.206  1.00  0.00     0.121 N 
HETATM    2  C5  UNL     1     -33.436  10.064  19.720  1.00  0.00     0.280 C 
HETATM    3  C6  UNL     1     -32.947  11.319  20.415  1.00  0.00     0.075 C 
HETATM    4  C7  UNL     1     -31.440  11.394  20.436  1.00  0.00     0.065 C 
HETATM    5  N2  UNL     1     -30.798  10.846  21.548  1.00  0.00    -0.372 N 
HETATM    6  C12 UNL     1     -30.863   9.402  21.476  1.00  0.00     0.157 C 
HETATM    7  C13 UNL     1     -32.308   8.965  21.549  1.00  0.00     0.295 C 
ENDROOT
BRANCH   1   8
HETATM    8  C4  UNL     1     -33.533   7.667  20.019  1.00  0.00     0.419 C 
HETATM    9  C3  UNL     1     -32.650   6.433  20.080  1.00  0.00     0.065 C 
HETATM   10  C2  UNL     1     -33.427   5.333  19.394  1.00  0.00     0.005 C 
HETATM   11  C1  UNL     1     -34.913   5.499  19.521  1.00  0.00     0.028 C 
HETATM   12  C14 UNL     1     -35.350   6.293  20.697  1.00  0.00     0.235 C 
HETATM   13  N3  UNL     1     -34.592   7.466  20.970  1.00  0.00    -0.043 N 
ATOM     14  H32 UNL     1     -34.233   7.457  21.925  1.00  0.00     0.279 HD
ATOM     15  H31 UNL     1     -35.194   8.287  21.030  1.00  0.00     0.279 HD
ENDBRANCH   1   8
BRANCH   5  16
HETATM   16  C8  UNL     1     -30.934  11.380  22.833  1.00  0.00     0.067 C 
BRANCH  16  17
HETATM   17  C9  UNL     1     -29.693  11.541  23.665  1.00  0.00     0.024 A 
HETATM   18  C10 UNL     1     -29.219  12.809  24.213  1.00  0.00     0.010 A 
HETATM   19  C11 UNL     1     -29.811  11.783  25.171  1.00  0.00     0.010 A 
ENDBRANCH  16  17
ENDBRANCH   5  16
TORSDOF 3
ENDMDL
