MODEL 1
REMARK VINA RESULT: -6.912007165      0.000      0.000
REMARK  3 active torsions:
REMARK  status: ('A' for Active; 'I' for Inactive)
REMARK       I    between atoms: C1_2  and  N1_3 
REMARK    1  A    between atoms: C1_2  and  C8_12 
REMARK    2  A    between atoms: N1_3  and  C2_5 
REMARK    3  A    between atoms: C2_5  and  C3_6 
ROOT
HETATM    1  O1  UNL     1     -34.065   9.389  17.895  1.00  0.00    -0.273 OA
HETATM    2  C1  UNL     1     -33.671   8.619  18.807  1.00  0.00     0.224 C 
HETATM    3  N1  UNL     1     -32.917   9.116  19.887  1.00  0.00    -0.360 N 
ATOM      4  H1  UNL     1     -32.600   8.487  20.624  1.00  0.00     0.162 HD
ENDROOT
BRANCH   2   5
HETATM    5  C8  UNL     1     -34.029   7.182  18.699  1.00  0.00     0.115 A 
HETATM    6  C9  UNL     1     -33.063   6.260  19.386  1.00  0.00     0.056 A 
HETATM    7  C10 UNL     1     -34.431   6.426  19.930  1.00  0.00     0.074 A 
HETATM    8  C11 UNL     1     -35.400   5.316  19.712  1.00  0.00     0.039 C 
HETATM    9  O3  UNL     1     -34.678   7.195  21.048  1.00  0.00    -0.379 OA
HETATM   10  C12 UNL     1     -36.188   4.946  20.948  1.00  0.00     0.005 C 
HETATM   11  C13 UNL     1     -36.678   6.172  21.688  1.00  0.00     0.026 C 
HETATM   12  C14 UNL     1     -36.049   7.434  21.117  1.00  0.00     0.168 C 
ENDBRANCH   2   5
BRANCH   3  13
HETATM   13  C2  UNL     1     -32.597  10.516  19.945  1.00  0.00     0.127 C 
BRANCH  13  14
HETATM   14  C3  UNL     1     -31.902  10.882  21.251  1.00  0.00     0.007 C 
HETATM   15  C4  UNL     1     -30.968  12.007  20.953  1.00  0.00     0.032 C 
HETATM   16  C5  UNL     1     -29.887  12.194  21.977  1.00  0.00     0.168 C 
HETATM   17  O2  UNL     1     -29.464  11.034  22.566  1.00  0.00    -0.391 OA
HETATM   18  C6  UNL     1     -29.758   9.884  21.858  1.00  0.00     0.168 C 
HETATM   19  C7  UNL     1     -31.272   9.705  21.906  1.00  0.00     0.032 C 
ENDBRANCH  13  14
ENDBRANCH   3  13
TORSDOF 3
ENDMDL
MODEL 2
REMARK VINA RESULT: -6.887294179      1.878      2.645
REMARK  3 active torsions:
REMARK  status: ('A' for Active; 'I' for Inactive)
REMARK       I    between atoms: C1_2  and  N1_3 
REMARK    1  A    between atoms: C1_2  and  C8_12 
REMARK    2  A    between atoms: N1_3  and  C2_5 
REMARK    3  A    between atoms: C2_5  and  C3_6 
ROOT
HETATM    1  O1  UNL     1     -34.898   8.919  18.962  1.00  0.00    -0.273 OA
HETATM    2  C1  UNL     1     -34.954   8.156  19.959  1.00  0.00     0.224 C 
HETATM    3  N1  UNL     1     -34.122   8.372  21.073  1.00  0.00    -0.360 N 
ATOM      4  H1  UNL     1     -34.172   7.749  21.879  1.00  0.00     0.162 HD
ENDROOT
BRANCH   2   5
HETATM    5  C8  UNL     1     -35.924   7.032  19.913  1.00  0.00     0.115 A 
HETATM    6  C9  UNL     1     -35.570   5.885  20.816  1.00  0.00     0.056 A 
HETATM    7  C10 UNL     1     -36.754   6.722  21.124  1.00  0.00     0.074 A 
HETATM    8  C11 UNL     1     -38.098   6.143  20.848  1.00  0.00     0.039 C 
HETATM    9  O3  UNL     1     -36.729   7.671  22.123  1.00  0.00    -0.379 OA
HETATM   10  C12 UNL     1     -39.089   6.347  21.971  1.00  0.00     0.005 C 
HETATM   11  C13 UNL     1     -39.028   7.755  22.523  1.00  0.00     0.026 C 
HETATM   12  C14 UNL     1     -37.832   8.506  21.956  1.00  0.00     0.168 C 
ENDBRANCH   2   5
BRANCH   3  13
HETATM   13  C2  UNL     1     -33.200   9.475  21.068  1.00  0.00     0.127 C 
BRANCH  13  14
HETATM   14  C3  UNL     1     -31.773   9.017  20.791  1.00  0.00     0.007 C 
HETATM   15  C4  UNL     1     -31.565   7.744  21.542  1.00  0.00     0.032 C 
HETATM   16  C5  UNL     1     -30.123   7.393  21.763  1.00  0.00     0.168 C 
HETATM   17  O2  UNL     1     -29.298   8.473  21.921  1.00  0.00    -0.391 OA
HETATM   18  C6  UNL     1     -29.940   9.644  22.277  1.00  0.00     0.168 C 
HETATM   19  C7  UNL     1     -30.772  10.079  21.075  1.00  0.00     0.032 C 
ENDBRANCH  13  14
ENDBRANCH   3  13
TORSDOF 3
ENDMDL
MODEL 3
REMARK VINA RESULT: -6.812942351      2.385      6.104
REMARK  3 active torsions:
REMARK  status: ('A' for Active; 'I' for Inactive)
REMARK       I    between atoms: C1_2  and  N1_3 
REMARK    1  A    between atoms: C1_2  and  C8_12 
REMARK    2  A    between atoms: N1_3  and  C2_5 
REMARK    3  A    between atoms: C2_5  and  C3_6 
ROOT
HETATM    1  O1  UNL     1     -35.605   6.896  19.016  1.00  0.00    -0.273 OA
HETATM    2  C1  UNL     1     -35.195   7.439  20.072  1.00  0.00     0.224 C 
HETATM    3  N1  UNL     1     -35.883   8.534  20.628  1.00  0.00    -0.360 N 
ATOM      4  H1  UNL     1     -35.545   8.970  21.485  1.00  0.00     0.162 HD
ENDROOT
BRANCH   2   5
HETATM    5  C8  UNL     1     -33.968   6.886  20.700  1.00  0.00     0.115 A 
HETATM    6  C9  UNL     1     -32.992   6.300  19.720  1.00  0.00     0.056 A 
HETATM    7  C10 UNL     1     -32.645   7.545  20.446  1.00  0.00     0.074 A 
HETATM    8  C11 UNL     1     -31.656   7.445  21.554  1.00  0.00     0.039 C 
HETATM    9  O3  UNL     1     -32.702   8.780  19.834  1.00  0.00    -0.379 OA
HETATM   10  C12 UNL     1     -30.598   8.525  21.525  1.00  0.00     0.005 C 
HETATM   11  C13 UNL     1     -31.195   9.886  21.235  1.00  0.00     0.026 C 
HETATM   12  C14 UNL     1     -32.655   9.758  20.825  1.00  0.00     0.168 C 
ENDBRANCH   2   5
BRANCH   3  13
HETATM   13  C2  UNL     1     -37.066   9.031  19.981  1.00  0.00     0.127 C 
BRANCH  13  14
HETATM   14  C3  UNL     1     -38.329   8.657  20.749  1.00  0.00     0.007 C 
HETATM   15  C4  UNL     1     -38.051   8.892  22.196  1.00  0.00     0.032 C 
HETATM   16  C5  UNL     1     -38.980   8.166  23.124  1.00  0.00     0.168 C 
HETATM   17  O2  UNL     1     -39.414   6.957  22.654  1.00  0.00    -0.391 OA
HETATM   18  C6  UNL     1     -38.631   6.410  21.655  1.00  0.00     0.168 C 
HETATM   19  C7  UNL     1     -38.807   7.288  20.420  1.00  0.00     0.032 C 
ENDBRANCH  13  14
ENDBRANCH   3  13
TORSDOF 3
ENDMDL
MODEL 4
REMARK VINA RESULT: -6.796143646      2.015      3.323
REMARK  3 active torsions:
REMARK  status: ('A' for Active; 'I' for Inactive)
REMARK       I    between atoms: C1_2  and  N1_3 
REMARK    1  A    between atoms: C1_2  and  C8_12 
REMARK    2  A    between atoms: N1_3  and  C2_5 
REMARK    3  A    between atoms: C2_5  and  C3_6 
ROOT
HETATM    1  O1  UNL     1     -32.235   5.268  19.670  1.00  0.00    -0.273 OA
HETATM    2  C1  UNL     1     -33.297   5.936  19.735  1.00  0.00     0.224 C 
HETATM    3  N1  UNL     1     -33.387   7.057  20.582  1.00  0.00    -0.360 N 
ATOM      4  H1  UNL     1     -34.252   7.595  20.631  1.00  0.00     0.162 HD
ENDROOT
BRANCH   2   5
HETATM    5  C8  UNL     1     -34.439   5.500  18.893  1.00  0.00     0.115 A 
HETATM    6  C9  UNL     1     -35.785   5.791  19.492  1.00  0.00     0.056 A 
HETATM    7  C10 UNL     1     -35.345   6.529  18.284  1.00  0.00     0.074 A 
HETATM    8  C11 UNL     1     -35.961   6.151  16.982  1.00  0.00     0.039 C 
HETATM    9  O3  UNL     1     -34.899   7.832  18.354  1.00  0.00    -0.379 OA
HETATM   10  C12 UNL     1     -36.394   7.335  16.148  1.00  0.00     0.005 C 
HETATM   11  C13 UNL     1     -35.347   8.428  16.141  1.00  0.00     0.026 C 
HETATM   12  C14 UNL     1     -34.253   8.135  17.157  1.00  0.00     0.168 C 
ENDBRANCH   2   5
BRANCH   3  13
HETATM   13  C2  UNL     1     -32.252   7.438  21.377  1.00  0.00     0.127 C 
BRANCH  13  14
HETATM   14  C3  UNL     1     -31.531   8.646  20.790  1.00  0.00     0.007 C 
HETATM   15  C4  UNL     1     -30.528   9.095  21.799  1.00  0.00     0.032 C 
HETATM   16  C5  UNL     1     -30.055  10.506  21.608  1.00  0.00     0.168 C 
HETATM   17  O2  UNL     1     -31.002  11.352  21.099  1.00  0.00    -0.391 OA
HETATM   18  C6  UNL     1     -32.306  10.917  21.244  1.00  0.00     0.168 C 
HETATM   19  C7  UNL     1     -32.475   9.703  20.336  1.00  0.00     0.032 C 
ENDBRANCH  13  14
ENDBRANCH   3  13
TORSDOF 3
ENDMDL
MODEL 5
REMARK VINA RESULT: -6.785244902      1.774      2.523
REMARK  3 active torsions:
REMARK  status: ('A' for Active; 'I' for Inactive)
REMARK       I    between atoms: C1_2  and  N1_3 
REMARK    1  A    between atoms: C1_2  and  C8_12 
REMARK    2  A    between atoms: N1_3  and  C2_5 
REMARK    3  A    between atoms: C2_5  and  C3_6 
ROOT
HETATM    1  O1  UNL     1     -34.616   7.141  18.215  1.00  0.00    -0.273 OA
HETATM    2  C1  UNL     1     -34.772   6.749  19.398  1.00  0.00     0.224 C 
HETATM    3  N1  UNL     1     -33.845   7.099  20.397  1.00  0.00    -0.360 N 
ATOM      4  H1  UNL     1     -33.977   6.777  21.356  1.00  0.00     0.162 HD
ENDROOT
BRANCH   2   5
HETATM    5  C8  UNL     1     -35.962   5.911  19.695  1.00  0.00     0.115 A 
HETATM    6  C9  UNL     1     -35.746   4.914  20.797  1.00  0.00     0.056 A 
HETATM    7  C10 UNL     1     -36.661   6.060  21.014  1.00  0.00     0.074 A 
HETATM    8  C11 UNL     1     -38.125   5.787  20.997  1.00  0.00     0.039 C 
HETATM    9  O3  UNL     1     -36.288   7.153  21.766  1.00  0.00    -0.379 OA
HETATM   10  C12 UNL     1     -38.879   6.446  22.129  1.00  0.00     0.005 C 
HETATM   11  C13 UNL     1     -38.432   7.877  22.342  1.00  0.00     0.026 C 
HETATM   12  C14 UNL     1     -37.192   8.183  21.515  1.00  0.00     0.168 C 
ENDBRANCH   2   5
BRANCH   3  13
HETATM   13  C2  UNL     1     -32.709   7.912  20.058  1.00  0.00     0.127 C 
BRANCH  13  14
HETATM   14  C3  UNL     1     -31.893   8.284  21.291  1.00  0.00     0.007 C 
HETATM   15  C4  UNL     1     -31.141   9.531  20.962  1.00  0.00     0.032 C 
HETATM   16  C5  UNL     1     -29.963   9.788  21.854  1.00  0.00     0.168 C 
HETATM   17  O2  UNL     1     -29.335   8.657  22.298  1.00  0.00    -0.391 OA
HETATM   18  C6  UNL     1     -29.587   7.523  21.549  1.00  0.00     0.168 C 
HETATM   19  C7  UNL     1     -31.051   7.157  21.773  1.00  0.00     0.032 C 
ENDBRANCH  13  14
ENDBRANCH   3  13
TORSDOF 3
ENDMDL
