MODEL 1
REMARK VINA RESULT: -5.017509239      0.000      0.000
REMARK  2 active torsions:
REMARK  status: ('A' for Active; 'I' for Inactive)
REMARK    1  A    between atoms: C2_3  and  N2_4 
REMARK    2  A    between atoms: N2_4  and  C3_7 
ROOT
HETATM    1  N1  UNL     1     -34.318   5.322  18.353  1.00  0.00    -0.196 NA
HETATM    2  C1  UNL     1     -34.706   5.717  17.314  1.00  0.00     0.086 C 
HETATM    3  C2  UNL     1     -35.136   6.196  16.017  1.00  0.00     0.356 C 
ENDROOT
BRANCH   3   4
HETATM    4  N2  UNL     1     -34.472   5.409  14.977  1.00  0.00    -0.057 N 
ATOM      5  H22 UNL     1     -33.599   4.973  15.277  1.00  0.00     0.278 HD
ATOM      6  H21 UNL     1     -34.955   4.542  14.739  1.00  0.00     0.278 HD
BRANCH   4   7
HETATM    7  C3  UNL     1     -34.324   6.332  13.864  1.00  0.00     0.218 C 
HETATM    8  C4  UNL     1     -35.026   7.653  14.079  1.00  0.00     0.207 C 
HETATM    9  O1  UNL     1     -35.412   8.108  12.828  1.00  0.00    -0.331 OA
HETATM   10  C5  UNL     1     -35.271   7.113  11.904  1.00  0.00     0.284 C 
HETATM   11  C6  UNL     1     -35.163   5.816  12.670  1.00  0.00     0.137 C 
HETATM   12  O2  UNL     1     -34.107   7.316  11.193  1.00  0.00    -0.331 OA
HETATM   13  O3  UNL     1     -36.310   6.981  11.014  1.00  0.00    -0.331 OA
HETATM   14  C7  UNL     1     -34.518   7.778   9.944  1.00  0.00     0.200 C 
HETATM   15  C8  UNL     1     -35.748   6.942   9.720  1.00  0.00     0.200 C 
ENDBRANCH   4   7
ENDBRANCH   3   4
TORSDOF 2
ENDMDL
MODEL 2
REMARK VINA RESULT: -5.005718831      4.139      6.357
REMARK  2 active torsions:
REMARK  status: ('A' for Active; 'I' for Inactive)
REMARK    1  A    between atoms: C2_3  and  N2_4 
REMARK    2  A    between atoms: N2_4  and  C3_7 
ROOT
HETATM    1  N1  UNL     1     -33.117   7.607   5.475  1.00  0.00    -0.196 NA
HETATM    2  C1  UNL     1     -33.273   7.977   6.581  1.00  0.00     0.086 C 
HETATM    3  C2  UNL     1     -33.497   8.471   7.924  1.00  0.00     0.356 C 
ENDROOT
BRANCH   3   4
HETATM    4  N2  UNL     1     -34.903   8.849   8.062  1.00  0.00    -0.057 N 
ATOM      5  H22 UNL     1     -35.050   9.829   8.306  1.00  0.00     0.278 HD
ATOM      6  H21 UNL     1     -35.416   8.874   7.181  1.00  0.00     0.278 HD
BRANCH   4   7
HETATM    7  C3  UNL     1     -35.437   7.909   9.034  1.00  0.00     0.218 C 
HETATM    8  C4  UNL     1     -36.534   8.490   9.896  1.00  0.00     0.207 C 
HETATM    9  O1  UNL     1     -36.459   7.849  11.123  1.00  0.00    -0.331 OA
HETATM   10  C5  UNL     1     -35.296   7.140  11.211  1.00  0.00     0.284 C 
HETATM   11  C6  UNL     1     -34.377   7.673  10.136  1.00  0.00     0.137 C 
HETATM   12  O2  UNL     1     -35.556   5.809  10.963  1.00  0.00    -0.331 OA
HETATM   13  O3  UNL     1     -34.631   7.241  12.409  1.00  0.00    -0.331 OA
HETATM   14  C7  UNL     1     -35.483   5.186  12.208  1.00  0.00     0.200 C 
HETATM   15  C8  UNL     1     -34.333   5.929  12.833  1.00  0.00     0.200 C 
ENDBRANCH   4   7
ENDBRANCH   3   4
TORSDOF 2
ENDMDL
MODEL 3
REMARK VINA RESULT: -4.995543893      3.535      5.782
REMARK  2 active torsions:
REMARK  status: ('A' for Active; 'I' for Inactive)
REMARK    1  A    between atoms: C2_3  and  N2_4 
REMARK    2  A    between atoms: N2_4  and  C3_7 
ROOT
HETATM    1  N1  UNL     1     -32.387   8.656   7.922  1.00  0.00    -0.196 NA
HETATM    2  C1  UNL     1     -33.542   8.434   7.893  1.00  0.00     0.086 C 
HETATM    3  C2  UNL     1     -34.961   8.145   7.909  1.00  0.00     0.356 C 
ENDROOT
BRANCH   3   4
HETATM    4  N2  UNL     1     -35.506   8.512   9.216  1.00  0.00    -0.057 N 
ATOM      5  H22 UNL     1     -35.251   9.451   9.525  1.00  0.00     0.278 HD
ATOM      6  H21 UNL     1     -36.515   8.662   9.220  1.00  0.00     0.278 HD
BRANCH   4   7
HETATM    7  C3  UNL     1     -35.059   7.452  10.105  1.00  0.00     0.218 C 
HETATM    8  C4  UNL     1     -35.979   6.252  10.124  1.00  0.00     0.207 C 
HETATM    9  O1  UNL     1     -35.886   5.699  11.391  1.00  0.00    -0.331 OA
HETATM   10  C5  UNL     1     -35.232   6.554  12.230  1.00  0.00     0.284 C 
HETATM   11  C6  UNL     1     -35.250   7.913  11.570  1.00  0.00     0.137 C 
HETATM   12  O2  UNL     1     -33.925   6.139  12.371  1.00  0.00    -0.331 OA
HETATM   13  O3  UNL     1     -35.784   6.695  13.480  1.00  0.00    -0.331 OA
HETATM   14  C7  UNL     1     -33.856   5.580  13.646  1.00  0.00     0.200 C 
HETATM   15  C8  UNL     1     -34.745   6.516  14.417  1.00  0.00     0.200 C 
ENDBRANCH   4   7
ENDBRANCH   3   4
TORSDOF 2
ENDMDL
MODEL 4
REMARK VINA RESULT: -4.942966964      3.139      4.049
REMARK  2 active torsions:
REMARK  status: ('A' for Active; 'I' for Inactive)
REMARK    1  A    between atoms: C2_3  and  N2_4 
REMARK    2  A    between atoms: N2_4  and  C3_7 
ROOT
HETATM    1  N1  UNL     1     -34.089   6.358  15.357  1.00  0.00    -0.196 NA
HETATM    2  C1  UNL     1     -34.268   6.101  14.223  1.00  0.00     0.086 C 
HETATM    3  C2  UNL     1     -34.491   5.733  12.840  1.00  0.00     0.356 C 
ENDROOT
BRANCH   3   4
HETATM    4  N2  UNL     1     -35.442   4.622  12.791  1.00  0.00    -0.057 N 
ATOM      5  H22 UNL     1     -35.062   3.764  12.391  1.00  0.00     0.278 HD
ATOM      6  H21 UNL     1     -35.671   4.230  13.704  1.00  0.00     0.278 HD
BRANCH   4   7
HETATM    7  C3  UNL     1     -36.586   5.157  12.071  1.00  0.00     0.218 C 
HETATM    8  C4  UNL     1     -37.744   5.529  12.968  1.00  0.00     0.207 C 
HETATM    9  O1  UNL     1     -38.900   5.341  12.225  1.00  0.00    -0.331 OA
HETATM   10  C5  UNL     1     -38.615   4.653  11.081  1.00  0.00     0.284 C 
HETATM   11  C6  UNL     1     -37.262   4.010  11.282  1.00  0.00     0.137 C 
HETATM   12  O2  UNL     1     -38.542   5.538  10.027  1.00  0.00    -0.331 OA
HETATM   13  O3  UNL     1     -39.501   3.655  10.754  1.00  0.00    -0.331 OA
HETATM   14  C7  UNL     1     -39.714   5.337   9.300  1.00  0.00     0.200 C 
HETATM   15  C8  UNL     1     -39.862   3.843   9.403  1.00  0.00     0.200 C 
ENDBRANCH   4   7
ENDBRANCH   3   4
TORSDOF 2
ENDMDL
MODEL 5
REMARK VINA RESULT: -4.872503931      3.479      5.638
REMARK  2 active torsions:
REMARK  status: ('A' for Active; 'I' for Inactive)
REMARK    1  A    between atoms: C2_3  and  N2_4 
REMARK    2  A    between atoms: N2_4  and  C3_7 
ROOT
HETATM    1  N1  UNL     1     -39.262   4.309   7.828  1.00  0.00    -0.196 NA
HETATM    2  C1  UNL     1     -38.421   4.579   8.606  1.00  0.00     0.086 C 
HETATM    3  C2  UNL     1     -37.353   4.922   9.521  1.00  0.00     0.356 C 
ENDROOT
BRANCH   3   4
HETATM    4  N2  UNL     1     -36.602   6.052   8.973  1.00  0.00    -0.057 N 
ATOM      5  H22 UNL     1     -35.855   5.784   8.331  1.00  0.00     0.278 HD
ATOM      6  H21 UNL     1     -37.127   6.617   8.306  1.00  0.00     0.278 HD
BRANCH   4   7
HETATM    7  C3  UNL     1     -36.146   6.784  10.143  1.00  0.00     0.218 C 
HETATM    8  C4  UNL     1     -34.877   7.571   9.906  1.00  0.00     0.207 C 
HETATM    9  O1  UNL     1     -34.202   7.614  11.115  1.00  0.00    -0.331 OA
HETATM   10  C5  UNL     1     -34.762   6.735  11.996  1.00  0.00     0.284 C 
HETATM   11  C6  UNL     1     -35.601   5.776  11.184  1.00  0.00     0.137 C 
HETATM   12  O2  UNL     1     -35.580   7.424  12.867  1.00  0.00    -0.331 OA
HETATM   13  O3  UNL     1     -33.874   5.985  12.730  1.00  0.00    -0.331 OA
HETATM   14  C7  UNL     1     -34.880   7.461  14.071  1.00  0.00     0.200 C 
HETATM   15  C8  UNL     1     -34.257   6.092  14.084  1.00  0.00     0.200 C 
ENDBRANCH   4   7
ENDBRANCH   3   4
TORSDOF 2
ENDMDL
