MODEL 1
REMARK VINA RESULT: -5.097793356      0.000      0.000
REMARK  3 active torsions:
REMARK  status: ('A' for Active; 'I' for Inactive)
REMARK    1  A    between atoms: O1_2  and  C2_3 
REMARK    2  A    between atoms: C2_3  and  C3_5 
REMARK    3  A    between atoms: C3_5  and  N3_11 
ROOT
HETATM    1  C3  UNL     1     -33.895   7.322  18.896  1.00  0.00     0.138 C 
HETATM    2  C4  UNL     1     -34.331   7.556  17.664  1.00  0.00     0.157 C 
HETATM    3  C5  UNL     1     -34.652   8.939  17.303  1.00  0.00     0.113 C 
HETATM    4  N1  UNL     1     -34.907  10.023  16.998  1.00  0.00    -0.191 NA
HETATM    5  C6  UNL     1     -34.516   6.585  16.655  1.00  0.00     0.113 C 
HETATM    6  N2  UNL     1     -34.680   5.801  15.800  1.00  0.00    -0.191 NA
ENDROOT
BRANCH   1   7
HETATM    7  C2  UNL     1     -33.572   5.946  19.264  1.00  0.00     0.311 C 
HETATM    8  O2  UNL     1     -32.361   5.551  19.313  1.00  0.00    -0.258 OA
BRANCH   7   9
HETATM    9  O1  UNL     1     -34.512   5.007  19.576  1.00  0.00    -0.321 OA
HETATM   10  C1  UNL     1     -35.502   5.158  20.583  1.00  0.00     0.213 C 
ENDBRANCH   7   9
ENDBRANCH   1   7
BRANCH   1  11
HETATM   11  N3  UNL     1     -33.747   8.382  19.832  1.00  0.00    -0.374 N 
HETATM   12  C7  UNL     1     -32.656   9.040  20.491  1.00  0.00     0.125 C 
HETATM   13  C8  UNL     1     -33.516  10.287  20.516  1.00  0.00     0.040 C 
HETATM   14  C9  UNL     1     -34.633   9.264  20.534  1.00  0.00     0.125 C 
ENDBRANCH   1  11
TORSDOF 3
ENDMDL
MODEL 2
REMARK VINA RESULT: -4.961970508      6.576      8.563
REMARK  3 active torsions:
REMARK  status: ('A' for Active; 'I' for Inactive)
REMARK    1  A    between atoms: O1_2  and  C2_3 
REMARK    2  A    between atoms: C2_3  and  C3_5 
REMARK    3  A    between atoms: C3_5  and  N3_11 
ROOT
HETATM    1  C3  UNL     1     -35.557   6.312  11.471  1.00  0.00     0.138 C 
HETATM    2  C4  UNL     1     -35.274   6.840  10.288  1.00  0.00     0.157 C 
HETATM    3  C5  UNL     1     -36.163   6.527   9.166  1.00  0.00     0.113 C 
HETATM    4  N1  UNL     1     -36.855   6.295   8.272  1.00  0.00    -0.191 NA
HETATM    5  C6  UNL     1     -34.180   7.689  10.002  1.00  0.00     0.113 C 
HETATM    6  N2  UNL     1     -33.283   8.393   9.739  1.00  0.00    -0.191 NA
ENDROOT
BRANCH   1   7
HETATM    7  C2  UNL     1     -34.676   6.619  12.594  1.00  0.00     0.311 C 
HETATM    8  O2  UNL     1     -33.768   5.799  12.954  1.00  0.00    -0.258 OA
BRANCH   7   9
HETATM    9  O1  UNL     1     -34.752   7.772  13.321  1.00  0.00    -0.321 OA
HETATM   10  C1  UNL     1     -35.947   8.505  13.550  1.00  0.00     0.213 C 
ENDBRANCH   7   9
ENDBRANCH   1   7
BRANCH   1  11
HETATM   11  N3  UNL     1     -36.689   5.468  11.642  1.00  0.00    -0.374 N 
HETATM   12  C7  UNL     1     -38.068   5.640  11.999  1.00  0.00     0.125 C 
HETATM   13  C8  UNL     1     -38.368   4.425  11.144  1.00  0.00     0.040 C 
HETATM   14  C9  UNL     1     -36.949   4.061  11.531  1.00  0.00     0.125 C 
ENDBRANCH   1  11
TORSDOF 3
ENDMDL
MODEL 3
REMARK VINA RESULT: -4.938225691      8.446     10.849
REMARK  3 active torsions:
REMARK  status: ('A' for Active; 'I' for Inactive)
REMARK    1  A    between atoms: O1_2  and  C2_3 
REMARK    2  A    between atoms: C2_3  and  C3_5 
REMARK    3  A    between atoms: C3_5  and  N3_11 
ROOT
HETATM    1  C3  UNL     1     -36.483   6.562   9.268  1.00  0.00     0.138 C 
HETATM    2  C4  UNL     1     -36.126   6.010  10.421  1.00  0.00     0.157 C 
HETATM    3  C5  UNL     1     -36.867   4.830  10.874  1.00  0.00     0.113 C 
HETATM    4  N1  UNL     1     -37.437   3.897  11.245  1.00  0.00    -0.191 NA
HETATM    5  C6  UNL     1     -35.085   6.458  11.265  1.00  0.00     0.113 C 
HETATM    6  N2  UNL     1     -34.229   6.809  11.983  1.00  0.00    -0.191 NA
ENDROOT
BRANCH   1   7
HETATM    7  C2  UNL     1     -35.749   7.738   8.809  1.00  0.00     0.311 C 
HETATM    8  O2  UNL     1     -36.152   8.912   9.100  1.00  0.00    -0.258 OA
BRANCH   7   9
HETATM    9  O1  UNL     1     -34.611   7.674   8.059  1.00  0.00    -0.321 OA
HETATM   10  C1  UNL     1     -33.417   8.391   8.338  1.00  0.00     0.213 C 
ENDBRANCH   7   9
ENDBRANCH   1   7
BRANCH   1  11
HETATM   11  N3  UNL     1     -37.551   6.022   8.499  1.00  0.00    -0.374 N 
HETATM   12  C7  UNL     1     -37.684   5.085   7.422  1.00  0.00     0.125 C 
HETATM   13  C8  UNL     1     -39.056   4.752   7.976  1.00  0.00     0.040 C 
HETATM   14  C9  UNL     1     -38.976   6.183   8.465  1.00  0.00     0.125 C 
ENDBRANCH   1  11
TORSDOF 3
ENDMDL
MODEL 4
REMARK VINA RESULT: -4.915394882      1.758      2.388
REMARK  3 active torsions:
REMARK  status: ('A' for Active; 'I' for Inactive)
REMARK    1  A    between atoms: O1_2  and  C2_3 
REMARK    2  A    between atoms: C2_3  and  C3_5 
REMARK    3  A    between atoms: C3_5  and  N3_11 
ROOT
HETATM    1  C3  UNL     1     -34.785   7.289  18.150  1.00  0.00     0.138 C 
HETATM    2  C4  UNL     1     -34.564   7.887  16.986  1.00  0.00     0.157 C 
HETATM    3  C5  UNL     1     -35.378   9.058  16.652  1.00  0.00     0.113 C 
HETATM    4  N1  UNL     1     -36.008   9.984  16.373  1.00  0.00    -0.191 NA
HETATM    5  C6  UNL     1     -33.605   7.496  16.025  1.00  0.00     0.113 C 
HETATM    6  N2  UNL     1     -32.818   7.193  15.212  1.00  0.00    -0.191 NA
ENDROOT
BRANCH   1   7
HETATM    7  C2  UNL     1     -33.976   6.121  18.491  1.00  0.00     0.311 C 
HETATM    8  O2  UNL     1     -34.346   4.950  18.149  1.00  0.00    -0.258 OA
BRANCH   7   9
HETATM    9  O1  UNL     1     -32.800   6.192  19.178  1.00  0.00    -0.321 OA
HETATM   10  C1  UNL     1     -32.523   7.124  20.213  1.00  0.00     0.213 C 
ENDBRANCH   7   9
ENDBRANCH   1   7
BRANCH   1  11
HETATM   11  N3  UNL     1     -35.781   7.772  19.042  1.00  0.00    -0.374 N 
HETATM   12  C7  UNL     1     -35.854   8.756  20.084  1.00  0.00     0.125 C 
HETATM   13  C8  UNL     1     -37.315   8.928  19.723  1.00  0.00     0.040 C 
HETATM   14  C9  UNL     1     -37.164   7.484  19.292  1.00  0.00     0.125 C 
ENDBRANCH   1  11
TORSDOF 3
ENDMDL
MODEL 5
REMARK VINA RESULT: -4.860405252      3.878      6.212
REMARK  3 active torsions:
REMARK  status: ('A' for Active; 'I' for Inactive)
REMARK    1  A    between atoms: O1_2  and  C2_3 
REMARK    2  A    between atoms: C2_3  and  C3_5 
REMARK    3  A    between atoms: C3_5  and  N3_11 
ROOT
HETATM    1  C3  UNL     1     -34.935   7.185  13.893  1.00  0.00     0.138 C 
HETATM    2  C4  UNL     1     -35.587   8.318  14.123  1.00  0.00     0.157 C 
HETATM    3  C5  UNL     1     -36.441   8.845  13.056  1.00  0.00     0.113 C 
HETATM    4  N1  UNL     1     -37.123   9.274  12.228  1.00  0.00    -0.191 NA
HETATM    5  C6  UNL     1     -35.535   9.074  15.315  1.00  0.00     0.113 C 
HETATM    6  N2  UNL     1     -35.509   9.720  16.292  1.00  0.00    -0.191 NA
ENDROOT
BRANCH   1   7
HETATM    7  C2  UNL     1     -34.082   6.652  14.952  1.00  0.00     0.311 C 
HETATM    8  O2  UNL     1     -32.876   7.047  15.078  1.00  0.00    -0.258 OA
BRANCH   7   9
HETATM    9  O1  UNL     1     -34.496   5.722  15.860  1.00  0.00    -0.321 OA
HETATM   10  C1  UNL     1     -34.938   6.018  17.177  1.00  0.00     0.213 C 
ENDBRANCH   7   9
ENDBRANCH   1   7
BRANCH   1  11
HETATM   11  N3  UNL     1     -35.064   6.507  12.650  1.00  0.00    -0.374 N 
HETATM   12  C7  UNL     1     -35.653   5.281  12.191  1.00  0.00     0.125 C 
HETATM   13  C8  UNL     1     -35.877   5.970  10.860  1.00  0.00     0.040 C 
HETATM   14  C9  UNL     1     -34.658   6.755  11.297  1.00  0.00     0.125 C 
ENDBRANCH   1  11
TORSDOF 3
ENDMDL
