MODEL 1
REMARK VINA RESULT: -5.517866692      0.000      0.000
REMARK  2 active torsions:
REMARK  status: ('A' for Active; 'I' for Inactive)
REMARK       I    between atoms: C1_2  and  N1_3 
REMARK    1  A    between atoms: C1_2  and  C5_11 
REMARK    2  A    between atoms: N1_3  and  N2_5 
ROOT
HETATM    1  O1  UNL     1     -32.617   7.189  15.225  1.00  0.00    -0.264 OA
HETATM    2  C1  UNL     1     -33.774   6.720  15.103  1.00  0.00     0.289 C 
HETATM    3  N1  UNL     1     -34.470   6.397  16.296  1.00  0.00    -0.281 N 
ATOM      4  H1  UNL     1     -35.411   6.014  16.213  1.00  0.00     0.184 HD
ENDROOT
BRANCH   3   5
HETATM    5  N2  UNL     1     -33.955   6.566  17.551  1.00  0.00    -0.200 NA
HETATM    6  C2  UNL     1     -34.118   7.874  18.112  1.00  0.00     0.145 C 
HETATM    7  C3  UNL     1     -35.351   7.980  18.987  1.00  0.00     0.226 C 
HETATM    8  O2  UNL     1     -36.010   6.767  19.034  1.00  0.00    -0.239 OA
HETATM    9  O3  UNL     1     -35.174   5.849  19.435  1.00  0.00    -0.225 OA
HETATM   10  C4  UNL     1     -34.247   5.497  18.465  1.00  0.00     0.323 C 
ENDBRANCH   3   5
BRANCH   2  11
HETATM   11  C5  UNL     1     -34.369   6.519  13.780  1.00  0.00     0.143 A 
HETATM   12  C6  UNL     1     -34.714   5.337  13.214  1.00  0.00     0.045 A 
HETATM   13  C7  UNL     1     -35.234   5.629  11.971  1.00  0.00     0.027 A 
HETATM   14  C8  UNL     1     -35.182   7.002  11.831  1.00  0.00     0.143 A 
HETATM   15  O4  UNL     1     -34.659   7.459  12.943  1.00  0.00    -0.317 OA
ENDBRANCH   2  11
TORSDOF 2
ENDMDL
MODEL 2
REMARK VINA RESULT: -5.497151059      1.495      1.825
REMARK  2 active torsions:
REMARK  status: ('A' for Active; 'I' for Inactive)
REMARK       I    between atoms: C1_2  and  N1_3 
REMARK    1  A    between atoms: C1_2  and  C5_11 
REMARK    2  A    between atoms: N1_3  and  N2_5 
ROOT
HETATM    1  O1  UNL     1     -33.226   5.498  13.751  1.00  0.00    -0.264 OA
HETATM    2  C1  UNL     1     -34.465   5.697  13.771  1.00  0.00     0.289 C 
HETATM    3  N1  UNL     1     -35.033   6.114  15.002  1.00  0.00    -0.281 N 
ATOM      4  H1  UNL     1     -36.038   6.279  15.033  1.00  0.00     0.184 HD
ENDROOT
BRANCH   3   5
HETATM    5  N2  UNL     1     -34.315   6.307  16.149  1.00  0.00    -0.200 NA
HETATM    6  C2  UNL     1     -33.756   7.616  16.313  1.00  0.00     0.145 C 
HETATM    7  C3  UNL     1     -34.647   8.526  17.135  1.00  0.00     0.226 C 
HETATM    8  O2  UNL     1     -35.782   7.851  17.537  1.00  0.00    -0.239 OA
HETATM    9  O3  UNL     1     -35.426   6.770  18.174  1.00  0.00    -0.225 OA
HETATM   10  C4  UNL     1     -34.933   5.781  17.335  1.00  0.00     0.323 C 
ENDBRANCH   3   5
BRANCH   2  11
HETATM   11  C5  UNL     1     -35.277   5.503  12.568  1.00  0.00     0.143 A 
HETATM   12  C6  UNL     1     -36.211   4.542  12.364  1.00  0.00     0.045 A 
HETATM   13  C7  UNL     1     -36.718   4.745  11.098  1.00  0.00     0.027 A 
HETATM   14  C8  UNL     1     -36.058   5.840  10.576  1.00  0.00     0.143 A 
HETATM   15  O4  UNL     1     -35.221   6.234  11.505  1.00  0.00    -0.317 OA
ENDBRANCH   2  11
TORSDOF 2
ENDMDL
MODEL 3
REMARK VINA RESULT: -5.490318789      6.132      8.594
REMARK  2 active torsions:
REMARK  status: ('A' for Active; 'I' for Inactive)
REMARK       I    between atoms: C1_2  and  N1_3 
REMARK    1  A    between atoms: C1_2  and  C5_11 
REMARK    2  A    between atoms: N1_3  and  N2_5 
ROOT
HETATM    1  O1  UNL     1     -36.098   8.259  10.446  1.00  0.00    -0.264 OA
HETATM    2  C1  UNL     1     -35.807   7.133   9.976  1.00  0.00     0.289 C 
HETATM    3  N1  UNL     1     -35.094   7.109   8.750  1.00  0.00    -0.281 N 
ATOM      4  H1  UNL     1     -34.850   6.201   8.356  1.00  0.00     0.184 HD
ENDROOT
BRANCH   3   5
HETATM    5  N2  UNL     1     -34.713   8.229   8.065  1.00  0.00    -0.200 NA
HETATM    6  C2  UNL     1     -33.326   8.574   8.171  1.00  0.00     0.145 C 
HETATM    7  C3  UNL     1     -32.503   8.021   7.025  1.00  0.00     0.226 C 
HETATM    8  O2  UNL     1     -33.310   7.326   6.147  1.00  0.00    -0.239 OA
HETATM    9  O3  UNL     1     -34.277   8.109   5.753  1.00  0.00    -0.225 OA
HETATM   10  C4  UNL     1     -35.238   8.320   6.731  1.00  0.00     0.323 C 
ENDBRANCH   3   5
BRANCH   2  11
HETATM   11  C5  UNL     1     -36.194   5.905  10.672  1.00  0.00     0.143 A 
HETATM   12  C6  UNL     1     -35.653   5.411  11.813  1.00  0.00     0.045 A 
HETATM   13  C7  UNL     1     -36.327   4.243  12.099  1.00  0.00     0.027 A 
HETATM   14  C8  UNL     1     -37.267   4.073  11.102  1.00  0.00     0.143 A 
HETATM   15  O4  UNL     1     -37.128   5.096  10.295  1.00  0.00    -0.317 OA
ENDBRANCH   2  11
TORSDOF 2
ENDMDL
MODEL 4
REMARK VINA RESULT: -5.477445922      1.723      5.573
REMARK  2 active torsions:
REMARK  status: ('A' for Active; 'I' for Inactive)
REMARK       I    between atoms: C1_2  and  N1_3 
REMARK    1  A    between atoms: C1_2  and  C5_11 
REMARK    2  A    between atoms: N1_3  and  N2_5 
ROOT
HETATM    1  O1  UNL     1     -34.565   5.014  17.550  1.00  0.00    -0.264 OA
HETATM    2  C1  UNL     1     -34.254   6.222  17.406  1.00  0.00     0.289 C 
HETATM    3  N1  UNL     1     -34.397   6.776  16.109  1.00  0.00    -0.281 N 
ATOM      4  H1  UNL     1     -34.149   7.756  15.977  1.00  0.00     0.184 HD
ENDROOT
BRANCH   3   5
HETATM    5  N2  UNL     1     -34.847   6.077  15.024  1.00  0.00    -0.200 NA
HETATM    6  C2  UNL     1     -36.113   6.500  14.500  1.00  0.00     0.145 C 
HETATM    7  C3  UNL     1     -35.966   7.488  13.361  1.00  0.00     0.226 C 
HETATM    8  O2  UNL     1     -34.631   7.725  13.100  1.00  0.00    -0.239 OA
HETATM    9  O3  UNL     1     -34.038   6.586  12.871  1.00  0.00    -0.225 OA
HETATM   10  C4  UNL     1     -33.852   5.829  14.018  1.00  0.00     0.323 C 
ENDBRANCH   3   5
BRANCH   2  11
HETATM   11  C5  UNL     1     -33.766   7.012  18.538  1.00  0.00     0.143 A 
HETATM   12  C6  UNL     1     -33.028   6.565  19.584  1.00  0.00     0.045 A 
HETATM   13  C7  UNL     1     -32.801   7.652  20.401  1.00  0.00     0.027 A 
HETATM   14  C8  UNL     1     -33.421   8.733  19.807  1.00  0.00     0.143 A 
HETATM   15  O4  UNL     1     -33.971   8.276  18.708  1.00  0.00    -0.317 OA
ENDBRANCH   2  11
TORSDOF 2
ENDMDL
MODEL 5
REMARK VINA RESULT: -5.377747205      3.761      5.680
REMARK  2 active torsions:
REMARK  status: ('A' for Active; 'I' for Inactive)
REMARK       I    between atoms: C1_2  and  N1_3 
REMARK    1  A    between atoms: C1_2  and  C5_11 
REMARK    2  A    between atoms: N1_3  and  N2_5 
ROOT
HETATM    1  O1  UNL     1     -36.202   8.327  10.038  1.00  0.00    -0.264 OA
HETATM    2  C1  UNL     1     -35.062   7.812   9.944  1.00  0.00     0.289 C 
HETATM    3  N1  UNL     1     -34.593   7.071  11.059  1.00  0.00    -0.281 N 
ATOM      4  H1  UNL     1     -33.667   6.647  10.997  1.00  0.00     0.184 HD
ENDROOT
BRANCH   3   5
HETATM    5  N2  UNL     1     -35.304   6.890  12.211  1.00  0.00    -0.200 NA
HETATM    6  C2  UNL     1     -35.328   5.550  12.717  1.00  0.00     0.145 C 
HETATM    7  C3  UNL     1     -34.254   5.306  13.759  1.00  0.00     0.226 C 
HETATM    8  O2  UNL     1     -33.522   6.457  13.971  1.00  0.00    -0.239 OA
HETATM    9  O3  UNL     1     -34.339   7.422  14.293  1.00  0.00    -0.225 OA
HETATM   10  C4  UNL     1     -35.077   7.891  13.216  1.00  0.00     0.323 C 
ENDBRANCH   3   5
BRANCH   2  11
HETATM   11  C5  UNL     1     -34.260   7.978   8.730  1.00  0.00     0.143 A 
HETATM   12  C6  UNL     1     -32.938   8.268   8.661  1.00  0.00     0.045 A 
HETATM   13  C7  UNL     1     -32.614   8.327   7.323  1.00  0.00     0.027 A 
HETATM   14  C8  UNL     1     -33.774   8.065   6.621  1.00  0.00     0.143 A 
HETATM   15  O4  UNL     1     -34.705   7.868   7.522  1.00  0.00    -0.317 OA
ENDBRANCH   2  11
TORSDOF 2
ENDMDL
