MODEL 1
REMARK VINA RESULT: -5.652635967      0.000      0.000
REMARK  3 active torsions:
REMARK  status: ('A' for Active; 'I' for Inactive)
REMARK    1  A    between atoms: C1_2  and  C2_3 
REMARK       I    between atoms: C1_2  and  N2_7 
REMARK    2  A    between atoms: C2_3  and  N1_4 
REMARK       I    between atoms: N2_7  and  C3_9 
REMARK    3  A    between atoms: C3_9  and  C4_11 
ROOT
HETATM    1  O1  UNL     1     -36.465   6.971  14.949  1.00  0.00    -0.271 OA
HETATM    2  C1  UNL     1     -35.550   6.470  15.627  1.00  0.00     0.248 C 
HETATM    3  N2  UNL     1     -34.391   5.817  15.166  1.00  0.00    -0.290 N 
ATOM      4  H2  UNL     1     -33.776   5.486  15.910  1.00  0.00     0.172 HD
HETATM    5  C3  UNL     1     -33.936   5.544  13.905  1.00  0.00     0.281 C 
HETATM    6  O4  UNL     1     -32.811   4.915  13.765  1.00  0.00    -0.265 OA
ENDROOT
BRANCH   2   7
HETATM    7  C2  UNL     1     -35.759   6.608  17.125  1.00  0.00     0.304 C 
BRANCH   7   8
HETATM    8  N1  UNL     1     -34.558   6.261  17.840  1.00  0.00    -0.147 N 
HETATM    9  O2  UNL     1     -33.719   7.136  18.104  1.00  0.00    -0.536 OA
HETATM   10  O3  UNL     1     -34.357   4.963  18.219  1.00  0.00    -0.536 OA
ENDBRANCH   7   8
ENDBRANCH   2   7
BRANCH   5  11
HETATM   11  C4  UNL     1     -34.584   5.888  12.654  1.00  0.00     0.142 A 
HETATM   12  C5  UNL     1     -35.632   5.177  12.046  1.00  0.00     0.045 A 
HETATM   13  C6  UNL     1     -35.946   5.837  10.891  1.00  0.00     0.027 A 
HETATM   14  C7  UNL     1     -35.111   6.921  10.796  1.00  0.00     0.143 A 
HETATM   15  O5  UNL     1     -34.361   6.876  11.849  1.00  0.00    -0.317 OA
ENDBRANCH   5  11
TORSDOF 3
ENDMDL
MODEL 2
REMARK VINA RESULT: -5.517068048      0.887      1.109
REMARK  3 active torsions:
REMARK  status: ('A' for Active; 'I' for Inactive)
REMARK    1  A    between atoms: C1_2  and  C2_3 
REMARK       I    between atoms: C1_2  and  N2_7 
REMARK    2  A    between atoms: C2_3  and  N1_4 
REMARK       I    between atoms: N2_7  and  C3_9 
REMARK    3  A    between atoms: C3_9  and  C4_11 
ROOT
HETATM    1  O1  UNL     1     -36.849   6.439  15.100  1.00  0.00    -0.271 OA
HETATM    2  C1  UNL     1     -35.759   6.334  15.689  1.00  0.00     0.248 C 
HETATM    3  N2  UNL     1     -34.515   5.957  15.147  1.00  0.00    -0.290 N 
ATOM      4  H2  UNL     1     -33.753   5.942  15.825  1.00  0.00     0.172 HD
HETATM    5  C3  UNL     1     -34.140   5.606  13.879  1.00  0.00     0.281 C 
HETATM    6  O4  UNL     1     -32.902   5.297  13.653  1.00  0.00    -0.265 OA
ENDROOT
BRANCH   2   7
HETATM    7  C2  UNL     1     -35.835   6.666  17.170  1.00  0.00     0.304 C 
BRANCH   7   8
HETATM    8  N1  UNL     1     -34.612   6.300  17.837  1.00  0.00    -0.147 N 
HETATM    9  O2  UNL     1     -33.776   7.171  18.121  1.00  0.00    -0.536 OA
HETATM   10  O3  UNL     1     -34.388   4.987  18.147  1.00  0.00    -0.536 OA
ENDBRANCH   7   8
ENDBRANCH   2   7
BRANCH   5  11
HETATM   11  C4  UNL     1     -34.993   5.536  12.708  1.00  0.00     0.142 A 
HETATM   12  C5  UNL     1     -34.966   6.419  11.616  1.00  0.00     0.045 A 
HETATM   13  C6  UNL     1     -35.926   5.997  10.738  1.00  0.00     0.027 A 
HETATM   14  C7  UNL     1     -36.523   4.889  11.282  1.00  0.00     0.143 A 
HETATM   15  O5  UNL     1     -35.928   4.692  12.412  1.00  0.00    -0.317 OA
ENDBRANCH   5  11
TORSDOF 3
ENDMDL
MODEL 3
REMARK VINA RESULT: -5.422708472      1.718      2.152
REMARK  3 active torsions:
REMARK  status: ('A' for Active; 'I' for Inactive)
REMARK    1  A    between atoms: C1_2  and  C2_3 
REMARK       I    between atoms: C1_2  and  N2_7 
REMARK    2  A    between atoms: C2_3  and  N1_4 
REMARK       I    between atoms: N2_7  and  C3_9 
REMARK    3  A    between atoms: C3_9  and  C4_11 
ROOT
HETATM    1  O1  UNL     1     -36.237   6.114  16.824  1.00  0.00    -0.271 OA
HETATM    2  C1  UNL     1     -35.192   6.447  17.411  1.00  0.00     0.248 C 
HETATM    3  N2  UNL     1     -33.960   6.822  16.839  1.00  0.00    -0.290 N 
ATOM      4  H2  UNL     1     -33.240   7.057  17.522  1.00  0.00     0.172 HD
HETATM    5  C3  UNL     1     -33.552   6.928  15.538  1.00  0.00     0.281 C 
HETATM    6  O4  UNL     1     -32.336   7.303  15.290  1.00  0.00    -0.265 OA
ENDROOT
BRANCH   2   7
HETATM    7  C2  UNL     1     -35.315   6.431  18.925  1.00  0.00     0.304 C 
BRANCH   7   8
HETATM    8  N1  UNL     1     -34.668   5.268  19.475  1.00  0.00    -0.147 N 
HETATM    9  O2  UNL     1     -33.610   4.853  18.976  1.00  0.00    -0.536 OA
HETATM   10  O3  UNL     1     -35.232   4.633  20.546  1.00  0.00    -0.536 OA
ENDBRANCH   7   8
ENDBRANCH   2   7
BRANCH   5  11
HETATM   11  C4  UNL     1     -34.346   6.664  14.354  1.00  0.00     0.142 A 
HETATM   12  C5  UNL     1     -34.171   5.588  13.468  1.00  0.00     0.045 A 
HETATM   13  C6  UNL     1     -35.123   5.713  12.494  1.00  0.00     0.027 A 
HETATM   14  C7  UNL     1     -35.857   6.836  12.779  1.00  0.00     0.143 A 
HETATM   15  O5  UNL     1     -35.345   7.322  13.862  1.00  0.00    -0.317 OA
ENDBRANCH   5  11
TORSDOF 3
ENDMDL
MODEL 4
REMARK VINA RESULT: -5.315737667      4.189      6.716
REMARK  3 active torsions:
REMARK  status: ('A' for Active; 'I' for Inactive)
REMARK    1  A    between atoms: C1_2  and  C2_3 
REMARK       I    between atoms: C1_2  and  N2_7 
REMARK    2  A    between atoms: C2_3  and  N1_4 
REMARK       I    between atoms: N2_7  and  C3_9 
REMARK    3  A    between atoms: C3_9  and  C4_11 
ROOT
HETATM    1  O1  UNL     1     -35.851   6.953   8.369  1.00  0.00    -0.271 OA
HETATM    2  C1  UNL     1     -35.060   7.791   8.837  1.00  0.00     0.248 C 
HETATM    3  N2  UNL     1     -34.697   7.979  10.185  1.00  0.00    -0.290 N 
ATOM      4  H2  UNL     1     -34.024   8.732  10.333  1.00  0.00     0.172 HD
HETATM    5  C3  UNL     1     -35.081   7.340  11.332  1.00  0.00     0.281 C 
HETATM    6  O4  UNL     1     -34.579   7.726  12.463  1.00  0.00    -0.265 OA
ENDROOT
BRANCH   2   7
HETATM    7  C2  UNL     1     -34.438   8.692   7.784  1.00  0.00     0.304 C 
BRANCH   7   8
HETATM    8  N1  UNL     1     -33.089   8.280   7.495  1.00  0.00    -0.147 N 
HETATM    9  O2  UNL     1     -32.167   8.592   8.263  1.00  0.00    -0.536 OA
HETATM   10  O3  UNL     1     -32.842   7.546   6.368  1.00  0.00    -0.536 OA
ENDBRANCH   7   8
ENDBRANCH   2   7
BRANCH   5  11
HETATM   11  C4  UNL     1     -36.016   6.238  11.441  1.00  0.00     0.142 A 
HETATM   12  C5  UNL     1     -35.724   4.957  11.938  1.00  0.00     0.045 A 
HETATM   13  C6  UNL     1     -36.879   4.228  11.867  1.00  0.00     0.027 A 
HETATM   14  C7  UNL     1     -37.848   5.042  11.340  1.00  0.00     0.143 A 
HETATM   15  O5  UNL     1     -37.268   6.178  11.124  1.00  0.00    -0.317 OA
ENDBRANCH   5  11
TORSDOF 3
ENDMDL
MODEL 5
REMARK VINA RESULT: -5.303201940      1.584      1.869
REMARK  3 active torsions:
REMARK  status: ('A' for Active; 'I' for Inactive)
REMARK    1  A    between atoms: C1_2  and  C2_3 
REMARK       I    between atoms: C1_2  and  N2_7 
REMARK    2  A    between atoms: C2_3  and  N1_4 
REMARK       I    between atoms: N2_7  and  C3_9 
REMARK    3  A    between atoms: C3_9  and  C4_11 
ROOT
HETATM    1  O1  UNL     1     -34.235   8.080  14.029  1.00  0.00    -0.271 OA
HETATM    2  C1  UNL     1     -34.479   7.015  14.623  1.00  0.00     0.248 C 
HETATM    3  N2  UNL     1     -34.918   5.797  14.070  1.00  0.00    -0.290 N 
ATOM      4  H2  UNL     1     -35.052   5.053  14.756  1.00  0.00     0.172 HD
HETATM    5  C3  UNL     1     -35.200   5.427  12.784  1.00  0.00     0.281 C 
HETATM    6  O4  UNL     1     -35.595   4.214  12.551  1.00  0.00    -0.265 OA
ENDROOT
BRANCH   2   7
HETATM    7  C2  UNL     1     -34.259   7.094  16.125  1.00  0.00     0.304 C 
BRANCH   7   8
HETATM    8  N1  UNL     1     -35.103   6.152  16.812  1.00  0.00    -0.147 N 
HETATM    9  O2  UNL     1     -36.323   6.360  16.897  1.00  0.00    -0.536 OA
HETATM   10  O3  UNL     1     -34.544   5.035  17.367  1.00  0.00    -0.536 OA
ENDBRANCH   7   8
ENDBRANCH   2   7
BRANCH   5  11
HETATM   11  C4  UNL     1     -35.104   6.258  11.599  1.00  0.00     0.142 A 
HETATM   12  C5  UNL     1     -36.052   6.332  10.566  1.00  0.00     0.045 A 
HETATM   13  C6  UNL     1     -35.576   7.229   9.650  1.00  0.00     0.027 A 
HETATM   14  C7  UNL     1     -34.370   7.688  10.113  1.00  0.00     0.143 A 
HETATM   15  O5  UNL     1     -34.173   7.080  11.237  1.00  0.00    -0.317 OA
ENDBRANCH   5  11
TORSDOF 3
ENDMDL
