MODEL 1
REMARK VINA RESULT: -6.178341063      0.000      0.000
REMARK  10 active torsions:
REMARK  status: ('A' for Active; 'I' for Inactive)
REMARK    1  A    between atoms: N1_2  and  C3_4 
REMARK    2  A    between atoms: C3_4  and  C4_5 
REMARK    3  A    between atoms: C4_5  and  C5_6 
REMARK    4  A    between atoms: C5_6  and  N2_7 
REMARK    5  A    between atoms: C5_6  and  N3_10 
REMARK    6  A    between atoms: N3_10  and  C6_12 
REMARK    7  A    between atoms: C6_12  and  C7_13 
REMARK    8  A    between atoms: C6_12  and  C8_16 
REMARK    9  A    between atoms: C9_17  and  C10_18 
REMARK   10  A    between atoms: C12_20  and  N4_21 
ROOT
HETATM    1  C8  UNL     1     -15.605 -11.290   5.342  1.00  0.00     0.053 A 
HETATM    2  C9  UNL     1     -16.605 -10.633   4.637  1.00  0.00     0.090 A 
HETATM    3  N7  UNL     1     -17.079 -11.522   3.755  1.00  0.00    -0.285 N 
ATOM      4  H7  UNL     1     -17.833 -11.323   3.097  1.00  0.00     0.188 HD
HETATM    5  N8  UNL     1     -16.478 -12.649   3.830  1.00  0.00    -0.232 N 
HETATM    6  C14 UNL     1     -15.546 -12.600   4.784  1.00  0.00     0.057 A 
HETATM    7  C15 UNL     1     -14.779 -13.824   4.961  1.00  0.00     0.073 C 
HETATM    8  C16 UNL     1     -15.512 -15.029   4.411  1.00  0.00     0.105 C 
HETATM    9  S1  UNL     1     -16.458 -14.240   3.083  1.00  0.00    -0.030 SA
ENDROOT
BRANCH   1  10
HETATM   10  C6  UNL     1     -14.898 -10.747   6.458  1.00  0.00     0.126 C 
BRANCH  10  11
HETATM   11  N3  UNL     1     -13.759 -11.374   7.033  1.00  0.00    -0.337 N 
ATOM     12  H3  UNL     1     -13.854 -11.873   7.917  1.00  0.00     0.168 HD
BRANCH  11  13
HETATM   13  C5  UNL     1     -12.507 -11.318   6.406  1.00  0.00     0.100 C 
BRANCH  13  14
HETATM   14  C4  UNL     1     -12.022 -10.910   5.159  1.00  0.00     0.065 C 
BRANCH  14  15
HETATM   15  C3  UNL     1     -12.153 -11.107   3.876  1.00  0.00     0.088 C 
BRANCH  15  16
HETATM   16  N1  UNL     1     -12.932 -10.096   3.157  1.00  0.00    -0.398 N 
HETATM   17  C1  UNL     1     -12.646  -8.740   3.636  1.00  0.00     0.148 C 
HETATM   18  C2  UNL     1     -13.878 -10.296   2.148  1.00  0.00     0.148 C 
ENDBRANCH  15  16
ENDBRANCH  14  15
ENDBRANCH  13  14
BRANCH  13  19
HETATM   19  N2  UNL     1     -11.494 -11.680   7.254  1.00  0.00    -0.385 N 
ATOM     20  H22 UNL     1     -11.808 -12.354   7.952  1.00  0.00     0.157 HD
ATOM     21  H21 UNL     1     -10.635 -11.164   7.065  1.00  0.00     0.157 HD
ENDBRANCH  13  19
ENDBRANCH  11  13
ENDBRANCH  10  11
BRANCH  10  22
HETATM   22  C7  UNL     1     -15.635 -10.136   7.577  1.00  0.00     0.227 C 
HETATM   23  O1  UNL     1     -15.464  -9.013   8.076  1.00  0.00    -0.643 OA
HETATM   24  O2  UNL     1     -16.672 -10.888   8.212  1.00  0.00    -0.643 OA
ENDBRANCH  10  22
ENDBRANCH   1  10
BRANCH   2  25
HETATM   25  C10 UNL     1     -17.062  -9.247   4.649  1.00  0.00     0.066 A 
HETATM   26  C11 UNL     1     -16.333  -8.303   3.954  1.00  0.00     0.080 A 
HETATM   27  C12 UNL     1     -16.596  -6.943   4.009  1.00  0.00     0.101 A 
HETATM   28  N5  UNL     1     -17.620  -6.536   4.781  1.00  0.00    -0.339 N 
HETATM   29  C13 UNL     1     -18.329  -7.479   5.448  1.00  0.00     0.182 A 
ATOM     30  H5  UNL     1     -17.856  -5.548   4.861  1.00  0.00     0.168 HD
HETATM   31  N6  UNL     1     -18.064  -8.791   5.391  1.00  0.00    -0.350 N 
ATOM     32  H6  UNL     1     -18.639  -9.446   5.922  1.00  0.00     0.166 HD
BRANCH  27  33
HETATM   33  N4  UNL     1     -15.896  -6.127   3.338  1.00  0.00    -0.385 N 
ATOM     34  H42 UNL     1     -15.018  -6.402   2.900  1.00  0.00     0.157 HD
ATOM     35  H41 UNL     1     -16.196  -5.158   3.230  1.00  0.00     0.157 HD
ENDBRANCH  27  33
ENDBRANCH   2  25
TORSDOF 10
ENDMDL
MODEL 2
REMARK VINA RESULT: -6.160440202      1.570      2.600
REMARK  10 active torsions:
REMARK  status: ('A' for Active; 'I' for Inactive)
REMARK    1  A    between atoms: N1_2  and  C3_4 
REMARK    2  A    between atoms: C3_4  and  C4_5 
REMARK    3  A    between atoms: C4_5  and  C5_6 
REMARK    4  A    between atoms: C5_6  and  N2_7 
REMARK    5  A    between atoms: C5_6  and  N3_10 
REMARK    6  A    between atoms: N3_10  and  C6_12 
REMARK    7  A    between atoms: C6_12  and  C7_13 
REMARK    8  A    between atoms: C6_12  and  C8_16 
REMARK    9  A    between atoms: C9_17  and  C10_18 
REMARK   10  A    between atoms: C12_20  and  N4_21 
ROOT
HETATM    1  C8  UNL     1     -15.824 -10.867   5.335  1.00  0.00     0.053 A 
HETATM    2  C9  UNL     1     -15.867  -9.917   4.323  1.00  0.00     0.090 A 
HETATM    3  N7  UNL     1     -16.820 -10.325   3.474  1.00  0.00    -0.285 N 
ATOM      4  H7  UNL     1     -17.082  -9.818   2.629  1.00  0.00     0.188 HD
HETATM    5  N8  UNL     1     -17.362 -11.423   3.845  1.00  0.00    -0.232 N 
HETATM    6  C14 UNL     1     -16.808 -11.837   4.986  1.00  0.00     0.057 A 
HETATM    7  C15 UNL     1     -17.333 -13.090   5.508  1.00  0.00     0.073 C 
HETATM    8  C16 UNL     1     -18.710 -13.394   4.955  1.00  0.00     0.105 C 
HETATM    9  S1  UNL     1     -18.585 -12.581   3.341  1.00  0.00    -0.030 SA
ENDROOT
BRANCH   1  10
HETATM   10  C6  UNL     1     -15.020 -10.775   6.511  1.00  0.00     0.126 C 
BRANCH  10  11
HETATM   11  N3  UNL     1     -14.149 -11.814   6.938  1.00  0.00    -0.337 N 
ATOM     12  H3  UNL     1     -14.416 -12.398   7.731  1.00  0.00     0.168 HD
BRANCH  11  13
HETATM   13  C5  UNL     1     -12.929 -12.050   6.289  1.00  0.00     0.100 C 
BRANCH  13  14
HETATM   14  C4  UNL     1     -12.530 -12.493   5.025  1.00  0.00     0.065 C 
BRANCH  14  15
HETATM   15  C3  UNL     1     -12.870 -12.490   3.765  1.00  0.00     0.088 C 
BRANCH  15  16
HETATM   16  N1  UNL     1     -13.916 -13.445   3.389  1.00  0.00    -0.398 N 
HETATM   17  C1  UNL     1     -14.677 -12.992   2.220  1.00  0.00     0.148 C 
HETATM   18  C2  UNL     1     -14.249 -14.648   4.016  1.00  0.00     0.148 C 
ENDBRANCH  15  16
ENDBRANCH  14  15
ENDBRANCH  13  14
BRANCH  13  19
HETATM   19  N2  UNL     1     -11.860 -11.681   7.062  1.00  0.00    -0.385 N 
ATOM     20  H22 UNL     1     -11.205 -12.452   7.196  1.00  0.00     0.157 HD
ATOM     21  H21 UNL     1     -11.950 -10.725   7.405  1.00  0.00     0.157 HD
ENDBRANCH  13  19
ENDBRANCH  11  13
ENDBRANCH  10  11
BRANCH  10  22
HETATM   22  C7  UNL     1     -15.566 -10.171   7.739  1.00  0.00     0.227 C 
HETATM   23  O1  UNL     1     -15.483  -8.989   8.105  1.00  0.00    -0.643 OA
HETATM   24  O2  UNL     1     -16.272 -11.005   8.661  1.00  0.00    -0.643 OA
ENDBRANCH  10  22
ENDBRANCH   1  10
BRANCH   2  25
HETATM   25  C10 UNL     1     -15.035  -8.752   4.039  1.00  0.00     0.066 A 
HETATM   26  C11 UNL     1     -15.648  -7.527   3.865  1.00  0.00     0.080 A 
HETATM   27  C12 UNL     1     -14.971  -6.387   3.457  1.00  0.00     0.101 A 
HETATM   28  N5  UNL     1     -13.651  -6.494   3.227  1.00  0.00    -0.339 N 
HETATM   29  C13 UNL     1     -13.067  -7.702   3.412  1.00  0.00     0.182 A 
ATOM     30  H5  UNL     1     -13.105  -5.688   2.922  1.00  0.00     0.168 HD
HETATM   31  N6  UNL     1     -13.729  -8.799   3.803  1.00  0.00    -0.350 N 
ATOM     32  H6  UNL     1     -13.225  -9.679   3.920  1.00  0.00     0.166 HD
BRANCH  27  33
HETATM   33  N4  UNL     1     -15.589  -5.289   3.326  1.00  0.00    -0.385 N 
ATOM     34  H42 UNL     1     -16.206  -5.106   2.535  1.00  0.00     0.157 HD
ATOM     35  H41 UNL     1     -15.472  -4.546   4.016  1.00  0.00     0.157 HD
ENDBRANCH  27  33
ENDBRANCH   2  25
TORSDOF 10
ENDMDL
MODEL 3
REMARK VINA RESULT: -6.055662716      2.650      4.347
REMARK  10 active torsions:
REMARK  status: ('A' for Active; 'I' for Inactive)
REMARK    1  A    between atoms: N1_2  and  C3_4 
REMARK    2  A    between atoms: C3_4  and  C4_5 
REMARK    3  A    between atoms: C4_5  and  C5_6 
REMARK    4  A    between atoms: C5_6  and  N2_7 
REMARK    5  A    between atoms: C5_6  and  N3_10 
REMARK    6  A    between atoms: N3_10  and  C6_12 
REMARK    7  A    between atoms: C6_12  and  C7_13 
REMARK    8  A    between atoms: C6_12  and  C8_16 
REMARK    9  A    between atoms: C9_17  and  C10_18 
REMARK   10  A    between atoms: C12_20  and  N4_21 
ROOT
HETATM    1  C8  UNL     1     -16.774 -12.060   6.328  1.00  0.00     0.053 A 
HETATM    2  C9  UNL     1     -16.754 -13.021   5.326  1.00  0.00     0.090 A 
HETATM    3  N7  UNL     1     -17.927 -13.663   5.407  1.00  0.00    -0.285 N 
ATOM      4  H7  UNL     1     -18.202 -14.424   4.787  1.00  0.00     0.188 HD
HETATM    5  N8  UNL     1     -18.664 -13.210   6.351  1.00  0.00    -0.232 N 
HETATM    6  C14 UNL     1     -18.032 -12.217   6.979  1.00  0.00     0.057 A 
HETATM    7  C15 UNL     1     -18.764 -11.624   8.088  1.00  0.00     0.073 C 
HETATM    8  C16 UNL     1     -20.252 -11.885   7.981  1.00  0.00     0.105 C 
HETATM    9  S1  UNL     1     -20.228 -13.473   7.109  1.00  0.00    -0.030 SA
ENDROOT
BRANCH   1  10
HETATM   10  C6  UNL     1     -15.762 -11.074   6.537  1.00  0.00     0.126 C 
BRANCH  10  11
HETATM   11  N3  UNL     1     -14.496 -11.373   7.112  1.00  0.00    -0.337 N 
ATOM     12  H3  UNL     1     -14.429 -11.544   8.115  1.00  0.00     0.168 HD
BRANCH  11  13
HETATM   13  C5  UNL     1     -13.339 -11.435   6.324  1.00  0.00     0.100 C 
BRANCH  13  14
HETATM   14  C4  UNL     1     -12.901 -10.856   5.129  1.00  0.00     0.065 C 
BRANCH  14  15
HETATM   15  C3  UNL     1     -12.845 -11.047   3.840  1.00  0.00     0.088 C 
BRANCH  15  16
HETATM   16  N1  UNL     1     -13.189  -9.888   3.013  1.00  0.00    -0.398 N 
HETATM   17  C1  UNL     1     -12.661  -8.638   3.572  1.00  0.00     0.148 C 
HETATM   18  C2  UNL     1     -13.946  -9.862   1.838  1.00  0.00     0.148 C 
ENDBRANCH  15  16
ENDBRANCH  14  15
ENDBRANCH  13  14
BRANCH  13  19
HETATM   19  N2  UNL     1     -12.361 -12.192   6.913  1.00  0.00    -0.385 N 
ATOM     20  H22 UNL     1     -12.391 -12.125   7.930  1.00  0.00     0.157 HD
ATOM     21  H21 UNL     1     -11.753 -12.633   6.223  1.00  0.00     0.157 HD
ENDBRANCH  13  19
ENDBRANCH  11  13
ENDBRANCH  10  11
BRANCH  10  22
HETATM   22  C7  UNL     1     -16.123  -9.732   7.022  1.00  0.00     0.227 C 
HETATM   23  O1  UNL     1     -16.974  -8.959   6.555  1.00  0.00    -0.643 OA
HETATM   24  O2  UNL     1     -15.431  -9.199   8.154  1.00  0.00    -0.643 OA
ENDBRANCH  10  22
ENDBRANCH   1  10
BRANCH   2  25
HETATM   25  C10 UNL     1     -15.710 -13.448   4.400  1.00  0.00     0.066 A 
HETATM   26  C11 UNL     1     -15.842 -13.135   3.063  1.00  0.00     0.080 A 
HETATM   27  C12 UNL     1     -14.984 -13.606   2.080  1.00  0.00     0.101 A 
HETATM   28  N5  UNL     1     -13.974 -14.406   2.465  1.00  0.00    -0.339 N 
HETATM   29  C13 UNL     1     -13.856 -14.694   3.783  1.00  0.00     0.182 A 
ATOM     30  H5  UNL     1     -13.316 -14.784   1.784  1.00  0.00     0.168 HD
HETATM   31  N6  UNL     1     -14.692 -14.237   4.725  1.00  0.00    -0.350 N 
ATOM     32  H6  UNL     1     -14.545 -14.497   5.701  1.00  0.00     0.166 HD
BRANCH  27  33
HETATM   33  N4  UNL     1     -15.153 -13.273   0.869  1.00  0.00    -0.385 N 
ATOM     34  H42 UNL     1     -15.510 -12.355   0.606  1.00  0.00     0.157 HD
ATOM     35  H41 UNL     1     -14.943 -13.932   0.119  1.00  0.00     0.157 HD
ENDBRANCH  27  33
ENDBRANCH   2  25
TORSDOF 10
ENDMDL
MODEL 4
REMARK VINA RESULT: -6.042568958      2.123      3.214
REMARK  10 active torsions:
REMARK  status: ('A' for Active; 'I' for Inactive)
REMARK    1  A    between atoms: N1_2  and  C3_4 
REMARK    2  A    between atoms: C3_4  and  C4_5 
REMARK    3  A    between atoms: C4_5  and  C5_6 
REMARK    4  A    between atoms: C5_6  and  N2_7 
REMARK    5  A    between atoms: C5_6  and  N3_10 
REMARK    6  A    between atoms: N3_10  and  C6_12 
REMARK    7  A    between atoms: C6_12  and  C7_13 
REMARK    8  A    between atoms: C6_12  and  C8_16 
REMARK    9  A    between atoms: C9_17  and  C10_18 
REMARK   10  A    between atoms: C12_20  and  N4_21 
ROOT
HETATM    1  C8  UNL     1     -16.305 -10.554   5.807  1.00  0.00     0.053 A 
HETATM    2  C9  UNL     1     -16.588  -9.806   4.672  1.00  0.00     0.090 A 
HETATM    3  N7  UNL     1     -17.914  -9.891   4.496  1.00  0.00    -0.285 N 
ATOM      4  H7  UNL     1     -18.416  -9.432   3.736  1.00  0.00     0.188 HD
HETATM    5  N8  UNL     1     -18.477 -10.615   5.388  1.00  0.00    -0.232 N 
HETATM    6  C14 UNL     1     -17.559 -11.073   6.242  1.00  0.00     0.057 A 
HETATM    7  C15 UNL     1     -18.075 -11.924   7.304  1.00  0.00     0.073 C 
HETATM    8  C16 UNL     1     -19.556 -11.706   7.528  1.00  0.00     0.105 C 
HETATM    9  S1  UNL     1     -20.058 -11.224   5.855  1.00  0.00    -0.030 SA
ENDROOT
BRANCH   1  10
HETATM   10  C6  UNL     1     -15.021 -10.652   6.423  1.00  0.00     0.126 C 
BRANCH  10  11
HETATM   11  N3  UNL     1     -14.394 -11.894   6.715  1.00  0.00    -0.337 N 
ATOM     12  H3  UNL     1     -14.837 -12.537   7.371  1.00  0.00     0.168 HD
BRANCH  11  13
HETATM   13  C5  UNL     1     -13.177 -12.251   6.118  1.00  0.00     0.100 C 
BRANCH  13  14
HETATM   14  C4  UNL     1     -12.749 -12.598   4.833  1.00  0.00     0.065 C 
BRANCH  14  15
HETATM   15  C3  UNL     1     -13.168 -12.790   3.613  1.00  0.00     0.088 C 
BRANCH  15  16
HETATM   16  N1  UNL     1     -14.377 -13.607   3.479  1.00  0.00    -0.398 N 
HETATM   17  C1  UNL     1     -14.066 -15.037   3.388  1.00  0.00     0.148 C 
HETATM   18  C2  UNL     1     -15.704 -13.175   3.406  1.00  0.00     0.148 C 
ENDBRANCH  15  16
ENDBRANCH  14  15
ENDBRANCH  13  14
BRANCH  13  19
HETATM   19  N2  UNL     1     -12.131 -12.161   6.998  1.00  0.00    -0.385 N 
ATOM     20  H22 UNL     1     -11.241 -12.386   6.553  1.00  0.00     0.157 HD
ATOM     21  H21 UNL     1     -12.446 -11.943   7.943  1.00  0.00     0.157 HD
ENDBRANCH  13  19
ENDBRANCH  11  13
ENDBRANCH  10  11
BRANCH  10  22
HETATM   22  C7  UNL     1     -14.653  -9.743   7.521  1.00  0.00     0.227 C 
HETATM   23  O1  UNL     1     -13.526  -9.552   8.005  1.00  0.00    -0.643 OA
HETATM   24  O2  UNL     1     -15.680  -8.974   8.152  1.00  0.00    -0.643 OA
ENDBRANCH  10  22
ENDBRANCH   1  10
BRANCH   2  25
HETATM   25  C10 UNL     1     -15.729  -9.129   3.706  1.00  0.00     0.066 A 
HETATM   26  C11 UNL     1     -15.267  -7.863   4.004  1.00  0.00     0.080 A 
HETATM   27  C12 UNL     1     -14.561  -7.078   3.104  1.00  0.00     0.101 A 
HETATM   28  N5  UNL     1     -14.318  -7.590   1.885  1.00  0.00    -0.339 N 
HETATM   29  C13 UNL     1     -14.773  -8.838   1.616  1.00  0.00     0.182 A 
ATOM     30  H5  UNL     1     -13.807  -7.055   1.183  1.00  0.00     0.168 HD
HETATM   31  N6  UNL     1     -15.457  -9.587   2.490  1.00  0.00    -0.350 N 
ATOM     32  H6  UNL     1     -15.771 -10.519   2.219  1.00  0.00     0.166 HD
BRANCH  27  33
HETATM   33  N4  UNL     1     -14.153  -5.926   3.442  1.00  0.00    -0.385 N 
ATOM     34  H42 UNL     1     -14.787  -5.212   3.800  1.00  0.00     0.157 HD
ATOM     35  H41 UNL     1     -13.167  -5.681   3.351  1.00  0.00     0.157 HD
ENDBRANCH  27  33
ENDBRANCH   2  25
TORSDOF 10
ENDMDL
MODEL 5
REMARK VINA RESULT: -5.986329760      2.174      2.937
REMARK  10 active torsions:
REMARK  status: ('A' for Active; 'I' for Inactive)
REMARK    1  A    between atoms: N1_2  and  C3_4 
REMARK    2  A    between atoms: C3_4  and  C4_5 
REMARK    3  A    between atoms: C4_5  and  C5_6 
REMARK    4  A    between atoms: C5_6  and  N2_7 
REMARK    5  A    between atoms: C5_6  and  N3_10 
REMARK    6  A    between atoms: N3_10  and  C6_12 
REMARK    7  A    between atoms: C6_12  and  C7_13 
REMARK    8  A    between atoms: C6_12  and  C8_16 
REMARK    9  A    between atoms: C9_17  and  C10_18 
REMARK   10  A    between atoms: C12_20  and  N4_21 
ROOT
HETATM    1  C8  UNL     1     -17.192 -10.402   5.877  1.00  0.00     0.053 A 
HETATM    2  C9  UNL     1     -17.592  -9.569   4.840  1.00  0.00     0.090 A 
HETATM    3  N7  UNL     1     -18.930  -9.630   4.814  1.00  0.00    -0.285 N 
ATOM      4  H7  UNL     1     -19.509  -9.111   4.155  1.00  0.00     0.188 HD
HETATM    5  N8  UNL     1     -19.398 -10.413   5.712  1.00  0.00    -0.232 N 
HETATM    6  C14 UNL     1     -18.396 -10.940   6.417  1.00  0.00     0.057 A 
HETATM    7  C15 UNL     1     -18.799 -11.864   7.467  1.00  0.00     0.073 C 
HETATM    8  C16 UNL     1     -20.241 -11.650   7.878  1.00  0.00     0.105 C 
HETATM    9  S1  UNL     1     -20.925 -11.041   6.315  1.00  0.00    -0.030 SA
ENDROOT
BRANCH   1  10
HETATM   10  C6  UNL     1     -15.847 -10.557   6.330  1.00  0.00     0.126 C 
BRANCH  10  11
HETATM   11  N3  UNL     1     -15.156 -11.799   6.297  1.00  0.00    -0.337 N 
ATOM     12  H3  UNL     1     -15.589 -12.625   6.710  1.00  0.00     0.168 HD
BRANCH  11  13
HETATM   13  C5  UNL     1     -13.889 -11.909   5.707  1.00  0.00     0.100 C 
BRANCH  13  14
HETATM   14  C4  UNL     1     -13.328 -11.611   4.462  1.00  0.00     0.065 C 
BRANCH  14  15
HETATM   15  C3  UNL     1     -13.324 -10.721   3.508  1.00  0.00     0.088 C 
BRANCH  15  16
HETATM   16  N1  UNL     1     -12.401  -9.598   3.693  1.00  0.00    -0.398 N 
HETATM   17  C1  UNL     1     -11.048 -10.050   4.034  1.00  0.00     0.148 C 
HETATM   18  C2  UNL     1     -12.680  -8.231   3.610  1.00  0.00     0.148 C 
ENDBRANCH  15  16
ENDBRANCH  14  15
ENDBRANCH  13  14
BRANCH  13  19
HETATM   19  N2  UNL     1     -12.946 -12.345   6.600  1.00  0.00    -0.385 N 
ATOM     20  H22 UNL     1     -12.022 -12.409   6.175  1.00  0.00     0.157 HD
ATOM     21  H21 UNL     1     -13.358 -12.579   7.504  1.00  0.00     0.157 HD
ENDBRANCH  13  19
ENDBRANCH  11  13
ENDBRANCH  10  11
BRANCH  10  22
HETATM   22  C7  UNL     1     -15.390  -9.869   7.549  1.00  0.00     0.227 C 
HETATM   23  O1  UNL     1     -14.620  -8.900   7.632  1.00  0.00    -0.643 OA
HETATM   24  O2  UNL     1     -15.847 -10.343   8.819  1.00  0.00    -0.643 OA
ENDBRANCH  10  22
ENDBRANCH   1  10
BRANCH   2  25
HETATM   25  C10 UNL     1     -16.839  -8.830   3.832  1.00  0.00     0.066 A 
HETATM   26  C11 UNL     1     -16.505  -7.515   4.087  1.00  0.00     0.080 A 
HETATM   27  C12 UNL     1     -15.914  -6.683   3.147  1.00  0.00     0.101 A 
HETATM   28  N5  UNL     1     -15.656  -7.197   1.932  1.00  0.00    -0.339 N 
HETATM   29  C13 UNL     1     -15.983  -8.492   1.706  1.00  0.00     0.182 A 
ATOM     30  H5  UNL     1     -15.226  -6.629   1.203  1.00  0.00     0.168 HD
HETATM   31  N6  UNL     1     -16.557  -9.288   2.618  1.00  0.00    -0.350 N 
ATOM     32  H6  UNL     1     -16.779 -10.254   2.378  1.00  0.00     0.166 HD
BRANCH  27  33
HETATM   33  N4  UNL     1     -15.621  -5.487   3.446  1.00  0.00    -0.385 N 
ATOM     34  H42 UNL     1     -15.915  -5.062   4.326  1.00  0.00     0.157 HD
ATOM     35  H41 UNL     1     -15.087  -4.909   2.797  1.00  0.00     0.157 HD
ENDBRANCH  27  33
ENDBRANCH   2  25
TORSDOF 10
ENDMDL
