MODEL 1
REMARK VINA RESULT: -6.079640412      0.000      0.000
REMARK  10 active torsions:
REMARK  status: ('A' for Active; 'I' for Inactive)
REMARK    1  A    between atoms: O1_2  and  C2_3 
REMARK    2  A    between atoms: C2_3  and  C3_4 
REMARK    3  A    between atoms: C3_4  and  O2_5 
REMARK    4  A    between atoms: C3_4  and  S1_7 
REMARK    5  A    between atoms: S1_7  and  C4_8 
REMARK    6  A    between atoms: C4_8  and  C5_9 
REMARK    7  A    between atoms: C7_13  and  N2_14 
REMARK    8  A    between atoms: C8_19  and  N4_20 
REMARK    9  A    between atoms: N6_26  and  C10_27 
REMARK   10  A    between atoms: C10_27  and  C11_28 
ROOT
HETATM    1  C5  UNL     1     -16.447  -7.498   3.128  1.00  0.00     0.088 A 
HETATM    2  N1  UNL     1     -16.932  -7.582   1.914  1.00  0.00    -0.348 N 
ATOM      3  H1  UNL     1     -17.845  -7.195   1.675  1.00  0.00     0.166 HD
HETATM    4  C6  UNL     1     -16.153  -8.212   0.981  1.00  0.00     0.123 A 
HETATM    5  C7  UNL     1     -16.598  -8.292  -0.308  1.00  0.00     0.145 A 
HETATM    6  N3  UNL     1     -15.814  -8.880  -1.244  1.00  0.00    -0.175 N 
ATOM      7  H3  UNL     1     -16.137  -8.941  -2.210  1.00  0.00     0.186 HD
HETATM    8  C8  UNL     1     -14.608  -9.383  -0.908  1.00  0.00     0.679 A 
HETATM    9  N5  UNL     1     -14.162  -9.317   0.330  1.00  0.00    -0.174 N 
ATOM     10  H5  UNL     1     -13.246  -9.707   0.554  1.00  0.00     0.186 HD
HETATM   11  C9  UNL     1     -14.897  -8.740   1.314  1.00  0.00     0.160 A 
HETATM   12  N6  UNL     1     -14.430  -8.639   2.542  1.00  0.00    -0.274 N 
HETATM   13  C16 UNL     1     -15.269  -7.993   3.453  1.00  0.00     0.276 A 
HETATM   14  O3  UNL     1     -14.848  -7.902   4.627  1.00  0.00    -0.265 OA
ENDROOT
BRANCH   1  15
HETATM   15  C4  UNL     1     -17.271  -6.758   4.225  1.00  0.00     0.139 C 
BRANCH  15  16
HETATM   16  S1  UNL     1     -18.236  -8.125   4.824  1.00  0.00    -0.129 SA
BRANCH  16  17
HETATM   17  C3  UNL     1     -17.881  -9.011   6.243  1.00  0.00     0.203 C 
BRANCH  17  18
HETATM   18  C2  UNL     1     -18.202 -10.468   6.258  1.00  0.00     0.209 C 
BRANCH  18  19
HETATM   19  O1  UNL     1     -18.859 -10.834   7.460  1.00  0.00    -0.393 OA
HETATM   20  C1  UNL     1     -18.098 -11.770   8.172  1.00  0.00     0.201 C 
ENDBRANCH  18  19
ENDBRANCH  17  18
BRANCH  17  21
HETATM   21  O2  UNL     1     -16.577  -8.835   6.808  1.00  0.00    -0.383 OA
ATOM     22  H2  UNL     1     -16.357  -7.912   6.761  1.00  0.00     0.211 HD
ENDBRANCH  17  21
ENDBRANCH  16  17
ENDBRANCH  15  16
ENDBRANCH   1  15
BRANCH  12  23
HETATM   23  C10 UNL     1     -13.178  -8.985   3.085  1.00  0.00     0.079 C 
BRANCH  23  24
HETATM   24  C11 UNL     1     -12.806 -10.412   3.143  1.00  0.00     0.025 C 
HETATM   25  C12 UNL     1     -13.956 -11.241   3.771  1.00  0.00     0.010 C 
HETATM   26  C13 UNL     1     -13.266 -12.616   3.791  1.00  0.00     0.001 C 
HETATM   27  C14 UNL     1     -11.925 -12.277   4.419  1.00  0.00     0.001 C 
HETATM   28  C15 UNL     1     -11.745 -10.761   4.212  1.00  0.00     0.010 C 
ENDBRANCH  23  24
ENDBRANCH  12  23
BRANCH   5  29
HETATM   29  N2  UNL     1     -17.752  -7.833  -0.688  1.00  0.00    -0.383 N 
ATOM     30  H22 UNL     1     -18.569  -8.077  -0.127  1.00  0.00     0.157 HD
ATOM     31  H21 UNL     1     -17.872  -7.243  -1.512  1.00  0.00     0.157 HD
ENDBRANCH   5  29
BRANCH   8  32
HETATM   32  N4  UNL     1     -13.882  -9.890  -1.849  1.00  0.00    -0.234 N 
ATOM     33  H42 UNL     1     -13.958 -10.878  -2.095  1.00  0.00     0.174 HD
ATOM     34  H41 UNL     1     -13.206  -9.281  -2.310  1.00  0.00     0.174 HD
ENDBRANCH   8  32
TORSDOF 10
ENDMDL
MODEL 2
REMARK VINA RESULT: -6.069446159      3.371      5.216
REMARK  10 active torsions:
REMARK  status: ('A' for Active; 'I' for Inactive)
REMARK    1  A    between atoms: O1_2  and  C2_3 
REMARK    2  A    between atoms: C2_3  and  C3_4 
REMARK    3  A    between atoms: C3_4  and  O2_5 
REMARK    4  A    between atoms: C3_4  and  S1_7 
REMARK    5  A    between atoms: S1_7  and  C4_8 
REMARK    6  A    between atoms: C4_8  and  C5_9 
REMARK    7  A    between atoms: C7_13  and  N2_14 
REMARK    8  A    between atoms: C8_19  and  N4_20 
REMARK    9  A    between atoms: N6_26  and  C10_27 
REMARK   10  A    between atoms: C10_27  and  C11_28 
ROOT
HETATM    1  C5  UNL     1     -14.295  -8.048   3.963  1.00  0.00     0.088 A 
HETATM    2  N1  UNL     1     -15.470  -8.070   4.542  1.00  0.00    -0.348 N 
ATOM      3  H1  UNL     1     -16.188  -7.381   4.319  1.00  0.00     0.166 HD
HETATM    4  C6  UNL     1     -15.686  -9.061   5.461  1.00  0.00     0.123 A 
HETATM    5  C7  UNL     1     -16.908  -9.148   6.065  1.00  0.00     0.145 A 
HETATM    6  N3  UNL     1     -17.141 -10.152   6.946  1.00  0.00    -0.175 N 
ATOM      7  H3  UNL     1     -18.052 -10.227   7.400  1.00  0.00     0.186 HD
HETATM    8  C8  UNL     1     -16.177 -11.054   7.226  1.00  0.00     0.679 A 
HETATM    9  N5  UNL     1     -14.991 -10.985   6.655  1.00  0.00    -0.174 N 
ATOM     10  H5  UNL     1     -14.282 -11.681   6.887  1.00  0.00     0.186 HD
HETATM   11  C9  UNL     1     -14.694 -10.006   5.763  1.00  0.00     0.160 A 
HETATM   12  N6  UNL     1     -13.523  -9.965   5.163  1.00  0.00    -0.274 N 
HETATM   13  C16 UNL     1     -13.354  -8.930   4.241  1.00  0.00     0.276 A 
HETATM   14  O3  UNL     1     -12.242  -8.867   3.673  1.00  0.00    -0.265 OA
ENDROOT
BRANCH   1  15
HETATM   15  C4  UNL     1     -14.003  -6.965   2.880  1.00  0.00     0.139 C 
BRANCH  15  16
HETATM   16  S1  UNL     1     -15.582  -6.149   2.864  1.00  0.00    -0.129 SA
BRANCH  16  17
HETATM   17  C3  UNL     1     -16.785  -6.394   1.674  1.00  0.00     0.203 C 
BRANCH  17  18
HETATM   18  C2  UNL     1     -17.934  -7.283   2.012  1.00  0.00     0.209 C 
BRANCH  18  19
HETATM   19  O1  UNL     1     -18.617  -6.819   3.165  1.00  0.00    -0.393 OA
HETATM   20  C1  UNL     1     -19.962  -7.206   3.130  1.00  0.00     0.201 C 
ENDBRANCH  18  19
ENDBRANCH  17  18
BRANCH  17  21
HETATM   21  O2  UNL     1     -17.300  -5.226   1.023  1.00  0.00    -0.383 OA
ATOM     22  H2  UNL     1     -17.016  -5.243   0.117  1.00  0.00     0.211 HD
ENDBRANCH  17  21
ENDBRANCH  16  17
ENDBRANCH  15  16
ENDBRANCH   1  15
BRANCH  12  23
HETATM   23  C10 UNL     1     -12.427 -10.849   5.215  1.00  0.00     0.079 C 
BRANCH  23  24
HETATM   24  C11 UNL     1     -12.529 -12.140   4.506  1.00  0.00     0.025 C 
HETATM   25  C12 UNL     1     -13.811 -12.173   3.635  1.00  0.00     0.010 C 
HETATM   26  C13 UNL     1     -13.702 -13.617   3.118  1.00  0.00     0.001 C 
HETATM   27  C14 UNL     1     -13.443 -14.384   4.404  1.00  0.00     0.001 C 
HETATM   28  C15 UNL     1     -12.906 -13.341   5.403  1.00  0.00     0.010 C 
ENDBRANCH  23  24
ENDBRANCH  12  23
BRANCH   5  29
HETATM   29  N2  UNL     1     -17.870  -8.306   5.841  1.00  0.00    -0.383 N 
ATOM     30  H22 UNL     1     -18.286  -7.835   6.645  1.00  0.00     0.157 HD
ATOM     31  H21 UNL     1     -18.219  -8.096   4.905  1.00  0.00     0.157 HD
ENDBRANCH   5  29
BRANCH   8  32
HETATM   32  N4  UNL     1     -16.468 -12.017   8.037  1.00  0.00    -0.234 N 
ATOM     33  H42 UNL     1     -17.414 -12.397   8.081  1.00  0.00     0.174 HD
ATOM     34  H41 UNL     1     -15.733 -12.357   8.658  1.00  0.00     0.174 HD
ENDBRANCH   8  32
TORSDOF 10
ENDMDL
MODEL 3
REMARK VINA RESULT: -6.023626087      2.743      4.749
REMARK  10 active torsions:
REMARK  status: ('A' for Active; 'I' for Inactive)
REMARK    1  A    between atoms: O1_2  and  C2_3 
REMARK    2  A    between atoms: C2_3  and  C3_4 
REMARK    3  A    between atoms: C3_4  and  O2_5 
REMARK    4  A    between atoms: C3_4  and  S1_7 
REMARK    5  A    between atoms: S1_7  and  C4_8 
REMARK    6  A    between atoms: C4_8  and  C5_9 
REMARK    7  A    between atoms: C7_13  and  N2_14 
REMARK    8  A    between atoms: C8_19  and  N4_20 
REMARK    9  A    between atoms: N6_26  and  C10_27 
REMARK   10  A    between atoms: C10_27  and  C11_28 
ROOT
HETATM    1  C5  UNL     1     -16.803  -8.307   5.213  1.00  0.00     0.088 A 
HETATM    2  N1  UNL     1     -16.522  -9.137   6.187  1.00  0.00    -0.348 N 
ATOM      3  H1  UNL     1     -17.182  -9.316   6.943  1.00  0.00     0.166 HD
HETATM    4  C6  UNL     1     -15.300  -9.753   6.140  1.00  0.00     0.123 A 
HETATM    5  C7  UNL     1     -14.975 -10.654   7.113  1.00  0.00     0.145 A 
HETATM    6  N3  UNL     1     -13.783 -11.297   7.049  1.00  0.00    -0.175 N 
ATOM      7  H3  UNL     1     -13.534 -11.974   7.770  1.00  0.00     0.186 HD
HETATM    8  C8  UNL     1     -12.924 -11.047   6.039  1.00  0.00     0.679 A 
HETATM    9  N5  UNL     1     -13.219 -10.178   5.092  1.00  0.00    -0.174 N 
ATOM     10  H5  UNL     1     -12.549 -10.010   4.341  1.00  0.00     0.186 HD
HETATM   11  C9  UNL     1     -14.396  -9.504   5.096  1.00  0.00     0.160 A 
HETATM   12  N6  UNL     1     -14.705  -8.668   4.126  1.00  0.00    -0.274 N 
HETATM   13  C16 UNL     1     -15.960  -8.064   4.228  1.00  0.00     0.276 A 
HETATM   14  O3  UNL     1     -16.263  -7.255   3.323  1.00  0.00    -0.265 OA
ENDROOT
BRANCH   1  15
HETATM   15  C4  UNL     1     -18.194  -7.605   5.192  1.00  0.00     0.139 C 
BRANCH  15  16
HETATM   16  S1  UNL     1     -19.152  -8.900   4.439  1.00  0.00    -0.129 SA
BRANCH  16  17
HETATM   17  C3  UNL     1     -20.113 -10.019   5.303  1.00  0.00     0.203 C 
BRANCH  17  18
HETATM   18  C2  UNL     1     -19.434 -11.193   5.924  1.00  0.00     0.209 C 
BRANCH  18  19
HETATM   19  O1  UNL     1     -18.832 -10.841   7.159  1.00  0.00    -0.393 OA
HETATM   20  C1  UNL     1     -19.090 -11.818   8.129  1.00  0.00     0.201 C 
ENDBRANCH  18  19
ENDBRANCH  17  18
BRANCH  17  21
HETATM   21  O2  UNL     1     -21.035  -9.481   6.258  1.00  0.00    -0.383 OA
ATOM     22  H2  UNL     1     -21.277  -8.607   5.976  1.00  0.00     0.211 HD
ENDBRANCH  17  21
ENDBRANCH  16  17
ENDBRANCH  15  16
ENDBRANCH   1  15
BRANCH  12  23
HETATM   23  C10 UNL     1     -14.024  -8.343   2.936  1.00  0.00     0.079 C 
BRANCH  23  24
HETATM   24  C11 UNL     1     -13.957  -9.355   1.864  1.00  0.00     0.025 C 
HETATM   25  C12 UNL     1     -14.309  -8.712   0.498  1.00  0.00     0.010 C 
HETATM   26  C13 UNL     1     -14.256  -9.978  -0.374  1.00  0.00     0.001 C 
HETATM   27  C14 UNL     1     -15.106 -10.944   0.436  1.00  0.00     0.001 C 
HETATM   28  C15 UNL     1     -15.115 -10.379   1.869  1.00  0.00     0.010 C 
ENDBRANCH  23  24
ENDBRANCH  12  23
BRANCH   5  29
HETATM   29  N2  UNL     1     -15.757 -10.929   8.112  1.00  0.00    -0.383 N 
ATOM     30  H22 UNL     1     -15.833 -11.905   8.401  1.00  0.00     0.157 HD
ATOM     31  H21 UNL     1     -16.289 -10.218   8.614  1.00  0.00     0.157 HD
ENDBRANCH   5  29
BRANCH   8  32
HETATM   32  N4  UNL     1     -11.823 -11.721   6.002  1.00  0.00    -0.234 N 
ATOM     33  H42 UNL     1     -10.971 -11.312   5.616  1.00  0.00     0.174 HD
ATOM     34  H41 UNL     1     -11.842 -12.686   6.334  1.00  0.00     0.174 HD
ENDBRANCH   8  32
TORSDOF 10
ENDMDL
MODEL 4
REMARK VINA RESULT: -5.986312170      2.661      3.699
REMARK  10 active torsions:
REMARK  status: ('A' for Active; 'I' for Inactive)
REMARK    1  A    between atoms: O1_2  and  C2_3 
REMARK    2  A    between atoms: C2_3  and  C3_4 
REMARK    3  A    between atoms: C3_4  and  O2_5 
REMARK    4  A    between atoms: C3_4  and  S1_7 
REMARK    5  A    between atoms: S1_7  and  C4_8 
REMARK    6  A    between atoms: C4_8  and  C5_9 
REMARK    7  A    between atoms: C7_13  and  N2_14 
REMARK    8  A    between atoms: C8_19  and  N4_20 
REMARK    9  A    between atoms: N6_26  and  C10_27 
REMARK   10  A    between atoms: C10_27  and  C11_28 
ROOT
HETATM    1  C5  UNL     1     -14.381  -8.341   1.975  1.00  0.00     0.088 A 
HETATM    2  N1  UNL     1     -14.274  -8.578   0.691  1.00  0.00    -0.348 N 
ATOM      3  H1  UNL     1     -13.994  -7.850   0.034  1.00  0.00     0.166 HD
HETATM    4  C6  UNL     1     -14.557  -9.851   0.273  1.00  0.00     0.123 A 
HETATM    5  C7  UNL     1     -14.424 -10.157  -1.051  1.00  0.00     0.145 A 
HETATM    6  N3  UNL     1     -14.664 -11.426  -1.465  1.00  0.00    -0.175 N 
ATOM      7  H3  UNL     1     -14.564 -11.664  -2.452  1.00  0.00     0.186 HD
HETATM    8  C8  UNL     1     -15.032 -12.375  -0.580  1.00  0.00     0.679 A 
HETATM    9  N5  UNL     1     -15.167 -12.099   0.702  1.00  0.00    -0.174 N 
ATOM     10  H5  UNL     1     -15.447 -12.838   1.347  1.00  0.00     0.186 HD
HETATM   11  C9  UNL     1     -14.940 -10.849   1.180  1.00  0.00     0.160 A 
HETATM   12  N6  UNL     1     -15.035 -10.586   2.468  1.00  0.00    -0.274 N 
HETATM   13  C16 UNL     1     -14.743  -9.271   2.837  1.00  0.00     0.276 A 
HETATM   14  O3  UNL     1     -14.844  -9.000   4.053  1.00  0.00    -0.265 OA
ENDROOT
BRANCH   1  15
HETATM   15  C4  UNL     1     -14.036  -6.920   2.515  1.00  0.00     0.139 C 
BRANCH  15  16
HETATM   16  S1  UNL     1     -15.683  -6.276   2.690  1.00  0.00    -0.129 SA
BRANCH  16  17
HETATM   17  C3  UNL     1     -16.914  -6.434   1.513  1.00  0.00     0.203 C 
BRANCH  17  18
HETATM   18  C2  UNL     1     -18.095  -7.282   1.845  1.00  0.00     0.209 C 
BRANCH  18  19
HETATM   19  O1  UNL     1     -18.758  -6.804   3.004  1.00  0.00    -0.393 OA
HETATM   20  C1  UNL     1     -20.082  -7.257   3.037  1.00  0.00     0.201 C 
ENDBRANCH  18  19
ENDBRANCH  17  18
BRANCH  17  21
HETATM   21  O2  UNL     1     -17.387  -5.227   0.904  1.00  0.00    -0.383 OA
ATOM     22  H2  UNL     1     -16.668  -4.838   0.420  1.00  0.00     0.211 HD
ENDBRANCH  17  21
ENDBRANCH  16  17
ENDBRANCH  15  16
ENDBRANCH   1  15
BRANCH  12  23
HETATM   23  C10 UNL     1     -15.290 -11.431   3.566  1.00  0.00     0.079 C 
BRANCH  23  24
HETATM   24  C11 UNL     1     -14.296 -12.467   3.903  1.00  0.00     0.025 C 
HETATM   25  C12 UNL     1     -14.420 -12.865   5.396  1.00  0.00     0.010 C 
HETATM   26  C13 UNL     1     -13.239 -13.847   5.473  1.00  0.00     0.001 C 
HETATM   27  C14 UNL     1     -12.126 -13.041   4.824  1.00  0.00     0.001 C 
HETATM   28  C15 UNL     1     -12.837 -11.962   3.985  1.00  0.00     0.010 C 
ENDBRANCH  23  24
ENDBRANCH  12  23
BRANCH   5  29
HETATM   29  N2  UNL     1     -14.081  -9.284  -1.949  1.00  0.00    -0.383 N 
ATOM     30  H22 UNL     1     -14.814  -8.907  -2.550  1.00  0.00     0.157 HD
ATOM     31  H21 UNL     1     -13.121  -8.962  -2.072  1.00  0.00     0.157 HD
ENDBRANCH   5  29
BRANCH   8  32
HETATM   32  N4  UNL     1     -15.202 -13.578  -1.021  1.00  0.00    -0.234 N 
ATOM     33  H42 UNL     1     -16.067 -13.847  -1.490  1.00  0.00     0.174 HD
ATOM     34  H41 UNL     1     -14.460 -14.258  -0.851  1.00  0.00     0.174 HD
ENDBRANCH   8  32
TORSDOF 10
ENDMDL
MODEL 5
REMARK VINA RESULT: -5.961553538      1.076      1.376
REMARK  10 active torsions:
REMARK  status: ('A' for Active; 'I' for Inactive)
REMARK    1  A    between atoms: O1_2  and  C2_3 
REMARK    2  A    between atoms: C2_3  and  C3_4 
REMARK    3  A    between atoms: C3_4  and  O2_5 
REMARK    4  A    between atoms: C3_4  and  S1_7 
REMARK    5  A    between atoms: S1_7  and  C4_8 
REMARK    6  A    between atoms: C4_8  and  C5_9 
REMARK    7  A    between atoms: C7_13  and  N2_14 
REMARK    8  A    between atoms: C8_19  and  N4_20 
REMARK    9  A    between atoms: N6_26  and  C10_27 
REMARK   10  A    between atoms: C10_27  and  C11_28 
ROOT
HETATM    1  C5  UNL     1     -16.460  -7.236   3.293  1.00  0.00     0.088 A 
HETATM    2  N1  UNL     1     -16.959  -7.335   2.085  1.00  0.00    -0.348 N 
ATOM      3  H1  UNL     1     -17.859  -6.922   1.844  1.00  0.00     0.166 HD
HETATM    4  C6  UNL     1     -16.213  -8.019   1.163  1.00  0.00     0.123 A 
HETATM    5  C7  UNL     1     -16.674  -8.118  -0.119  1.00  0.00     0.145 A 
HETATM    6  N3  UNL     1     -15.921  -8.760  -1.045  1.00  0.00    -0.175 N 
ATOM      7  H3  UNL     1     -16.256  -8.836  -2.006  1.00  0.00     0.186 HD
HETATM    8  C8  UNL     1     -14.731  -9.298  -0.706  1.00  0.00     0.679 A 
HETATM    9  N5  UNL     1     -14.270  -9.215   0.526  1.00  0.00    -0.174 N 
ATOM     10  H5  UNL     1     -13.367  -9.632   0.752  1.00  0.00     0.186 HD
HETATM   11  C9  UNL     1     -14.974  -8.585   1.500  1.00  0.00     0.160 A 
HETATM   12  N6  UNL     1     -14.492  -8.467   2.720  1.00  0.00    -0.274 N 
HETATM   13  C16 UNL     1     -15.297  -7.766   3.621  1.00  0.00     0.276 A 
HETATM   14  O3  UNL     1     -14.861  -7.658   4.788  1.00  0.00    -0.265 OA
ENDROOT
BRANCH   1  15
HETATM   15  C4  UNL     1     -17.245  -6.437   4.375  1.00  0.00     0.139 C 
BRANCH  15  16
HETATM   16  S1  UNL     1     -18.382  -7.702   4.892  1.00  0.00    -0.129 SA
BRANCH  16  17
HETATM   17  C3  UNL     1     -17.938  -9.103   5.764  1.00  0.00     0.203 C 
BRANCH  17  18
HETATM   18  C2  UNL     1     -17.680 -10.355   4.995  1.00  0.00     0.209 C 
BRANCH  18  19
HETATM   19  O1  UNL     1     -17.932 -10.166   3.612  1.00  0.00    -0.393 OA
HETATM   20  C1  UNL     1     -17.337 -11.185   2.858  1.00  0.00     0.201 C 
ENDBRANCH  18  19
ENDBRANCH  17  18
BRANCH  17  21
HETATM   21  O2  UNL     1     -16.901  -8.958   6.741  1.00  0.00    -0.383 OA
ATOM     22  H2  UNL     1     -17.307  -8.909   7.599  1.00  0.00     0.211 HD
ENDBRANCH  17  21
ENDBRANCH  16  17
ENDBRANCH  15  16
ENDBRANCH   1  15
BRANCH  12  23
HETATM   23  C10 UNL     1     -13.247  -8.845   3.261  1.00  0.00     0.079 C 
BRANCH  23  24
HETATM   24  C11 UNL     1     -12.885 -10.275   3.261  1.00  0.00     0.025 C 
HETATM   25  C12 UNL     1     -13.881 -11.081   4.134  1.00  0.00     0.010 C 
HETATM   26  C13 UNL     1     -13.216 -12.464   4.028  1.00  0.00     0.001 C 
HETATM   27  C14 UNL     1     -11.768 -12.133   4.350  1.00  0.00     0.001 C 
HETATM   28  C15 UNL     1     -11.623 -10.623   4.085  1.00  0.00     0.010 C 
ENDBRANCH  23  24
ENDBRANCH  12  23
BRANCH   5  29
HETATM   29  N2  UNL     1     -17.813  -7.627  -0.501  1.00  0.00    -0.383 N 
ATOM     30  H22 UNL     1     -18.480  -7.356   0.222  1.00  0.00     0.157 HD
ATOM     31  H21 UNL     1     -18.063  -7.500  -1.482  1.00  0.00     0.157 HD
ENDBRANCH   5  29
BRANCH   8  32
HETATM   32  N4  UNL     1     -14.033  -9.857  -1.639  1.00  0.00    -0.234 N 
ATOM     33  H42 UNL     1     -13.877 -10.866  -1.643  1.00  0.00     0.174 HD
ATOM     34  H41 UNL     1     -13.614  -9.254  -2.347  1.00  0.00     0.174 HD
ENDBRANCH   8  32
TORSDOF 10
ENDMDL
