MODEL 1
REMARK VINA RESULT: -4.963124808      0.000      0.000
REMARK  10 active torsions:
REMARK  status: ('A' for Active; 'I' for Inactive)
REMARK    1  A    between atoms: C2_2  and  N1_3 
REMARK    2  A    between atoms: C4_8  and  C5_9 
REMARK    3  A    between atoms: C4_8  and  C6_14 
REMARK    4  A    between atoms: C5_9  and  N2_10 
REMARK    5  A    between atoms: C6_14  and  N3_15 
REMARK    6  A    between atoms: C6_14  and  C7_19 
REMARK    7  A    between atoms: C11_23  and  C12_24 
REMARK    8  A    between atoms: C12_24  and  C13_25 
REMARK    9  A    between atoms: C13_25  and  N4_26 
REMARK   10  A    between atoms: C13_25  and  N5_30 
ROOT
HETATM    1  C6  UNL     1      -2.019  18.262   8.881  1.00  0.00     0.245 C 
ENDROOT
BRANCH   1   2
HETATM    2  C4  UNL     1      -1.600  16.853   8.540  1.00  0.00     0.052 A 
HETATM    3  C2  UNL     1      -0.434  16.222   9.186  1.00  0.00     0.132 A 
HETATM    4  C1  UNL     1       0.354  16.928  10.253  1.00  0.00     0.047 C 
HETATM    5  C3  UNL     1      -0.253  16.765   7.800  1.00  0.00     0.055 A 
BRANCH   3   6
HETATM    6  N1  UNL     1      -0.436  14.771   9.251  1.00  0.00    -0.070 N 
ATOM      7  H13 UNL     1      -0.405  14.382   8.309  1.00  0.00     0.275 HD
ATOM      8  H12 UNL     1       0.457  14.439   9.615  1.00  0.00     0.275 HD
ATOM      9  H11 UNL     1      -1.202  14.349   9.776  1.00  0.00     0.275 HD
ENDBRANCH   3   6
BRANCH   2  10
HETATM   10  C5  UNL     1      -2.720  15.965   8.060  1.00  0.00     0.244 C 
BRANCH  10  11
HETATM   11  N2  UNL     1      -3.263  15.140   9.115  1.00  0.00    -0.078 N 
ATOM     12  H23 UNL     1      -3.159  14.149   8.897  1.00  0.00     0.274 HD
ATOM     13  H22 UNL     1      -2.682  15.185   9.952  1.00  0.00     0.274 HD
ATOM     14  H21 UNL     1      -4.234  15.369   9.329  1.00  0.00     0.274 HD
ENDBRANCH  10  11
ENDBRANCH   2  10
ENDBRANCH   1   2
BRANCH   1  15
HETATM   15  N3  UNL     1      -2.675  18.920   7.774  1.00  0.00    -0.069 N 
ATOM     16  H33 UNL     1      -2.545  18.400   6.906  1.00  0.00     0.275 HD
ATOM     17  H32 UNL     1      -3.689  18.852   7.853  1.00  0.00     0.275 HD
ATOM     18  H31 UNL     1      -2.378  19.891   7.670  1.00  0.00     0.275 HD
ENDBRANCH   1  15
BRANCH   1  19
HETATM   19  C7  UNL     1      -2.985  18.266  10.023  1.00  0.00     0.041 A 
HETATM   20  C8  UNL     1      -4.276  18.706   9.789  1.00  0.00     0.027 A 
HETATM   21  C9  UNL     1      -5.143  18.702  10.854  1.00  0.00     0.004 A 
HETATM   22  C10 UNL     1      -4.774  18.280  12.136  1.00  0.00     0.025 A 
HETATM   23  C11 UNL     1      -3.478  17.853  12.312  1.00  0.00     0.013 A 
HETATM   24  N6  UNL     1      -2.627  17.861  11.253  1.00  0.00    -0.361 N 
ATOM     25  H6  UNL     1      -1.669  17.544  11.400  1.00  0.00     0.165 HD
BRANCH  23  26
HETATM   26  C12 UNL     1      -3.002  17.401  13.629  1.00  0.00     0.119 C 
BRANCH  26  27
HETATM   27  C13 UNL     1      -2.173  18.387  14.375  1.00  0.00     0.383 C 
BRANCH  27  28
HETATM   28  N4  UNL     1      -2.656  18.468  15.766  1.00  0.00    -0.050 N 
ATOM     29  H43 UNL     1      -3.274  17.693  16.007  1.00  0.00     0.276 HD
ATOM     30  H42 UNL     1      -1.919  18.280  16.445  1.00  0.00     0.276 HD
ATOM     31  H41 UNL     1      -3.098  19.375  15.912  1.00  0.00     0.276 HD
ENDBRANCH  27  28
BRANCH  27  32
HETATM   32  N5  UNL     1      -0.821  17.814  14.522  1.00  0.00    -0.050 N 
ATOM     33  H53 UNL     1      -0.211  18.028  13.734  1.00  0.00     0.276 HD
ATOM     34  H52 UNL     1      -0.270  18.274  15.247  1.00  0.00     0.276 HD
ATOM     35  H51 UNL     1      -0.927  16.812  14.681  1.00  0.00     0.276 HD
ENDBRANCH  27  32
ENDBRANCH  26  27
ENDBRANCH  23  26
ENDBRANCH   1  19
TORSDOF 10
ENDMDL
MODEL 2
REMARK VINA RESULT: -4.960665591      2.074      3.040
REMARK  10 active torsions:
REMARK  status: ('A' for Active; 'I' for Inactive)
REMARK    1  A    between atoms: C2_2  and  N1_3 
REMARK    2  A    between atoms: C4_8  and  C5_9 
REMARK    3  A    between atoms: C4_8  and  C6_14 
REMARK    4  A    between atoms: C5_9  and  N2_10 
REMARK    5  A    between atoms: C6_14  and  N3_15 
REMARK    6  A    between atoms: C6_14  and  C7_19 
REMARK    7  A    between atoms: C11_23  and  C12_24 
REMARK    8  A    between atoms: C12_24  and  C13_25 
REMARK    9  A    between atoms: C13_25  and  N4_26 
REMARK   10  A    between atoms: C13_25  and  N5_30 
ROOT
HETATM    1  C6  UNL     1      -2.544  17.345  10.494  1.00  0.00     0.245 C 
ENDROOT
BRANCH   1   2
HETATM    2  C4  UNL     1      -1.932  16.021  10.108  1.00  0.00     0.052 A 
HETATM    3  C2  UNL     1      -0.600  15.945   9.483  1.00  0.00     0.132 A 
HETATM    4  C1  UNL     1       0.235  17.173   9.254  1.00  0.00     0.047 C 
HETATM    5  C3  UNL     1      -1.797  15.816   8.588  1.00  0.00     0.055 A 
BRANCH   3   6
HETATM    6  N1  UNL     1       0.132  14.703   9.664  1.00  0.00    -0.070 N 
ATOM      7  H13 UNL     1       1.023  14.890  10.124  1.00  0.00     0.275 HD
ATOM      8  H12 UNL     1      -0.325  14.133  10.376  1.00  0.00     0.275 HD
ATOM      9  H11 UNL     1       0.286  14.148   8.822  1.00  0.00     0.275 HD
ENDBRANCH   3   6
BRANCH   2  10
HETATM   10  C5  UNL     1      -2.405  14.848  10.932  1.00  0.00     0.244 C 
BRANCH  10  11
HETATM   11  N2  UNL     1      -3.315  13.993  10.205  1.00  0.00    -0.078 N 
ATOM     12  H23 UNL     1      -4.114  14.521   9.854  1.00  0.00     0.274 HD
ATOM     13  H22 UNL     1      -2.911  13.699   9.316  1.00  0.00     0.274 HD
ATOM     14  H21 UNL     1      -3.618  13.189  10.754  1.00  0.00     0.274 HD
ENDBRANCH  10  11
ENDBRANCH   2  10
ENDBRANCH   1   2
BRANCH   1  15
HETATM   15  N3  UNL     1      -3.964  17.391  10.224  1.00  0.00    -0.069 N 
ATOM     16  H33 UNL     1      -4.284  16.526   9.788  1.00  0.00     0.275 HD
ATOM     17  H32 UNL     1      -4.505  17.348  11.087  1.00  0.00     0.275 HD
ATOM     18  H31 UNL     1      -4.224  18.204   9.665  1.00  0.00     0.275 HD
ENDBRANCH   1  15
BRANCH   1  19
HETATM   19  C7  UNL     1      -2.373  17.601  11.959  1.00  0.00     0.041 A 
HETATM   20  C8  UNL     1      -1.088  17.726  12.458  1.00  0.00     0.027 A 
HETATM   21  C9  UNL     1      -0.958  17.960  13.804  1.00  0.00     0.004 A 
HETATM   22  C10 UNL     1      -2.053  18.072  14.668  1.00  0.00     0.025 A 
HETATM   23  C11 UNL     1      -3.307  17.939  14.118  1.00  0.00     0.013 A 
HETATM   24  N6  UNL     1      -3.427  17.708  12.785  1.00  0.00    -0.361 N 
ATOM     25  H6  UNL     1      -4.363  17.610  12.393  1.00  0.00     0.165 HD
BRANCH  23  26
HETATM   26  C12 UNL     1      -4.515  18.034  14.954  1.00  0.00     0.119 C 
BRANCH  26  27
HETATM   27  C13 UNL     1      -5.761  17.513  14.328  1.00  0.00     0.383 C 
BRANCH  27  28
HETATM   28  N4  UNL     1      -6.493  16.699  15.316  1.00  0.00    -0.050 N 
ATOM     29  H43 UNL     1      -5.952  16.543  16.167  1.00  0.00     0.276 HD
ATOM     30  H42 UNL     1      -7.273  17.206  15.734  1.00  0.00     0.276 HD
ATOM     31  H41 UNL     1      -6.786  15.827  14.877  1.00  0.00     0.276 HD
ENDBRANCH  27  28
BRANCH  27  32
HETATM   32  N5  UNL     1      -6.662  18.660  14.103  1.00  0.00    -0.050 N 
ATOM     33  H53 UNL     1      -6.540  19.401  14.792  1.00  0.00     0.276 HD
ATOM     34  H52 UNL     1      -6.414  19.204  13.276  1.00  0.00     0.276 HD
ATOM     35  H51 UNL     1      -7.616  18.301  14.071  1.00  0.00     0.276 HD
ENDBRANCH  27  32
ENDBRANCH  26  27
ENDBRANCH  23  26
ENDBRANCH   1  19
TORSDOF 10
ENDMDL
MODEL 3
REMARK VINA RESULT: -4.880342492      2.117      3.164
REMARK  10 active torsions:
REMARK  status: ('A' for Active; 'I' for Inactive)
REMARK    1  A    between atoms: C2_2  and  N1_3 
REMARK    2  A    between atoms: C4_8  and  C5_9 
REMARK    3  A    between atoms: C4_8  and  C6_14 
REMARK    4  A    between atoms: C5_9  and  N2_10 
REMARK    5  A    between atoms: C6_14  and  N3_15 
REMARK    6  A    between atoms: C6_14  and  C7_19 
REMARK    7  A    between atoms: C11_23  and  C12_24 
REMARK    8  A    between atoms: C12_24  and  C13_25 
REMARK    9  A    between atoms: C13_25  and  N4_26 
REMARK   10  A    between atoms: C13_25  and  N5_30 
ROOT
HETATM    1  C6  UNL     1      -2.732  15.902   9.510  1.00  0.00     0.245 C 
ENDROOT
BRANCH   1   2
HETATM    2  C4  UNL     1      -1.272  16.061   9.164  1.00  0.00     0.052 A 
HETATM    3  C2  UNL     1      -0.812  17.123   8.252  1.00  0.00     0.132 A 
HETATM    4  C1  UNL     1      -1.763  18.132   7.671  1.00  0.00     0.047 C 
HETATM    5  C3  UNL     1      -0.941  15.736   7.696  1.00  0.00     0.055 A 
BRANCH   3   6
HETATM    6  N1  UNL     1       0.563  17.565   8.412  1.00  0.00    -0.070 N 
ATOM      7  H13 UNL     1       1.200  16.815   8.144  1.00  0.00     0.275 HD
ATOM      8  H12 UNL     1       0.788  18.260   7.700  1.00  0.00     0.275 HD
ATOM      9  H11 UNL     1       0.813  17.919   9.335  1.00  0.00     0.275 HD
ENDBRANCH   3   6
BRANCH   2  10
HETATM   10  C5  UNL     1      -0.319  15.562  10.222  1.00  0.00     0.244 C 
BRANCH  10  11
HETATM   11  N2  UNL     1       0.286  14.298   9.869  1.00  0.00    -0.078 N 
ATOM     12  H23 UNL     1       1.296  14.323  10.008  1.00  0.00     0.274 HD
ATOM     13  H22 UNL     1       0.045  13.574  10.546  1.00  0.00     0.274 HD
ATOM     14  H21 UNL     1       0.053  14.006   8.920  1.00  0.00     0.274 HD
ENDBRANCH  10  11
ENDBRANCH   2  10
ENDBRANCH   1   2
BRANCH   1  15
HETATM   15  N3  UNL     1      -3.108  14.515   9.673  1.00  0.00    -0.069 N 
ATOM     16  H33 UNL     1      -2.355  13.892   9.382  1.00  0.00     0.275 HD
ATOM     17  H32 UNL     1      -3.157  14.260  10.659  1.00  0.00     0.275 HD
ATOM     18  H31 UNL     1      -3.979  14.291   9.191  1.00  0.00     0.275 HD
ENDBRANCH   1  15
BRANCH   1  19
HETATM   19  C7  UNL     1      -3.050  16.592  10.800  1.00  0.00     0.041 A 
HETATM   20  C8  UNL     1      -3.794  15.907  11.745  1.00  0.00     0.027 A 
HETATM   21  C9  UNL     1      -4.073  16.563  12.918  1.00  0.00     0.004 A 
HETATM   22  C10 UNL     1      -3.643  17.868  13.184  1.00  0.00     0.025 A 
HETATM   23  C11 UNL     1      -2.907  18.500  12.209  1.00  0.00     0.013 A 
HETATM   24  N6  UNL     1      -2.636  17.845  11.051  1.00  0.00    -0.361 N 
ATOM     25  H6  UNL     1      -2.091  18.328  10.337  1.00  0.00     0.165 HD
BRANCH  23  26
HETATM   26  C12 UNL     1      -2.422  19.877  12.400  1.00  0.00     0.119 C 
BRANCH  26  27
HETATM   27  C13 UNL     1      -2.755  20.824  11.300  1.00  0.00     0.383 C 
BRANCH  27  28
HETATM   28  N4  UNL     1      -4.163  21.242  11.435  1.00  0.00    -0.050 N 
ATOM     29  H43 UNL     1      -4.626  20.794  12.226  1.00  0.00     0.276 HD
ATOM     30  H42 UNL     1      -4.253  22.209  11.745  1.00  0.00     0.276 HD
ATOM     31  H41 UNL     1      -4.647  21.069  10.554  1.00  0.00     0.276 HD
ENDBRANCH  27  28
BRANCH  27  32
HETATM   32  N5  UNL     1      -2.009  22.074  11.546  1.00  0.00    -0.050 N 
ATOM     33  H53 UNL     1      -1.942  22.308  12.535  1.00  0.00     0.276 HD
ATOM     34  H52 UNL     1      -1.010  21.982  11.362  1.00  0.00     0.276 HD
ATOM     35  H51 UNL     1      -2.448  22.809  10.992  1.00  0.00     0.276 HD
ENDBRANCH  27  32
ENDBRANCH  26  27
ENDBRANCH  23  26
ENDBRANCH   1  19
TORSDOF 10
ENDMDL
MODEL 4
REMARK VINA RESULT: -4.830295402      2.209      3.385
REMARK  10 active torsions:
REMARK  status: ('A' for Active; 'I' for Inactive)
REMARK    1  A    between atoms: C2_2  and  N1_3 
REMARK    2  A    between atoms: C4_8  and  C5_9 
REMARK    3  A    between atoms: C4_8  and  C6_14 
REMARK    4  A    between atoms: C5_9  and  N2_10 
REMARK    5  A    between atoms: C6_14  and  N3_15 
REMARK    6  A    between atoms: C6_14  and  C7_19 
REMARK    7  A    between atoms: C11_23  and  C12_24 
REMARK    8  A    between atoms: C12_24  and  C13_25 
REMARK    9  A    between atoms: C13_25  and  N4_26 
REMARK   10  A    between atoms: C13_25  and  N5_30 
ROOT
HETATM    1  C6  UNL     1      -2.468  15.895   9.886  1.00  0.00     0.245 C 
ENDROOT
BRANCH   1   2
HETATM    2  C4  UNL     1      -1.092  16.060   9.289  1.00  0.00     0.052 A 
HETATM    3  C2  UNL     1      -0.809  17.111   8.295  1.00  0.00     0.132 A 
HETATM    4  C1  UNL     1      -1.856  18.102   7.874  1.00  0.00     0.047 C 
HETATM    5  C3  UNL     1      -1.017  15.714   7.790  1.00  0.00     0.055 A 
BRANCH   3   6
HETATM    6  N1  UNL     1       0.569  17.565   8.207  1.00  0.00    -0.070 N 
ATOM      7  H13 UNL     1       0.683  18.428   8.738  1.00  0.00     0.275 HD
ATOM      8  H12 UNL     1       1.174  16.941   8.739  1.00  0.00     0.275 HD
ATOM      9  H11 UNL     1       0.939  17.687   7.264  1.00  0.00     0.275 HD
ENDBRANCH   3   6
BRANCH   2  10
HETATM   10  C5  UNL     1       0.036  15.586  10.172  1.00  0.00     0.244 C 
BRANCH  10  11
HETATM   11  N2  UNL     1       0.477  14.251   9.837  1.00  0.00    -0.078 N 
ATOM     12  H23 UNL     1       1.016  14.248   8.972  1.00  0.00     0.274 HD
ATOM     13  H22 UNL     1       1.200  13.931  10.482  1.00  0.00     0.274 HD
ATOM     14  H21 UNL     1      -0.294  13.586   9.792  1.00  0.00     0.274 HD
ENDBRANCH  10  11
ENDBRANCH   2  10
ENDBRANCH   1   2
BRANCH   1  15
HETATM   15  N3  UNL     1      -2.704  14.547  10.352  1.00  0.00    -0.069 N 
ATOM     16  H33 UNL     1      -3.645  14.447  10.731  1.00  0.00     0.275 HD
ATOM     17  H32 UNL     1      -2.773  13.894   9.572  1.00  0.00     0.275 HD
ATOM     18  H31 UNL     1      -2.001  14.242  11.026  1.00  0.00     0.275 HD
ENDBRANCH   1  15
BRANCH   1  19
HETATM   19  C7  UNL     1      -2.646  16.799  11.065  1.00  0.00     0.041 A 
HETATM   20  C8  UNL     1      -2.370  16.297  12.325  1.00  0.00     0.027 A 
HETATM   21  C9  UNL     1      -2.544  17.145  13.390  1.00  0.00     0.004 A 
HETATM   22  C10 UNL     1      -2.979  18.468  13.249  1.00  0.00     0.025 A 
HETATM   23  C11 UNL     1      -3.238  18.914  11.974  1.00  0.00     0.013 A 
HETATM   24  N6  UNL     1      -3.065  18.068  10.926  1.00  0.00    -0.361 N 
ATOM     25  H6  UNL     1      -3.263  18.413   9.987  1.00  0.00     0.165 HD
BRANCH  23  26
HETATM   26  C12 UNL     1      -3.709  20.287  11.733  1.00  0.00     0.119 C 
BRANCH  26  27
HETATM   27  C13 UNL     1      -2.977  21.347  12.480  1.00  0.00     0.383 C 
BRANCH  27  28
HETATM   28  N4  UNL     1      -2.022  22.005  11.570  1.00  0.00    -0.050 N 
ATOM     29  H43 UNL     1      -1.120  21.529  11.544  1.00  0.00     0.276 HD
ATOM     30  H42 UNL     1      -2.275  21.886  10.589  1.00  0.00     0.276 HD
ATOM     31  H41 UNL     1      -1.935  22.987  11.833  1.00  0.00     0.276 HD
ENDBRANCH  27  28
BRANCH  27  32
HETATM   32  N5  UNL     1      -3.941  22.422  12.790  1.00  0.00    -0.050 N 
ATOM     33  H53 UNL     1      -3.676  22.969  13.609  1.00  0.00     0.276 HD
ATOM     34  H52 UNL     1      -3.922  23.181  12.110  1.00  0.00     0.276 HD
ATOM     35  H51 UNL     1      -4.862  21.993  12.880  1.00  0.00     0.276 HD
ENDBRANCH  27  32
ENDBRANCH  26  27
ENDBRANCH  23  26
ENDBRANCH   1  19
TORSDOF 10
ENDMDL
MODEL 5
REMARK VINA RESULT: -4.797840102      1.299      2.357
REMARK  10 active torsions:
REMARK  status: ('A' for Active; 'I' for Inactive)
REMARK    1  A    between atoms: C2_2  and  N1_3 
REMARK    2  A    between atoms: C4_8  and  C5_9 
REMARK    3  A    between atoms: C4_8  and  C6_14 
REMARK    4  A    between atoms: C5_9  and  N2_10 
REMARK    5  A    between atoms: C6_14  and  N3_15 
REMARK    6  A    between atoms: C6_14  and  C7_19 
REMARK    7  A    between atoms: C11_23  and  C12_24 
REMARK    8  A    between atoms: C12_24  and  C13_25 
REMARK    9  A    between atoms: C13_25  and  N4_26 
REMARK   10  A    between atoms: C13_25  and  N5_30 
ROOT
HETATM    1  C6  UNL     1      -2.714  15.666   9.452  1.00  0.00     0.245 C 
ENDROOT
BRANCH   1   2
HETATM    2  C4  UNL     1      -1.260  15.968   9.185  1.00  0.00     0.052 A 
HETATM    3  C2  UNL     1      -0.854  17.139   8.388  1.00  0.00     0.132 A 
HETATM    4  C1  UNL     1      -1.862  18.118   7.854  1.00  0.00     0.047 C 
HETATM    5  C3  UNL     1      -0.849  15.801   7.711  1.00  0.00     0.055 A 
BRANCH   3   6
HETATM    6  N1  UNL     1       0.474  17.670   8.645  1.00  0.00    -0.070 N 
ATOM      7  H13 UNL     1       0.508  18.078   9.579  1.00  0.00     0.275 HD
ATOM      8  H12 UNL     1       1.138  16.904   8.755  1.00  0.00     0.275 HD
ATOM      9  H11 UNL     1       0.827  18.340   7.961  1.00  0.00     0.275 HD
ENDBRANCH   3   6
BRANCH   2  10
HETATM   10  C5  UNL     1      -0.309  15.454  10.238  1.00  0.00     0.244 C 
BRANCH  10  11
HETATM   11  N2  UNL     1       0.424  14.288   9.798  1.00  0.00    -0.078 N 
ATOM     12  H23 UNL     1       1.055  14.518   9.031  1.00  0.00     0.274 HD
ATOM     13  H22 UNL     1       1.111  14.003  10.496  1.00  0.00     0.274 HD
ATOM     14  H21 UNL     1      -0.190  13.512   9.550  1.00  0.00     0.274 HD
ENDBRANCH  10  11
ENDBRANCH   2  10
ENDBRANCH   1   2
BRANCH   1  15
HETATM   15  N3  UNL     1      -2.896  14.386  10.100  1.00  0.00    -0.069 N 
ATOM     16  H33 UNL     1      -3.840  14.296  10.478  1.00  0.00     0.275 HD
ATOM     17  H32 UNL     1      -2.921  13.628   9.419  1.00  0.00     0.275 HD
ATOM     18  H31 UNL     1      -2.193  14.214  10.820  1.00  0.00     0.275 HD
ENDBRANCH   1  15
BRANCH   1  19
HETATM   19  C7  UNL     1      -3.313  16.699  10.354  1.00  0.00     0.041 A 
HETATM   20  C8  UNL     1      -4.628  17.074  10.140  1.00  0.00     0.027 A 
HETATM   21  C9  UNL     1      -5.154  18.024  10.979  1.00  0.00     0.004 A 
HETATM   22  C10 UNL     1      -4.424  18.613  12.018  1.00  0.00     0.025 A 
HETATM   23  C11 UNL     1      -3.121  18.202  12.184  1.00  0.00     0.013 A 
HETATM   24  N6  UNL     1      -2.609  17.262  11.349  1.00  0.00    -0.361 N 
ATOM     25  H6  UNL     1      -1.641  16.970  11.485  1.00  0.00     0.165 HD
BRANCH  23  26
HETATM   26  C12 UNL     1      -2.277  18.775  13.246  1.00  0.00     0.119 C 
BRANCH  26  27
HETATM   27  C13 UNL     1      -2.021  17.876  14.405  1.00  0.00     0.383 C 
BRANCH  27  28
HETATM   28  N4  UNL     1      -0.571  17.836  14.672  1.00  0.00    -0.050 N 
ATOM     29  H43 UNL     1      -0.103  18.702  14.402  1.00  0.00     0.276 HD
ATOM     30  H42 UNL     1      -0.359  17.863  15.669  1.00  0.00     0.276 HD
ATOM     31  H41 UNL     1      -0.170  17.019  14.211  1.00  0.00     0.276 HD
ENDBRANCH  27  28
BRANCH  27  32
HETATM   32  N5  UNL     1      -2.566  18.533  15.609  1.00  0.00    -0.050 N 
ATOM     33  H53 UNL     1      -3.129  19.355  15.392  1.00  0.00     0.276 HD
ATOM     34  H52 UNL     1      -3.298  17.986  16.063  1.00  0.00     0.276 HD
ATOM     35  H51 UNL     1      -1.783  18.740  16.228  1.00  0.00     0.276 HD
ENDBRANCH  27  32
ENDBRANCH  26  27
ENDBRANCH  23  26
ENDBRANCH   1  19
TORSDOF 10
ENDMDL
