MODEL 1
REMARK VINA RESULT: -5.484130495      0.000      0.000
REMARK  6 active torsions:
REMARK  status: ('A' for Active; 'I' for Inactive)
REMARK    1  A    between atoms: C2_2  and  C3_3 
REMARK    2  A    between atoms: C3_3  and  C4_4 
REMARK    3  A    between atoms: C4_4  and  C5_5 
REMARK    4  A    between atoms: C4_4  and  N1_8 
REMARK    5  A    between atoms: C5_5  and  O1_6 
REMARK    6  A    between atoms: C8_13  and  N3_14 
REMARK       I    between atoms: N3_14  and  C9_16 
REMARK       I    between atoms: C9_16  and  N4_17 
REMARK       I    between atoms: C9_16  and  N5_21 
ROOT
HETATM    1  N1  UNL     1      -3.867  17.288  13.452  1.00  0.00    -0.320 N 
HETATM    2  C6  UNL     1      -2.534  17.324  13.631  1.00  0.00     0.185 A 
HETATM    3  N2  UNL     1      -2.001  16.440  12.762  1.00  0.00    -0.346 N 
ATOM      4  H2  UNL     1      -1.005  16.244  12.662  1.00  0.00     0.167 HD
HETATM    5  C7  UNL     1      -2.978  15.856  12.049  1.00  0.00     0.122 A 
HETATM    6  C8  UNL     1      -3.002  14.889  11.034  1.00  0.00     0.136 A 
HETATM    7  N6  UNL     1      -4.175  14.503  10.506  1.00  0.00    -0.337 N 
ATOM      8  H6  UNL     1      -4.189  13.798   9.769  1.00  0.00     0.168 HD
HETATM    9  C10 UNL     1      -5.334  15.038  10.942  1.00  0.00     0.183 A 
HETATM   10  N7  UNL     1      -5.303  15.964  11.915  1.00  0.00    -0.336 N 
ATOM     11  H7  UNL     1      -6.185  16.361  12.237  1.00  0.00     0.168 HD
HETATM   12  C11 UNL     1      -4.149  16.396  12.489  1.00  0.00     0.141 A 
ENDROOT
BRANCH   6  13
HETATM   13  N3  UNL     1      -1.850  14.438  10.686  1.00  0.00    -0.325 N 
HETATM   14  C9  UNL     1      -1.016  15.225   9.829  1.00  0.00     0.481 C 
HETATM   15  N4  UNL     1      -1.474  15.262   8.451  1.00  0.00    -0.033 N 
HETATM   16  N5  UNL     1       0.359  14.763   9.815  1.00  0.00    -0.033 N 
ATOM     17  H43 UNL     1      -1.582  14.318   8.081  1.00  0.00     0.278 HD
ATOM     18  H42 UNL     1      -2.443  15.576   8.400  1.00  0.00     0.278 HD
ATOM     19  H41 UNL     1      -0.880  15.823   7.840  1.00  0.00     0.278 HD
ATOM     20  H53 UNL     1       0.741  14.720  10.760  1.00  0.00     0.278 HD
ATOM     21  H52 UNL     1       0.412  13.774   9.572  1.00  0.00     0.278 HD
ATOM     22  H51 UNL     1       0.953  15.324   9.204  1.00  0.00     0.278 HD
ATOM     23  H3  UNL     1      -1.532  13.527  11.018  1.00  0.00     0.165 HD
ENDBRANCH   6  13
BRANCH   1  24
HETATM   24  C4  UNL     1      -4.861  18.061  14.155  1.00  0.00     0.119 C 
BRANCH  24  25
HETATM   25  C3  UNL     1      -5.428  17.350  15.355  1.00  0.00     0.054 C 
BRANCH  25  26
HETATM   26  C2  UNL     1      -6.857  17.007  15.043  1.00  0.00    -0.035 C 
HETATM   27  C1  UNL     1      -7.649  17.875  14.433  1.00  0.00     0.007 C 
ENDBRANCH  25  26
ENDBRANCH  24  25
BRANCH  24  28
HETATM   28  C5  UNL     1      -4.250  19.396  14.525  1.00  0.00     0.190 C 
BRANCH  28  29
HETATM   29  O1  UNL     1      -4.190  19.552  15.893  1.00  0.00    -0.399 OA
ATOM     30  H1  UNL     1      -3.660  20.304  16.128  1.00  0.00     0.209 HD
ENDBRANCH  28  29
ENDBRANCH  24  28
ENDBRANCH   1  24
TORSDOF 6
ENDMDL
MODEL 2
REMARK VINA RESULT: -5.438630349      2.689      6.226
REMARK  6 active torsions:
REMARK  status: ('A' for Active; 'I' for Inactive)
REMARK    1  A    between atoms: C2_2  and  C3_3 
REMARK    2  A    between atoms: C3_3  and  C4_4 
REMARK    3  A    between atoms: C4_4  and  C5_5 
REMARK    4  A    between atoms: C4_4  and  N1_8 
REMARK    5  A    between atoms: C5_5  and  O1_6 
REMARK    6  A    between atoms: C8_13  and  N3_14 
REMARK       I    between atoms: N3_14  and  C9_16 
REMARK       I    between atoms: C9_16  and  N4_17 
REMARK       I    between atoms: C9_16  and  N5_21 
ROOT
HETATM    1  N1  UNL     1      -3.021  16.981  12.361  1.00  0.00    -0.320 N 
HETATM    2  C6  UNL     1      -2.276  18.068  12.633  1.00  0.00     0.185 A 
HETATM    3  N2  UNL     1      -2.994  18.828  13.486  1.00  0.00    -0.346 N 
ATOM      4  H2  UNL     1      -2.689  19.720  13.874  1.00  0.00     0.167 HD
HETATM    5  C7  UNL     1      -4.170  18.233  13.747  1.00  0.00     0.122 A 
HETATM    6  C8  UNL     1      -5.275  18.563  14.543  1.00  0.00     0.136 A 
HETATM    7  N6  UNL     1      -6.331  17.735  14.598  1.00  0.00    -0.337 N 
ATOM      8  H6  UNL     1      -7.135  17.979  15.176  1.00  0.00     0.168 HD
HETATM    9  C10 UNL     1      -6.339  16.585  13.893  1.00  0.00     0.183 A 
HETATM   10  N7  UNL     1      -5.276  16.275  13.133  1.00  0.00    -0.336 N 
ATOM     11  H7  UNL     1      -5.293  15.404  12.604  1.00  0.00     0.168 HD
HETATM   12  C11 UNL     1      -4.179  17.071  13.036  1.00  0.00     0.141 A 
ENDROOT
BRANCH   6  13
HETATM   13  N3  UNL     1      -5.176  19.677  15.176  1.00  0.00    -0.325 N 
HETATM   14  C9  UNL     1      -6.037  20.765  14.824  1.00  0.00     0.481 C 
HETATM   15  N4  UNL     1      -5.689  21.395  13.562  1.00  0.00    -0.033 N 
HETATM   16  N5  UNL     1      -6.057  21.807  15.835  1.00  0.00    -0.033 N 
ATOM     17  H43 UNL     1      -4.713  21.693  13.563  1.00  0.00     0.278 HD
ATOM     18  H42 UNL     1      -5.655  20.704  12.812  1.00  0.00     0.278 HD
ATOM     19  H41 UNL     1      -6.303  22.170  13.311  1.00  0.00     0.278 HD
ATOM     20  H53 UNL     1      -6.301  21.427  16.749  1.00  0.00     0.278 HD
ATOM     21  H52 UNL     1      -5.114  22.136  16.041  1.00  0.00     0.278 HD
ATOM     22  H51 UNL     1      -6.670  22.582  15.584  1.00  0.00     0.278 HD
ATOM     23  H3  UNL     1      -4.489  19.786  15.923  1.00  0.00     0.165 HD
ENDBRANCH   6  13
BRANCH   1  24
HETATM   24  C4  UNL     1      -2.673  15.880  11.496  1.00  0.00     0.119 C 
BRANCH  24  25
HETATM   25  C3  UNL     1      -1.580  16.218  10.516  1.00  0.00     0.054 C 
BRANCH  25  26
HETATM   26  C2  UNL     1      -0.841  14.947  10.207  1.00  0.00    -0.035 C 
HETATM   27  C1  UNL     1       0.414  14.972   9.787  1.00  0.00     0.007 C 
ENDBRANCH  25  26
ENDBRANCH  24  25
BRANCH  24  28
HETATM   28  C5  UNL     1      -2.310  14.693  12.361  1.00  0.00     0.190 C 
BRANCH  28  29
HETATM   29  O1  UNL     1      -3.378  13.832  12.493  1.00  0.00    -0.399 OA
ATOM     30  H1  UNL     1      -3.095  12.982  12.812  1.00  0.00     0.209 HD
ENDBRANCH  28  29
ENDBRANCH  24  28
ENDBRANCH   1  24
TORSDOF 6
ENDMDL
MODEL 3
REMARK VINA RESULT: -5.438547798      1.712      2.607
REMARK  6 active torsions:
REMARK  status: ('A' for Active; 'I' for Inactive)
REMARK    1  A    between atoms: C2_2  and  C3_3 
REMARK    2  A    between atoms: C3_3  and  C4_4 
REMARK    3  A    between atoms: C4_4  and  C5_5 
REMARK    4  A    between atoms: C4_4  and  N1_8 
REMARK    5  A    between atoms: C5_5  and  O1_6 
REMARK    6  A    between atoms: C8_13  and  N3_14 
REMARK       I    between atoms: N3_14  and  C9_16 
REMARK       I    between atoms: C9_16  and  N4_17 
REMARK       I    between atoms: C9_16  and  N5_21 
ROOT
HETATM    1  N1  UNL     1      -2.486  18.442  13.266  1.00  0.00    -0.320 N 
HETATM    2  C6  UNL     1      -1.214  18.350  12.835  1.00  0.00     0.185 A 
HETATM    3  N2  UNL     1      -1.126  17.205  12.127  1.00  0.00    -0.346 N 
ATOM      4  H2  UNL     1      -0.280  16.861  11.672  1.00  0.00     0.167 HD
HETATM    5  C7  UNL     1      -2.318  16.586  12.110  1.00  0.00     0.122 A 
HETATM    6  C8  UNL     1      -2.792  15.396  11.540  1.00  0.00     0.136 A 
HETATM    7  N6  UNL     1      -4.077  15.041  11.707  1.00  0.00    -0.337 N 
ATOM      8  H6  UNL     1      -4.419  14.174  11.293  1.00  0.00     0.168 HD
HETATM    9  C10 UNL     1      -4.918  15.819  12.418  1.00  0.00     0.183 A 
HETATM   10  N7  UNL     1      -4.456  16.958  12.961  1.00  0.00    -0.336 N 
ATOM     11  H7  UNL     1      -5.101  17.538  13.497  1.00  0.00     0.168 HD
HETATM   12  C11 UNL     1      -3.169  17.372  12.828  1.00  0.00     0.141 A 
ENDROOT
BRANCH   6  13
HETATM   13  N3  UNL     1      -1.918  14.722  10.882  1.00  0.00    -0.325 N 
HETATM   14  C9  UNL     1      -1.334  15.289   9.705  1.00  0.00     0.481 C 
HETATM   15  N4  UNL     1      -2.236  15.322   8.568  1.00  0.00    -0.033 N 
HETATM   16  N5  UNL     1      -0.136  14.585   9.285  1.00  0.00    -0.033 N 
ATOM     17  H43 UNL     1      -2.608  14.392   8.374  1.00  0.00     0.278 HD
ATOM     18  H42 UNL     1      -3.103  15.804   8.809  1.00  0.00     0.278 HD
ATOM     19  H41 UNL     1      -1.820  15.727   7.729  1.00  0.00     0.278 HD
ATOM     20  H53 UNL     1       0.544  14.532  10.044  1.00  0.00     0.278 HD
ATOM     21  H52 UNL     1      -0.321  13.589   9.161  1.00  0.00     0.278 HD
ATOM     22  H51 UNL     1       0.280  14.989   8.446  1.00  0.00     0.278 HD
ATOM     23  H3  UNL     1      -1.643  13.791  11.196  1.00  0.00     0.165 HD
ENDBRANCH   6  13
BRANCH   1  24
HETATM   24  C4  UNL     1      -3.060  19.498  14.064  1.00  0.00     0.119 C 
BRANCH  24  25
HETATM   25  C3  UNL     1      -4.071  20.326  13.315  1.00  0.00     0.054 C 
BRANCH  25  26
HETATM   26  C2  UNL     1      -3.374  21.570  12.841  1.00  0.00    -0.035 C 
HETATM   27  C1  UNL     1      -2.797  21.617  11.651  1.00  0.00     0.007 C 
ENDBRANCH  25  26
ENDBRANCH  24  25
BRANCH  24  28
HETATM   28  C5  UNL     1      -3.648  18.881  15.314  1.00  0.00     0.190 C 
BRANCH  28  29
HETATM   29  O1  UNL     1      -2.657  18.439  16.163  1.00  0.00    -0.399 OA
ATOM     30  H1  UNL     1      -1.876  18.195  15.679  1.00  0.00     0.209 HD
ENDBRANCH  28  29
ENDBRANCH  24  28
ENDBRANCH   1  24
TORSDOF 6
ENDMDL
MODEL 4
REMARK VINA RESULT: -5.412106243      1.879      3.648
REMARK  6 active torsions:
REMARK  status: ('A' for Active; 'I' for Inactive)
REMARK    1  A    between atoms: C2_2  and  C3_3 
REMARK    2  A    between atoms: C3_3  and  C4_4 
REMARK    3  A    between atoms: C4_4  and  C5_5 
REMARK    4  A    between atoms: C4_4  and  N1_8 
REMARK    5  A    between atoms: C5_5  and  O1_6 
REMARK    6  A    between atoms: C8_13  and  N3_14 
REMARK       I    between atoms: N3_14  and  C9_16 
REMARK       I    between atoms: C9_16  and  N4_17 
REMARK       I    between atoms: C9_16  and  N5_21 
ROOT
HETATM    1  N1  UNL     1      -2.765  17.781  12.882  1.00  0.00    -0.320 N 
HETATM    2  C6  UNL     1      -3.938  17.291  13.324  1.00  0.00     0.185 A 
HETATM    3  N2  UNL     1      -4.122  16.106  12.704  1.00  0.00    -0.346 N 
ATOM      4  H2  UNL     1      -4.927  15.495  12.836  1.00  0.00     0.167 HD
HETATM    5  C7  UNL     1      -3.086  15.854  11.887  1.00  0.00     0.122 A 
HETATM    6  C8  UNL     1      -2.758  14.799  11.023  1.00  0.00     0.136 A 
HETATM    7  N6  UNL     1      -1.614  14.841  10.321  1.00  0.00    -0.337 N 
ATOM      8  H6  UNL     1      -1.378  14.073   9.693  1.00  0.00     0.168 HD
HETATM    9  C10 UNL     1      -0.773  15.889  10.440  1.00  0.00     0.183 A 
HETATM   10  N7  UNL     1      -1.094  16.895  11.270  1.00  0.00    -0.336 N 
ATOM     11  H7  UNL     1      -0.451  17.683  11.351  1.00  0.00     0.168 HD
HETATM   12  C11 UNL     1      -2.236  16.912  12.006  1.00  0.00     0.141 A 
ENDROOT
BRANCH   6  13
HETATM   13  N3  UNL     1      -3.620  13.847  10.977  1.00  0.00    -0.325 N 
HETATM   14  C9  UNL     1      -4.463  13.716   9.828  1.00  0.00     0.481 C 
HETATM   15  N4  UNL     1      -5.503  14.727   9.754  1.00  0.00    -0.033 N 
HETATM   16  N5  UNL     1      -5.114  12.421   9.761  1.00  0.00    -0.033 N 
ATOM     17  H43 UNL     1      -6.059  14.737  10.609  1.00  0.00     0.278 HD
ATOM     18  H42 UNL     1      -5.100  15.663   9.802  1.00  0.00     0.278 HD
ATOM     19  H41 UNL     1      -6.104  14.634   8.935  1.00  0.00     0.278 HD
ATOM     20  H53 UNL     1      -4.431  11.664   9.803  1.00  0.00     0.278 HD
ATOM     21  H52 UNL     1      -5.629  12.225  10.619  1.00  0.00     0.278 HD
ATOM     22  H51 UNL     1      -5.715  12.328   8.942  1.00  0.00     0.278 HD
ATOM     23  H3  UNL     1      -3.702  13.189  11.753  1.00  0.00     0.165 HD
ENDBRANCH   6  13
BRANCH   1  24
HETATM   24  C4  UNL     1      -2.143  19.026  13.263  1.00  0.00     0.119 C 
BRANCH  24  25
HETATM   25  C3  UNL     1      -2.281  20.102  12.218  1.00  0.00     0.054 C 
BRANCH  25  26
HETATM   26  C2  UNL     1      -3.040  21.240  12.839  1.00  0.00    -0.035 C 
HETATM   27  C1  UNL     1      -3.668  22.131  12.088  1.00  0.00     0.007 C 
ENDBRANCH  25  26
ENDBRANCH  24  25
BRANCH  24  28
HETATM   28  C5  UNL     1      -2.717  19.455  14.596  1.00  0.00     0.190 C 
BRANCH  28  29
HETATM   29  O1  UNL     1      -1.890  19.083  15.634  1.00  0.00    -0.399 OA
ATOM     30  H1  UNL     1      -1.317  19.798  15.887  1.00  0.00     0.209 HD
ENDBRANCH  28  29
ENDBRANCH  24  28
ENDBRANCH   1  24
TORSDOF 6
ENDMDL
MODEL 5
REMARK VINA RESULT: -5.385641393      1.636      1.933
REMARK  6 active torsions:
REMARK  status: ('A' for Active; 'I' for Inactive)
REMARK    1  A    between atoms: C2_2  and  C3_3 
REMARK    2  A    between atoms: C3_3  and  C4_4 
REMARK    3  A    between atoms: C4_4  and  C5_5 
REMARK    4  A    between atoms: C4_4  and  N1_8 
REMARK    5  A    between atoms: C5_5  and  O1_6 
REMARK    6  A    between atoms: C8_13  and  N3_14 
REMARK       I    between atoms: N3_14  and  C9_16 
REMARK       I    between atoms: C9_16  and  N4_17 
REMARK       I    between atoms: C9_16  and  N5_21 
ROOT
HETATM    1  N1  UNL     1      -2.831  18.372  13.554  1.00  0.00    -0.320 N 
HETATM    2  C6  UNL     1      -1.560  18.354  13.111  1.00  0.00     0.185 A 
HETATM    3  N2  UNL     1      -1.442  17.274  12.312  1.00  0.00    -0.346 N 
ATOM      4  H2  UNL     1      -0.589  16.994  11.827  1.00  0.00     0.167 HD
HETATM    5  C7  UNL     1      -2.614  16.621  12.251  1.00  0.00     0.122 A 
HETATM    6  C8  UNL     1      -3.056  15.467  11.590  1.00  0.00     0.136 A 
HETATM    7  N6  UNL     1      -4.328  15.059  11.733  1.00  0.00    -0.337 N 
ATOM      8  H6  UNL     1      -4.646  14.219  11.252  1.00  0.00     0.168 HD
HETATM    9  C10 UNL     1      -5.187  15.751  12.509  1.00  0.00     0.183 A 
HETATM   10  N7  UNL     1      -4.757  16.856  13.140  1.00  0.00    -0.336 N 
ATOM     11  H7  UNL     1      -5.415  17.371  13.724  1.00  0.00     0.168 HD
HETATM   12  C11 UNL     1      -3.483  17.319  13.035  1.00  0.00     0.141 A 
ENDROOT
BRANCH   6  13
HETATM   13  N3  UNL     1      -2.166  14.876  10.875  1.00  0.00    -0.325 N 
HETATM   14  C9  UNL     1      -1.790  15.439   9.614  1.00  0.00     0.481 C 
HETATM   15  N4  UNL     1      -2.798  15.276   8.582  1.00  0.00    -0.033 N 
HETATM   16  N5  UNL     1      -0.553  14.877   9.102  1.00  0.00    -0.033 N 
ATOM     17  H43 UNL     1      -3.053  14.294   8.476  1.00  0.00     0.278 HD
ATOM     18  H42 UNL     1      -3.695  15.651   8.891  1.00  0.00     0.278 HD
ATOM     19  H41 UNL     1      -2.530  15.678   7.683  1.00  0.00     0.278 HD
ATOM     20  H53 UNL     1       0.200  14.966   9.784  1.00  0.00     0.278 HD
ATOM     21  H52 UNL     1      -0.607  13.860   9.049  1.00  0.00     0.278 HD
ATOM     22  H51 UNL     1      -0.285  15.279   8.203  1.00  0.00     0.278 HD
ATOM     23  H3  UNL     1      -1.732  14.013  11.203  1.00  0.00     0.165 HD
ENDBRANCH   6  13
BRANCH   1  24
HETATM   24  C4  UNL     1      -3.432  19.341  14.438  1.00  0.00     0.119 C 
BRANCH  24  25
HETATM   25  C3  UNL     1      -4.567  20.100  13.803  1.00  0.00     0.054 C 
BRANCH  25  26
HETATM   26  C2  UNL     1      -5.559  20.417  14.886  1.00  0.00    -0.035 C 
HETATM   27  C1  UNL     1      -6.102  21.620  14.981  1.00  0.00     0.007 C 
ENDBRANCH  25  26
ENDBRANCH  24  25
BRANCH  24  28
HETATM   28  C5  UNL     1      -3.862  18.628  15.701  1.00  0.00     0.190 C 
BRANCH  28  29
HETATM   29  O1  UNL     1      -2.772  18.263  16.460  1.00  0.00    -0.399 OA
ATOM     30  H1  UNL     1      -2.392  17.451  16.145  1.00  0.00     0.209 HD
ENDBRANCH  28  29
ENDBRANCH  24  28
ENDBRANCH   1  24
TORSDOF 6
ENDMDL
