MODEL 1
REMARK VINA RESULT: -5.793472542      0.000      0.000
REMARK  5 active torsions:
REMARK  status: ('A' for Active; 'I' for Inactive)
REMARK    1  A    between atoms: C2_3  and  N2_4 
REMARK    2  A    between atoms: N2_4  and  C3_7 
REMARK    3  A    between atoms: C3_7  and  C4_8 
REMARK    4  A    between atoms: C4_8  and  C5_9 
REMARK    5  A    between atoms: C8_12  and  N3_13 
REMARK       I    between atoms: N3_13  and  C9_15 
REMARK       I    between atoms: C9_15  and  N4_16 
REMARK       I    between atoms: C9_15  and  N5_20 
ROOT
HETATM    1  N1  UNL     1      -5.857  15.699  13.511  1.00  0.00    -0.196 NA
HETATM    2  C1  UNL     1      -5.810  16.726  14.009  1.00  0.00     0.086 C 
HETATM    3  C2  UNL     1      -5.767  18.065  14.635  1.00  0.00     0.355 C 
ENDROOT
BRANCH   3   4
HETATM    4  N2  UNL     1      -4.431  18.327  15.106  1.00  0.00    -0.063 N 
ATOM      5  H22 UNL     1      -4.438  18.941  15.921  1.00  0.00     0.278 HD
ATOM      6  H21 UNL     1      -4.018  17.499  15.534  1.00  0.00     0.278 HD
BRANCH   4   7
HETATM    7  C3  UNL     1      -3.595  18.851  14.063  1.00  0.00     0.239 C 
BRANCH   7   8
HETATM    8  C4  UNL     1      -2.194  18.357  14.218  1.00  0.00     0.084 C 
BRANCH   8   9
HETATM    9  C5  UNL     1      -1.768  17.608  12.977  1.00  0.00     0.013 A 
HETATM   10  C6  UNL     1      -2.383  16.516  12.416  1.00  0.00     0.044 A 
HETATM   11  C7  UNL     1      -1.700  16.122  11.279  1.00  0.00     0.054 A 
HETATM   12  C8  UNL     1      -1.874  15.116  10.355  1.00  0.00     0.119 A 
HETATM   13  C11 UNL     1      -0.642  17.022  11.170  1.00  0.00     0.120 A 
HETATM   14  N6  UNL     1      -0.981  15.053   9.361  1.00  0.00    -0.338 N 
HETATM   15  C10 UNL     1       0.054  15.903   9.219  1.00  0.00     0.183 A 
ATOM     16  H6  UNL     1      -1.091  14.314   8.666  1.00  0.00     0.168 HD
HETATM   17  N7  UNL     1       0.207  16.874  10.128  1.00  0.00    -0.338 N 
ATOM     18  H7  UNL     1       0.988  17.523  10.032  1.00  0.00     0.168 HD
HETATM   19  N8  UNL     1      -0.714  17.888  12.195  1.00  0.00    -0.345 N 
ATOM     20  H8  UNL     1      -0.059  18.652  12.357  1.00  0.00     0.167 HD
BRANCH  12  21
HETATM   21  N3  UNL     1      -2.856  14.315  10.503  1.00  0.00    -0.326 N 
HETATM   22  C9  UNL     1      -4.096  14.366   9.766  1.00  0.00     0.481 C 
HETATM   23  N4  UNL     1      -5.170  14.541  10.752  1.00  0.00    -0.033 N 
HETATM   24  N5  UNL     1      -4.212  15.437   8.837  1.00  0.00    -0.033 N 
ATOM     25  H43 UNL     1      -5.166  13.829  11.483  1.00  0.00     0.278 HD
ATOM     26  H42 UNL     1      -5.030  15.349  11.359  1.00  0.00     0.278 HD
ATOM     27  H41 UNL     1      -6.046  14.577  10.231  1.00  0.00     0.278 HD
ATOM     28  H53 UNL     1      -4.049  16.327   9.307  1.00  0.00     0.278 HD
ATOM     29  H52 UNL     1      -3.422  15.426   8.191  1.00  0.00     0.278 HD
ATOM     30  H51 UNL     1      -5.088  15.473   8.316  1.00  0.00     0.278 HD
ATOM     31  H3  UNL     1      -2.757  13.578  11.201  1.00  0.00     0.164 HD
ENDBRANCH  12  21
ENDBRANCH   8   9
ENDBRANCH   7   8
ENDBRANCH   4   7
ENDBRANCH   3   4
TORSDOF 5
ENDMDL
MODEL 2
REMARK VINA RESULT: -5.790067886      2.346      5.535
REMARK  5 active torsions:
REMARK  status: ('A' for Active; 'I' for Inactive)
REMARK    1  A    between atoms: C2_3  and  N2_4 
REMARK    2  A    between atoms: N2_4  and  C3_7 
REMARK    3  A    between atoms: C3_7  and  C4_8 
REMARK    4  A    between atoms: C4_8  and  C5_9 
REMARK    5  A    between atoms: C8_12  and  N3_13 
REMARK       I    between atoms: N3_13  and  C9_15 
REMARK       I    between atoms: C9_15  and  N4_16 
REMARK       I    between atoms: C9_15  and  N5_20 
ROOT
HETATM    1  N1  UNL     1      -3.276  13.912  12.387  1.00  0.00    -0.196 NA
HETATM    2  C1  UNL     1      -3.072  14.346  11.351  1.00  0.00     0.086 C 
HETATM    3  C2  UNL     1      -2.828  14.893   9.999  1.00  0.00     0.355 C 
ENDROOT
BRANCH   3   4
HETATM    4  N2  UNL     1      -1.409  15.013   9.783  1.00  0.00    -0.063 N 
ATOM      5  H22 UNL     1      -0.891  14.934  10.659  1.00  0.00     0.278 HD
ATOM      6  H21 UNL     1      -1.035  14.194   9.303  1.00  0.00     0.278 HD
BRANCH   4   7
HETATM    7  C3  UNL     1      -1.079  16.225   9.088  1.00  0.00     0.239 C 
BRANCH   7   8
HETATM    8  C4  UNL     1      -0.101  17.032   9.877  1.00  0.00     0.084 C 
BRANCH   8   9
HETATM    9  C5  UNL     1      -0.777  17.629  11.088  1.00  0.00     0.013 A 
HETATM   10  C6  UNL     1      -1.835  18.505  11.099  1.00  0.00     0.044 A 
HETATM   11  C7  UNL     1      -2.179  18.814  12.403  1.00  0.00     0.054 A 
HETATM   12  C8  UNL     1      -3.138  19.617  12.977  1.00  0.00     0.119 A 
HETATM   13  C11 UNL     1      -1.286  18.088  13.188  1.00  0.00     0.120 A 
HETATM   14  N6  UNL     1      -3.162  19.660  14.315  1.00  0.00    -0.338 N 
HETATM   15  C10 UNL     1      -2.318  18.974  15.109  1.00  0.00     0.183 A 
ATOM     16  H6  UNL     1      -3.864  20.251  14.761  1.00  0.00     0.168 HD
HETATM   17  N7  UNL     1      -1.393  18.199  14.531  1.00  0.00    -0.338 N 
ATOM     18  H7  UNL     1      -0.747  17.675  15.122  1.00  0.00     0.168 HD
HETATM   19  N8  UNL     1      -0.469  17.398  12.373  1.00  0.00    -0.345 N 
ATOM     20  H8  UNL     1       0.281  16.783  12.689  1.00  0.00     0.167 HD
BRANCH  12  21
HETATM   21  N3  UNL     1      -3.929  20.265  12.214  1.00  0.00    -0.326 N 
HETATM   22  C9  UNL     1      -3.724  21.617  11.751  1.00  0.00     0.481 C 
HETATM   23  N4  UNL     1      -4.872  22.405  12.220  1.00  0.00    -0.033 N 
HETATM   24  N5  UNL     1      -2.554  22.261  12.243  1.00  0.00    -0.033 N 
ATOM     25  H43 UNL     1      -5.770  22.014  11.936  1.00  0.00     0.278 HD
ATOM     26  H42 UNL     1      -5.017  22.342  13.228  1.00  0.00     0.278 HD
ATOM     27  H41 UNL     1      -4.727  23.360  11.893  1.00  0.00     0.278 HD
ATOM     28  H53 UNL     1      -2.544  22.236  13.262  1.00  0.00     0.278 HD
ATOM     29  H52 UNL     1      -1.732  21.695  12.039  1.00  0.00     0.278 HD
ATOM     30  H51 UNL     1      -2.410  23.217  11.916  1.00  0.00     0.278 HD
ATOM     31  H3  UNL     1      -4.776  19.788  11.905  1.00  0.00     0.164 HD
ENDBRANCH  12  21
ENDBRANCH   8   9
ENDBRANCH   7   8
ENDBRANCH   4   7
ENDBRANCH   3   4
TORSDOF 5
ENDMDL
MODEL 3
REMARK VINA RESULT: -5.665908686      2.351      5.775
REMARK  5 active torsions:
REMARK  status: ('A' for Active; 'I' for Inactive)
REMARK    1  A    between atoms: C2_3  and  N2_4 
REMARK    2  A    between atoms: N2_4  and  C3_7 
REMARK    3  A    between atoms: C3_7  and  C4_8 
REMARK    4  A    between atoms: C4_8  and  C5_9 
REMARK    5  A    between atoms: C8_12  and  N3_13 
REMARK       I    between atoms: N3_13  and  C9_15 
REMARK       I    between atoms: C9_15  and  N4_16 
REMARK       I    between atoms: C9_15  and  N5_20 
ROOT
HETATM    1  N1  UNL     1      -3.513  13.810  12.365  1.00  0.00    -0.196 NA
HETATM    2  C1  UNL     1      -3.343  14.204  11.307  1.00  0.00     0.086 C 
HETATM    3  C2  UNL     1      -3.142  14.697   9.927  1.00  0.00     0.355 C 
ENDROOT
BRANCH   3   4
HETATM    4  N2  UNL     1      -1.739  14.937   9.707  1.00  0.00    -0.063 N 
ATOM      5  H22 UNL     1      -1.166  14.462  10.405  1.00  0.00     0.278 HD
ATOM      6  H21 UNL     1      -1.405  14.454   8.872  1.00  0.00     0.278 HD
BRANCH   4   7
HETATM    7  C3  UNL     1      -1.442  16.340   9.654  1.00  0.00     0.239 C 
BRANCH   7   8
HETATM    8  C4  UNL     1      -0.669  16.758  10.861  1.00  0.00     0.084 C 
BRANCH   8   9
HETATM    9  C5  UNL     1      -1.584  17.435  11.854  1.00  0.00     0.013 A 
HETATM   10  C6  UNL     1      -1.713  18.784  12.076  1.00  0.00     0.044 A 
HETATM   11  C7  UNL     1      -2.661  19.013  13.057  1.00  0.00     0.054 A 
HETATM   12  C8  UNL     1      -3.173  20.144  13.652  1.00  0.00     0.119 A 
HETATM   13  C11 UNL     1      -3.106  17.745  13.425  1.00  0.00     0.120 A 
HETATM   14  N6  UNL     1      -4.108  19.958  14.591  1.00  0.00    -0.338 N 
HETATM   15  C10 UNL     1      -4.565  18.750  14.974  1.00  0.00     0.183 A 
ATOM     16  H6  UNL     1      -4.499  20.783  15.046  1.00  0.00     0.168 HD
HETATM   17  N7  UNL     1      -4.055  17.662  14.384  1.00  0.00    -0.338 N 
ATOM     18  H7  UNL     1      -4.392  16.742  14.667  1.00  0.00     0.168 HD
HETATM   19  N8  UNL     1      -2.444  16.834  12.690  1.00  0.00    -0.345 N 
ATOM     20  H8  UNL     1      -2.576  15.825  12.760  1.00  0.00     0.167 HD
BRANCH  12  21
HETATM   21  N3  UNL     1      -2.728  21.282  13.284  1.00  0.00    -0.326 N 
HETATM   22  C9  UNL     1      -3.251  22.072  12.195  1.00  0.00     0.481 C 
HETATM   23  N4  UNL     1      -2.150  22.265  11.243  1.00  0.00    -0.033 N 
HETATM   24  N5  UNL     1      -4.324  21.481  11.471  1.00  0.00    -0.033 N 
ATOM     25  H43 UNL     1      -1.316  22.670  11.669  1.00  0.00     0.278 HD
ATOM     26  H42 UNL     1      -1.726  21.389  10.937  1.00  0.00     0.278 HD
ATOM     27  H41 UNL     1      -2.520  22.823  10.474  1.00  0.00     0.278 HD
ATOM     28  H53 UNL     1      -4.050  20.559  11.132  1.00  0.00     0.278 HD
ATOM     29  H52 UNL     1      -5.077  21.224  12.108  1.00  0.00     0.278 HD
ATOM     30  H51 UNL     1      -4.693  22.040  10.702  1.00  0.00     0.278 HD
ATOM     31  H3  UNL     1      -1.937  21.664  13.802  1.00  0.00     0.164 HD
ENDBRANCH  12  21
ENDBRANCH   8   9
ENDBRANCH   7   8
ENDBRANCH   4   7
ENDBRANCH   3   4
TORSDOF 5
ENDMDL
MODEL 4
REMARK VINA RESULT: -5.587244501      1.584      4.911
REMARK  5 active torsions:
REMARK  status: ('A' for Active; 'I' for Inactive)
REMARK    1  A    between atoms: C2_3  and  N2_4 
REMARK    2  A    between atoms: N2_4  and  C3_7 
REMARK    3  A    between atoms: C3_7  and  C4_8 
REMARK    4  A    between atoms: C4_8  and  C5_9 
REMARK    5  A    between atoms: C8_12  and  N3_13 
REMARK       I    between atoms: N3_13  and  C9_15 
REMARK       I    between atoms: C9_15  and  N4_16 
REMARK       I    between atoms: C9_15  and  N5_20 
ROOT
HETATM    1  N1  UNL     1      -3.299  14.068  12.424  1.00  0.00    -0.196 NA
HETATM    2  C1  UNL     1      -2.855  14.459  11.448  1.00  0.00     0.086 C 
HETATM    3  C2  UNL     1      -2.292  14.946  10.170  1.00  0.00     0.355 C 
ENDROOT
BRANCH   3   4
HETATM    4  N2  UNL     1      -0.950  15.419  10.391  1.00  0.00    -0.063 N 
ATOM      5  H22 UNL     1      -0.636  15.219  11.341  1.00  0.00     0.278 HD
ATOM      6  H21 UNL     1      -0.268  14.860   9.877  1.00  0.00     0.278 HD
BRANCH   4   7
HETATM    7  C3  UNL     1      -0.822  16.815  10.080  1.00  0.00     0.239 C 
BRANCH   7   8
HETATM    8  C4  UNL     1      -0.167  17.544  11.207  1.00  0.00     0.084 C 
BRANCH   8   9
HETATM    9  C5  UNL     1      -1.168  17.809  12.306  1.00  0.00     0.013 A 
HETATM   10  C6  UNL     1      -2.523  17.985  12.168  1.00  0.00     0.044 A 
HETATM   11  C7  UNL     1      -3.100  18.193  13.408  1.00  0.00     0.054 A 
HETATM   12  C8  UNL     1      -4.388  18.418  13.841  1.00  0.00     0.119 A 
HETATM   13  C11 UNL     1      -2.039  18.137  14.309  1.00  0.00     0.120 A 
HETATM   14  N6  UNL     1      -4.559  18.576  15.159  1.00  0.00    -0.338 N 
HETATM   15  C10 UNL     1      -3.561  18.527  16.063  1.00  0.00     0.183 A 
ATOM     16  H6  UNL     1      -5.505  18.745  15.501  1.00  0.00     0.168 HD
HETATM   17  N7  UNL     1      -2.316  18.308  15.621  1.00  0.00    -0.338 N 
ATOM     18  H7  UNL     1      -1.552  18.271  16.296  1.00  0.00     0.168 HD
HETATM   19  N8  UNL     1      -0.909  17.908  13.619  1.00  0.00    -0.345 N 
ATOM     20  H8  UNL     1       0.018  17.821  14.036  1.00  0.00     0.167 HD
BRANCH  12  21
HETATM   21  N3  UNL     1      -5.323  18.466  12.975  1.00  0.00    -0.326 N 
HETATM   22  C9  UNL     1      -6.110  17.342  12.529  1.00  0.00     0.481 C 
HETATM   23  N4  UNL     1      -5.906  17.228  11.079  1.00  0.00    -0.033 N 
HETATM   24  N5  UNL     1      -5.755  16.084  13.094  1.00  0.00    -0.033 N 
ATOM     25  H43 UNL     1      -6.116  18.090  10.576  1.00  0.00     0.278 HD
ATOM     26  H42 UNL     1      -4.923  17.161  10.816  1.00  0.00     0.278 HD
ATOM     27  H41 UNL     1      -6.463  16.434  10.764  1.00  0.00     0.278 HD
ATOM     28  H53 UNL     1      -4.764  15.900  12.941  1.00  0.00     0.278 HD
ATOM     29  H52 UNL     1      -5.773  16.141  14.112  1.00  0.00     0.278 HD
ATOM     30  H51 UNL     1      -6.311  15.290  12.779  1.00  0.00     0.278 HD
ATOM     31  H3  UNL     1      -5.533  19.376  12.563  1.00  0.00     0.164 HD
ENDBRANCH  12  21
ENDBRANCH   8   9
ENDBRANCH   7   8
ENDBRANCH   4   7
ENDBRANCH   3   4
TORSDOF 5
ENDMDL
MODEL 5
REMARK VINA RESULT: -5.445495806      2.400      6.029
REMARK  5 active torsions:
REMARK  status: ('A' for Active; 'I' for Inactive)
REMARK    1  A    between atoms: C2_3  and  N2_4 
REMARK    2  A    between atoms: N2_4  and  C3_7 
REMARK    3  A    between atoms: C3_7  and  C4_8 
REMARK    4  A    between atoms: C4_8  and  C5_9 
REMARK    5  A    between atoms: C8_12  and  N3_13 
REMARK       I    between atoms: N3_13  and  C9_15 
REMARK       I    between atoms: C9_15  and  N4_16 
REMARK       I    between atoms: C9_15  and  N5_20 
ROOT
HETATM    1  N1  UNL     1      -3.807  15.998   7.459  1.00  0.00    -0.196 NA
HETATM    2  C1  UNL     1      -2.688  16.010   7.685  1.00  0.00     0.086 C 
HETATM    3  C2  UNL     1      -1.233  16.025   7.950  1.00  0.00     0.355 C 
ENDROOT
BRANCH   3   4
HETATM    4  N2  UNL     1      -0.943  15.161   9.066  1.00  0.00    -0.063 N 
ATOM      5  H22 UNL     1      -1.797  14.877   9.548  1.00  0.00     0.278 HD
ATOM      6  H21 UNL     1      -0.624  14.244   8.754  1.00  0.00     0.278 HD
BRANCH   4   7
HETATM    7  C3  UNL     1      -0.006  15.762   9.972  1.00  0.00     0.239 C 
BRANCH   7   8
HETATM    8  C4  UNL     1      -0.094  17.251   9.906  1.00  0.00     0.084 C 
BRANCH   8   9
HETATM    9  C5  UNL     1      -0.794  17.785  11.132  1.00  0.00     0.013 A 
HETATM   10  C6  UNL     1      -1.882  18.623  11.168  1.00  0.00     0.044 A 
HETATM   11  C7  UNL     1      -2.239  18.877  12.480  1.00  0.00     0.054 A 
HETATM   12  C8  UNL     1      -3.228  19.627  13.076  1.00  0.00     0.119 A 
HETATM   13  C11 UNL     1      -1.323  18.158  13.244  1.00  0.00     0.120 A 
HETATM   14  N6  UNL     1      -3.256  19.627  14.415  1.00  0.00    -0.338 N 
HETATM   15  C10 UNL     1      -2.390  18.945  15.189  1.00  0.00     0.183 A 
ATOM     16  H6  UNL     1      -3.980  20.177  14.877  1.00  0.00     0.168 HD
HETATM   17  N7  UNL     1      -1.436  18.222  14.590  1.00  0.00    -0.338 N 
ATOM     18  H7  UNL     1      -0.774  17.704  15.166  1.00  0.00     0.168 HD
HETATM   19  N8  UNL     1      -0.480  17.524  12.411  1.00  0.00    -0.345 N 
ATOM     20  H8  UNL     1       0.291  16.927  12.709  1.00  0.00     0.167 HD
BRANCH  12  21
HETATM   21  N3  UNL     1      -4.039  20.271  12.331  1.00  0.00    -0.326 N 
HETATM   22  C9  UNL     1      -3.908  21.658  11.955  1.00  0.00     0.481 C 
HETATM   23  N4  UNL     1      -5.113  22.345  12.438  1.00  0.00    -0.033 N 
HETATM   24  N5  UNL     1      -2.793  22.341  12.515  1.00  0.00    -0.033 N 
ATOM     25  H43 UNL     1      -5.979  21.919  12.107  1.00  0.00     0.278 HD
ATOM     26  H42 UNL     1      -5.278  22.213  13.436  1.00  0.00     0.278 HD
ATOM     27  H41 UNL     1      -5.021  23.325  12.171  1.00  0.00     0.278 HD
ATOM     28  H53 UNL     1      -2.804  22.255  13.531  1.00  0.00     0.278 HD
ATOM     29  H52 UNL     1      -1.932  21.839  12.300  1.00  0.00     0.278 HD
ATOM     30  H51 UNL     1      -2.700  23.321  12.248  1.00  0.00     0.278 HD
ATOM     31  H3  UNL     1      -4.847  19.763  11.972  1.00  0.00     0.164 HD
ENDBRANCH  12  21
ENDBRANCH   8   9
ENDBRANCH   7   8
ENDBRANCH   4   7
ENDBRANCH   3   4
TORSDOF 5
ENDMDL
