MODEL 1
REMARK VINA RESULT: -7.395607474      0.000      0.000
REMARK  22 active torsions:
REMARK  status: ('A' for Active; 'I' for Inactive)
REMARK    1  A    between atoms: C3_3  and  N1_4 
REMARK    2  A    between atoms: N1_4  and  C4_5 
REMARK    3  A    between atoms: C4_5  and  C5_6 
REMARK    4  A    between atoms: C5_6  and  C6_7 
REMARK    5  A    between atoms: C6_7  and  C7_8 
REMARK    6  A    between atoms: C7_8  and  C8_9 
REMARK    7  A    between atoms: C8_9  and  C9_10 
REMARK    8  A    between atoms: C9_10  and  N2_12 
REMARK    9  A    between atoms: C9_10  and  C16_27 
REMARK       I    between atoms: N2_12  and  C11_14 
REMARK   10  A    between atoms: C11_14  and  C12_16 
REMARK   11  A    between atoms: C12_16  and  N3_17 
REMARK       I    between atoms: N3_17  and  C13_19 
REMARK       I    between atoms: C13_19  and  N5_23 
REMARK   12  A    between atoms: N5_23  and  C14_25 
REMARK   13  A    between atoms: C16_27  and  O3_29 
REMARK   14  A    between atoms: O3_29  and  C17_30 
REMARK   15  A    between atoms: C20_33  and  O4_34 
REMARK   16  A    between atoms: O4_34  and  C21_35 
REMARK   17  A    between atoms: C21_35  and  C22_37 
REMARK   18  A    between atoms: C22_37  and  C23_38 
REMARK   19  A    between atoms: C23_38  and  O6_39 
REMARK   20  A    between atoms: C23_38  and  C24_41 
REMARK   21  A    between atoms: C24_41  and  N6_42 
REMARK   22  A    between atoms: C24_41  and  C25_46 
ROOT
HETATM    1  C1  UNL     1       4.860   5.425  24.390  1.00  0.00     0.013 C 
HETATM    2  C2  UNL     1       5.848   5.082  25.006  1.00  0.00    -0.089 C 
HETATM    3  C3  UNL     1       6.997   4.652  25.746  1.00  0.00     0.330 C 
ENDROOT
BRANCH   3   4
HETATM    4  N1  UNL     1       8.283   5.130  25.291  1.00  0.00    -0.049 N 
HETATM    5  C19 UNL     1       9.240   4.805  26.324  1.00  0.00     0.271 C 
HETATM    6  C20 UNL     1       9.695   3.367  26.285  1.00  0.00     0.163 C 
HETATM    7  C27 UNL     1      10.391   3.066  24.963  1.00  0.00     0.115 C 
HETATM    8  C28 UNL     1       9.956   3.940  23.861  1.00  0.00     0.270 C 
HETATM    9  F1  UNL     1      11.032   4.777  23.511  1.00  0.00    -0.204 F 
HETATM   10  F2  UNL     1       9.819   3.145  22.703  1.00  0.00    -0.204 F 
HETATM   11  C29 UNL     1       8.686   4.686  23.991  1.00  0.00     0.317 C 
BRANCH   4  12
HETATM   12  C4  UNL     1       8.168   6.584  25.269  1.00  0.00     0.239 C 
BRANCH  12  13
HETATM   13  C5  UNL     1       8.564   7.264  24.023  1.00  0.00     0.028 C 
BRANCH  13  14
HETATM   14  C6  UNL     1       7.598   8.445  23.844  1.00  0.00     0.002 C 
BRANCH  14  15
HETATM   15  C7  UNL     1       8.298   9.730  23.556  1.00  0.00     0.003 C 
BRANCH  15  16
HETATM   16  C8  UNL     1       9.639   9.543  22.901  1.00  0.00     0.041 C 
BRANCH  16  17
HETATM   17  C9  UNL     1      10.294  10.811  22.450  1.00  0.00     0.117 C 
HETATM   18  C10 UNL     1       9.578  11.946  23.202  1.00  0.00     0.049 C 
BRANCH  17  19
HETATM   19  N2  UNL     1      11.701  10.907  22.728  1.00  0.00    -0.341 N 
HETATM   20  C11 UNL     1      12.602   9.854  22.499  1.00  0.00     0.236 C 
HETATM   21  O1  UNL     1      12.140   8.772  22.012  1.00  0.00    -0.272 OA
ATOM     22  H2  UNL     1      12.062  11.781  23.111  1.00  0.00     0.163 HD
BRANCH  20  23
HETATM   23  C12 UNL     1      14.045   9.870  22.764  1.00  0.00     0.240 C 
BRANCH  23  24
HETATM   24  N3  UNL     1      14.446  10.484  24.006  1.00  0.00    -0.218 N 
HETATM   25  C13 UNL     1      15.147   9.850  25.040  1.00  0.00     0.667 C 
HETATM   26  N4  UNL     1      15.511   8.605  24.902  1.00  0.00    -0.235 N 
HETATM   27  N5  UNL     1      15.498  10.524  26.238  1.00  0.00    -0.227 N 
ATOM     28  H42 UNL     1      15.259   8.121  24.040  1.00  0.00     0.174 HD
ATOM     29  H41 UNL     1      16.022   8.144  25.654  1.00  0.00     0.174 HD
ATOM     30  H5  UNL     1      16.325  11.121  26.229  1.00  0.00     0.177 HD
ATOM     31  H3  UNL     1      14.199  11.463  24.143  1.00  0.00     0.178 HD
BRANCH  27  32
HETATM   32  C14 UNL     1      14.755  10.412  27.466  1.00  0.00     0.133 C 
HETATM   33  C15 UNL     1      15.179  11.487  28.436  1.00  0.00     0.027 C 
ENDBRANCH  27  32
ENDBRANCH  23  24
ENDBRANCH  20  23
ENDBRANCH  17  19
BRANCH  17  34
HETATM   34  C16 UNL     1      10.063  11.067  20.997  1.00  0.00     0.287 C 
HETATM   35  O2  UNL     1      10.571  12.026  20.367  1.00  0.00    -0.262 OA
BRANCH  34  36
HETATM   36  O3  UNL     1       9.238  10.208  20.261  1.00  0.00    -0.320 OA
BRANCH  36  37
HETATM   37  C17 UNL     1       9.617   9.582  19.071  1.00  0.00     0.174 C 
HETATM   38  C18 UNL     1       9.890   8.108  19.393  1.00  0.00     0.034 C 
ENDBRANCH  36  37
ENDBRANCH  34  36
ENDBRANCH  17  34
ENDBRANCH  16  17
ENDBRANCH  15  16
ENDBRANCH  14  15
ENDBRANCH  13  14
ENDBRANCH  12  13
ENDBRANCH   4  12
BRANCH   6  39
HETATM   39  O4  UNL     1       8.710   2.413  26.472  1.00  0.00    -0.314 OA
BRANCH  39  40
HETATM   40  C21 UNL     1       8.710   1.328  27.316  1.00  0.00     0.261 C 
HETATM   41  O5  UNL     1       8.780   0.200  26.799  1.00  0.00    -0.265 OA
BRANCH  40  42
HETATM   42  C22 UNL     1       8.623   1.596  28.758  1.00  0.00     0.144 C 
BRANCH  42  43
HETATM   43  C23 UNL     1       7.263   1.985  29.220  1.00  0.00     0.157 C 
BRANCH  43  44
HETATM   44  O6  UNL     1       6.363   1.588  28.205  1.00  0.00    -0.393 OA
ATOM     45  H6  UNL     1       5.718   2.282  28.128  1.00  0.00     0.210 HD
ENDBRANCH  43  44
BRANCH  43  46
HETATM   46  C24 UNL     1       6.795   1.282  30.473  1.00  0.00     0.212 C 
BRANCH  46  47
HETATM   47  N6  UNL     1       5.893   0.196  30.184  1.00  0.00    -0.073 N 
ATOM     48  H63 UNL     1       5.717  -0.368  31.015  1.00  0.00     0.274 HD
ATOM     49  H62 UNL     1       4.947   0.537  30.016  1.00  0.00     0.274 HD
ATOM     50  H61 UNL     1       6.220  -0.382  29.410  1.00  0.00     0.274 HD
ENDBRANCH  46  47
BRANCH  46  51
HETATM   51  C25 UNL     1       6.197   2.266  31.449  1.00  0.00     0.031 C 
HETATM   52  C26 UNL     1       6.200   3.684  30.990  1.00  0.00     0.007 C 
ENDBRANCH  46  51
ENDBRANCH  43  46
ENDBRANCH  42  43
ENDBRANCH  40  42
ENDBRANCH  39  40
ENDBRANCH   6  39
ENDBRANCH   3   4
TORSDOF 22
ENDMDL
MODEL 2
REMARK VINA RESULT: -7.226578035      2.884     10.495
REMARK  22 active torsions:
REMARK  status: ('A' for Active; 'I' for Inactive)
REMARK    1  A    between atoms: C3_3  and  N1_4 
REMARK    2  A    between atoms: N1_4  and  C4_5 
REMARK    3  A    between atoms: C4_5  and  C5_6 
REMARK    4  A    between atoms: C5_6  and  C6_7 
REMARK    5  A    between atoms: C6_7  and  C7_8 
REMARK    6  A    between atoms: C7_8  and  C8_9 
REMARK    7  A    between atoms: C8_9  and  C9_10 
REMARK    8  A    between atoms: C9_10  and  N2_12 
REMARK    9  A    between atoms: C9_10  and  C16_27 
REMARK       I    between atoms: N2_12  and  C11_14 
REMARK   10  A    between atoms: C11_14  and  C12_16 
REMARK   11  A    between atoms: C12_16  and  N3_17 
REMARK       I    between atoms: N3_17  and  C13_19 
REMARK       I    between atoms: C13_19  and  N5_23 
REMARK   12  A    between atoms: N5_23  and  C14_25 
REMARK   13  A    between atoms: C16_27  and  O3_29 
REMARK   14  A    between atoms: O3_29  and  C17_30 
REMARK   15  A    between atoms: C20_33  and  O4_34 
REMARK   16  A    between atoms: O4_34  and  C21_35 
REMARK   17  A    between atoms: C21_35  and  C22_37 
REMARK   18  A    between atoms: C22_37  and  C23_38 
REMARK   19  A    between atoms: C23_38  and  O6_39 
REMARK   20  A    between atoms: C23_38  and  C24_41 
REMARK   21  A    between atoms: C24_41  and  N6_42 
REMARK   22  A    between atoms: C24_41  and  C25_46 
ROOT
HETATM    1  C1  UNL     1       9.879   7.395  29.043  1.00  0.00     0.013 C 
HETATM    2  C2  UNL     1      10.277   6.585  28.231  1.00  0.00    -0.089 C 
HETATM    3  C3  UNL     1      10.773   5.623  27.293  1.00  0.00     0.330 C 
ENDROOT
BRANCH   3   4
HETATM    4  N1  UNL     1       9.846   5.154  26.288  1.00  0.00    -0.049 N 
HETATM    5  C19 UNL     1       9.368   6.322  25.583  1.00  0.00     0.271 C 
HETATM    6  C20 UNL     1      10.335   6.828  24.541  1.00  0.00     0.163 C 
HETATM    7  C27 UNL     1      10.570   5.766  23.474  1.00  0.00     0.115 C 
HETATM    8  C28 UNL     1      10.350   4.392  23.958  1.00  0.00     0.270 C 
HETATM    9  F1  UNL     1       9.206   3.878  23.319  1.00  0.00    -0.204 F 
HETATM   10  F2  UNL     1      11.371   3.576  23.427  1.00  0.00    -0.204 F 
HETATM   11  C29 UNL     1      10.342   4.134  25.413  1.00  0.00     0.317 C 
BRANCH   4  12
HETATM   12  C4  UNL     1       8.711   4.618  27.029  1.00  0.00     0.239 C 
BRANCH  12  13
HETATM   13  C5  UNL     1       8.043   3.434  26.459  1.00  0.00     0.028 C 
BRANCH  13  14
HETATM   14  C6  UNL     1       8.167   2.317  27.507  1.00  0.00     0.002 C 
BRANCH  14  15
HETATM   15  C7  UNL     1       7.900   2.792  28.895  1.00  0.00     0.003 C 
BRANCH  15  16
HETATM   16  C8  UNL     1       6.983   1.884  29.669  1.00  0.00     0.041 C 
BRANCH  16  17
HETATM   17  C9  UNL     1       5.715   2.530  30.134  1.00  0.00     0.117 C 
HETATM   18  C10 UNL     1       6.135   3.584  31.173  1.00  0.00     0.049 C 
BRANCH  17  19
HETATM   19  N2  UNL     1       4.952   3.190  29.111  1.00  0.00    -0.341 N 
HETATM   20  C11 UNL     1       4.449   2.526  27.980  1.00  0.00     0.236 C 
HETATM   21  O1  UNL     1       4.677   1.277  27.873  1.00  0.00    -0.272 OA
ATOM     22  H2  UNL     1       4.768   4.189  29.210  1.00  0.00     0.163 HD
BRANCH  20  23
HETATM   23  C12 UNL     1       3.671   3.128  26.891  1.00  0.00     0.240 C 
BRANCH  23  24
HETATM   24  N3  UNL     1       4.272   4.272  26.252  1.00  0.00    -0.218 N 
HETATM   25  C13 UNL     1       3.670   5.066  25.268  1.00  0.00     0.667 C 
HETATM   26  N4  UNL     1       2.453   4.801  24.883  1.00  0.00    -0.235 N 
HETATM   27  N5  UNL     1       4.335   6.174  24.680  1.00  0.00    -0.227 N 
ATOM     28  H42 UNL     1       1.975   4.005  25.306  1.00  0.00     0.174 HD
ATOM     29  H41 UNL     1       2.014   5.379  24.166  1.00  0.00     0.174 HD
ATOM     30  H5  UNL     1       4.343   7.056  25.191  1.00  0.00     0.177 HD
ATOM     31  H3  UNL     1       5.217   4.525  26.541  1.00  0.00     0.178 HD
BRANCH  27  32
HETATM   32  C14 UNL     1       4.997   6.124  23.402  1.00  0.00     0.133 C 
HETATM   33  C15 UNL     1       6.449   5.758  23.578  1.00  0.00     0.027 C 
ENDBRANCH  27  32
ENDBRANCH  23  24
ENDBRANCH  20  23
ENDBRANCH  17  19
BRANCH  17  34
HETATM   34  C16 UNL     1       4.835   1.564  30.856  1.00  0.00     0.287 C 
HETATM   35  O2  UNL     1       3.708   1.859  31.321  1.00  0.00    -0.262 OA
BRANCH  34  36
HETATM   36  O3  UNL     1       5.258   0.243  31.045  1.00  0.00    -0.320 OA
BRANCH  36  37
HETATM   37  C17 UNL     1       5.335  -0.389  32.289  1.00  0.00     0.174 C 
HETATM   38  C18 UNL     1       6.524   0.220  33.042  1.00  0.00     0.034 C 
ENDBRANCH  36  37
ENDBRANCH  34  36
ENDBRANCH  17  34
ENDBRANCH  16  17
ENDBRANCH  15  16
ENDBRANCH  14  15
ENDBRANCH  13  14
ENDBRANCH  12  13
ENDBRANCH   4  12
BRANCH   6  39
HETATM   39  O4  UNL     1      11.571   7.240  25.008  1.00  0.00    -0.314 OA
BRANCH  39  40
HETATM   40  C21 UNL     1      12.292   8.360  24.668  1.00  0.00     0.261 C 
HETATM   41  O5  UNL     1      12.217   8.754  23.492  1.00  0.00    -0.265 OA
BRANCH  40  42
HETATM   42  C22 UNL     1      13.091   8.992  25.725  1.00  0.00     0.144 C 
BRANCH  42  43
HETATM   43  C23 UNL     1      14.101   9.963  25.223  1.00  0.00     0.157 C 
BRANCH  43  44
HETATM   44  O6  UNL     1      13.389  11.125  24.842  1.00  0.00    -0.393 OA
ATOM     45  H6  UNL     1      13.473  11.741  25.560  1.00  0.00     0.210 HD
ENDBRANCH  43  44
BRANCH  43  46
HETATM   46  C24 UNL     1      15.105  10.425  26.253  1.00  0.00     0.212 C 
BRANCH  46  47
HETATM   47  N6  UNL     1      15.507   9.361  27.138  1.00  0.00    -0.073 N 
ATOM     48  H63 UNL     1      14.903   8.546  27.032  1.00  0.00     0.274 HD
ATOM     49  H62 UNL     1      16.391   8.949  26.841  1.00  0.00     0.274 HD
ATOM     50  H61 UNL     1      15.550   9.663  28.111  1.00  0.00     0.274 HD
ENDBRANCH  46  47
BRANCH  46  51
HETATM   51  C25 UNL     1      14.584  11.622  27.011  1.00  0.00     0.031 C 
HETATM   52  C26 UNL     1      15.308  11.926  28.277  1.00  0.00     0.007 C 
ENDBRANCH  46  51
ENDBRANCH  43  46
ENDBRANCH  42  43
ENDBRANCH  40  42
ENDBRANCH  39  40
ENDBRANCH   6  39
ENDBRANCH   3   4
TORSDOF 22
ENDMDL
MODEL 3
REMARK VINA RESULT: -7.202141855      2.710      4.536
REMARK  22 active torsions:
REMARK  status: ('A' for Active; 'I' for Inactive)
REMARK    1  A    between atoms: C3_3  and  N1_4 
REMARK    2  A    between atoms: N1_4  and  C4_5 
REMARK    3  A    between atoms: C4_5  and  C5_6 
REMARK    4  A    between atoms: C5_6  and  C6_7 
REMARK    5  A    between atoms: C6_7  and  C7_8 
REMARK    6  A    between atoms: C7_8  and  C8_9 
REMARK    7  A    between atoms: C8_9  and  C9_10 
REMARK    8  A    between atoms: C9_10  and  N2_12 
REMARK    9  A    between atoms: C9_10  and  C16_27 
REMARK       I    between atoms: N2_12  and  C11_14 
REMARK   10  A    between atoms: C11_14  and  C12_16 
REMARK   11  A    between atoms: C12_16  and  N3_17 
REMARK       I    between atoms: N3_17  and  C13_19 
REMARK       I    between atoms: C13_19  and  N5_23 
REMARK   12  A    between atoms: N5_23  and  C14_25 
REMARK   13  A    between atoms: C16_27  and  O3_29 
REMARK   14  A    between atoms: O3_29  and  C17_30 
REMARK   15  A    between atoms: C20_33  and  O4_34 
REMARK   16  A    between atoms: O4_34  and  C21_35 
REMARK   17  A    between atoms: C21_35  and  C22_37 
REMARK   18  A    between atoms: C22_37  and  C23_38 
REMARK   19  A    between atoms: C23_38  and  O6_39 
REMARK   20  A    between atoms: C23_38  and  C24_41 
REMARK   21  A    between atoms: C24_41  and  N6_42 
REMARK   22  A    between atoms: C24_41  and  C25_46 
ROOT
HETATM    1  C1  UNL     1       5.300   4.779  25.223  1.00  0.00     0.013 C 
HETATM    2  C2  UNL     1       5.564   4.376  26.337  1.00  0.00    -0.089 C 
HETATM    3  C3  UNL     1       5.845   3.887  27.654  1.00  0.00     0.330 C 
ENDROOT
BRANCH   3   4
HETATM    4  N1  UNL     1       7.237   3.782  28.028  1.00  0.00    -0.049 N 
HETATM    5  C19 UNL     1       7.272   3.569  29.457  1.00  0.00     0.271 C 
HETATM    6  C20 UNL     1       6.996   2.140  29.855  1.00  0.00     0.163 C 
HETATM    7  C27 UNL     1       8.054   1.212  29.271  1.00  0.00     0.115 C 
HETATM    8  C28 UNL     1       8.681   1.738  28.047  1.00  0.00     0.270 C 
HETATM    9  F1  UNL     1      10.022   2.050  28.337  1.00  0.00    -0.204 F 
HETATM   10  F2  UNL     1       8.824   0.669  27.137  1.00  0.00    -0.204 F 
HETATM   11  C29 UNL     1       8.005   2.819  27.298  1.00  0.00     0.317 C 
BRANCH   4  12
HETATM   12  C4  UNL     1       7.803   5.104  27.787  1.00  0.00     0.239 C 
BRANCH  12  13
HETATM   13  C5  UNL     1       9.223   5.294  28.132  1.00  0.00     0.028 C 
BRANCH  13  14
HETATM   14  C6  UNL     1       9.439   6.809  28.270  1.00  0.00     0.002 C 
BRANCH  14  15
HETATM   15  C7  UNL     1      10.235   7.385  27.147  1.00  0.00     0.003 C 
BRANCH  15  16
HETATM   16  C8  UNL     1       9.673   7.061  25.791  1.00  0.00     0.041 C 
BRANCH  16  17
HETATM   17  C9  UNL     1      10.679   6.553  24.805  1.00  0.00     0.117 C 
HETATM   18  C10 UNL     1       9.908   6.331  23.493  1.00  0.00     0.049 C 
BRANCH  17  19
HETATM   19  N2  UNL     1      11.775   7.441  24.536  1.00  0.00    -0.341 N 
HETATM   20  C11 UNL     1      11.610   8.714  23.964  1.00  0.00     0.236 C 
HETATM   21  O1  UNL     1      10.425   9.090  23.685  1.00  0.00    -0.272 OA
ATOM     22  H2  UNL     1      12.719   7.133  24.771  1.00  0.00     0.163 HD
BRANCH  20  23
HETATM   23  C12 UNL     1      12.675   9.673  23.651  1.00  0.00     0.240 C 
BRANCH  23  24
HETATM   24  N3  UNL     1      13.222  10.390  24.776  1.00  0.00    -0.218 N 
HETATM   25  C13 UNL     1      14.539  10.296  25.241  1.00  0.00     0.667 C 
HETATM   26  N4  UNL     1      15.388   9.525  24.618  1.00  0.00    -0.235 N 
HETATM   27  N5  UNL     1      14.998  11.031  26.364  1.00  0.00    -0.227 N 
ATOM     28  H42 UNL     1      15.057   8.997  23.811  1.00  0.00     0.174 HD
ATOM     29  H41 UNL     1      16.348   9.457  24.957  1.00  0.00     0.174 HD
ATOM     30  H5  UNL     1      15.263  12.007  26.225  1.00  0.00     0.177 HD
ATOM     31  H3  UNL     1      12.595  11.019  25.276  1.00  0.00     0.178 HD
BRANCH  27  32
HETATM   32  C14 UNL     1      15.113  10.479  27.689  1.00  0.00     0.133 C 
HETATM   33  C15 UNL     1      15.478  11.558  28.677  1.00  0.00     0.027 C 
ENDBRANCH  27  32
ENDBRANCH  23  24
ENDBRANCH  20  23
ENDBRANCH  17  19
BRANCH  17  34
HETATM   34  C16 UNL     1      11.215   5.217  25.201  1.00  0.00     0.287 C 
HETATM   35  O2  UNL     1      12.153   5.055  26.019  1.00  0.00    -0.262 OA
BRANCH  34  36
HETATM   36  O3  UNL     1      10.664   4.053  24.651  1.00  0.00    -0.320 OA
BRANCH  36  37
HETATM   37  C17 UNL     1      11.396   3.094  23.946  1.00  0.00     0.174 C 
HETATM   38  C18 UNL     1      10.390   2.147  23.280  1.00  0.00     0.034 C 
ENDBRANCH  36  37
ENDBRANCH  34  36
ENDBRANCH  17  34
ENDBRANCH  16  17
ENDBRANCH  15  16
ENDBRANCH  14  15
ENDBRANCH  13  14
ENDBRANCH  12  13
ENDBRANCH   4  12
BRANCH   6  39
HETATM   39  O4  UNL     1       5.754   1.641  29.504  1.00  0.00    -0.314 OA
BRANCH  39  40
HETATM   40  C21 UNL     1       4.661   1.405  30.304  1.00  0.00     0.261 C 
HETATM   41  O5  UNL     1       4.237   2.353  30.987  1.00  0.00    -0.265 OA
BRANCH  40  42
HETATM   42  C22 UNL     1       4.091   0.052  30.284  1.00  0.00     0.144 C 
BRANCH  42  43
HETATM   43  C23 UNL     1       4.660  -0.861  31.313  1.00  0.00     0.157 C 
BRANCH  43  44
HETATM   44  O6  UNL     1       3.826  -2.002  31.346  1.00  0.00    -0.393 OA
ATOM     45  H6  UNL     1       4.388  -2.753  31.201  1.00  0.00     0.210 HD
ENDBRANCH  43  44
BRANCH  43  46
HETATM   46  C24 UNL     1       6.044  -1.382  31.002  1.00  0.00     0.212 C 
BRANCH  46  47
HETATM   47  N6  UNL     1       6.037  -2.783  30.668  1.00  0.00    -0.073 N 
ATOM     48  H63 UNL     1       6.070  -3.362  31.508  1.00  0.00     0.274 HD
ATOM     49  H62 UNL     1       5.128  -3.072  30.308  1.00  0.00     0.274 HD
ATOM     50  H61 UNL     1       6.785  -3.030  30.021  1.00  0.00     0.274 HD
ENDBRANCH  46  47
BRANCH  46  51
HETATM   51  C25 UNL     1       6.998  -1.075  32.130  1.00  0.00     0.031 C 
HETATM   52  C26 UNL     1       6.542  -0.008  33.065  1.00  0.00     0.007 C 
ENDBRANCH  46  51
ENDBRANCH  43  46
ENDBRANCH  42  43
ENDBRANCH  40  42
ENDBRANCH  39  40
ENDBRANCH   6  39
ENDBRANCH   3   4
TORSDOF 22
ENDMDL
MODEL 4
REMARK VINA RESULT: -7.119988461      1.780      2.522
REMARK  22 active torsions:
REMARK  status: ('A' for Active; 'I' for Inactive)
REMARK    1  A    between atoms: C3_3  and  N1_4 
REMARK    2  A    between atoms: N1_4  and  C4_5 
REMARK    3  A    between atoms: C4_5  and  C5_6 
REMARK    4  A    between atoms: C5_6  and  C6_7 
REMARK    5  A    between atoms: C6_7  and  C7_8 
REMARK    6  A    between atoms: C7_8  and  C8_9 
REMARK    7  A    between atoms: C8_9  and  C9_10 
REMARK    8  A    between atoms: C9_10  and  N2_12 
REMARK    9  A    between atoms: C9_10  and  C16_27 
REMARK       I    between atoms: N2_12  and  C11_14 
REMARK   10  A    between atoms: C11_14  and  C12_16 
REMARK   11  A    between atoms: C12_16  and  N3_17 
REMARK       I    between atoms: N3_17  and  C13_19 
REMARK       I    between atoms: C13_19  and  N5_23 
REMARK   12  A    between atoms: N5_23  and  C14_25 
REMARK   13  A    between atoms: C16_27  and  O3_29 
REMARK   14  A    between atoms: O3_29  and  C17_30 
REMARK   15  A    between atoms: C20_33  and  O4_34 
REMARK   16  A    between atoms: O4_34  and  C21_35 
REMARK   17  A    between atoms: C21_35  and  C22_37 
REMARK   18  A    between atoms: C22_37  and  C23_38 
REMARK   19  A    between atoms: C23_38  and  O6_39 
REMARK   20  A    between atoms: C23_38  and  C24_41 
REMARK   21  A    between atoms: C24_41  and  N6_42 
REMARK   22  A    between atoms: C24_41  and  C25_46 
ROOT
HETATM    1  C1  UNL     1      10.116   7.212  29.162  1.00  0.00     0.013 C 
HETATM    2  C2  UNL     1      10.197   6.328  28.333  1.00  0.00    -0.089 C 
HETATM    3  C3  UNL     1      10.300   5.264  27.380  1.00  0.00     0.330 C 
ENDROOT
BRANCH   3   4
HETATM    4  N1  UNL     1       9.715   5.496  26.078  1.00  0.00    -0.049 N 
HETATM    5  C19 UNL     1       9.717   4.227  25.386  1.00  0.00     0.271 C 
HETATM    6  C20 UNL     1       8.584   3.320  25.798  1.00  0.00     0.163 C 
HETATM    7  C27 UNL     1       7.242   3.967  25.477  1.00  0.00     0.115 C 
HETATM    8  C28 UNL     1       7.297   5.438  25.438  1.00  0.00     0.270 C 
HETATM    9  F1  UNL     1       7.099   5.852  24.107  1.00  0.00    -0.204 F 
HETATM   10  F2  UNL     1       6.136   5.933  26.070  1.00  0.00    -0.204 F 
HETATM   11  C29 UNL     1       8.433   6.134  26.078  1.00  0.00     0.317 C 
BRANCH   4  12
HETATM   12  C4  UNL     1      10.662   6.357  25.378  1.00  0.00     0.239 C 
BRANCH  12  13
HETATM   13  C5  UNL     1      10.100   7.508  24.648  1.00  0.00     0.028 C 
BRANCH  13  14
HETATM   14  C6  UNL     1      10.138   7.138  23.157  1.00  0.00     0.002 C 
BRANCH  14  15
HETATM   15  C7  UNL     1       9.210   7.964  22.331  1.00  0.00     0.003 C 
BRANCH  15  16
HETATM   16  C8  UNL     1       9.649   9.396  22.193  1.00  0.00     0.041 C 
BRANCH  16  17
HETATM   17  C9  UNL     1      10.573   9.657  21.044  1.00  0.00     0.117 C 
HETATM   18  C10 UNL     1      10.372  11.135  20.670  1.00  0.00     0.049 C 
BRANCH  17  19
HETATM   19  N2  UNL     1      11.968   9.450  21.321  1.00  0.00    -0.341 N 
HETATM   20  C11 UNL     1      12.608   9.962  22.462  1.00  0.00     0.236 C 
HETATM   21  O1  UNL     1      11.906  10.630  23.288  1.00  0.00    -0.272 OA
ATOM     22  H2  UNL     1      12.519   8.906  20.657  1.00  0.00     0.163 HD
BRANCH  20  23
HETATM   23  C12 UNL     1      14.024   9.803  22.810  1.00  0.00     0.240 C 
BRANCH  23  24
HETATM   24  N3  UNL     1      14.451  10.468  24.016  1.00  0.00    -0.218 N 
HETATM   25  C13 UNL     1      15.085   9.855  25.104  1.00  0.00     0.667 C 
HETATM   26  N4  UNL     1      15.357   8.580  25.056  1.00  0.00    -0.235 N 
HETATM   27  N5  UNL     1      15.466  10.580  26.263  1.00  0.00    -0.227 N 
ATOM     28  H42 UNL     1      15.083   8.059  24.223  1.00  0.00     0.174 HD
ATOM     29  H41 UNL     1      15.819   8.134  25.848  1.00  0.00     0.174 HD
ATOM     30  H5  UNL     1      16.336  11.113  26.232  1.00  0.00     0.177 HD
ATOM     31  H3  UNL     1      14.275  11.469  24.083  1.00  0.00     0.178 HD
BRANCH  27  32
HETATM   32  C14 UNL     1      14.696  10.606  27.479  1.00  0.00     0.133 C 
HETATM   33  C15 UNL     1      15.153  11.740  28.364  1.00  0.00     0.027 C 
ENDBRANCH  27  32
ENDBRANCH  23  24
ENDBRANCH  20  23
ENDBRANCH  17  19
BRANCH  17  34
HETATM   34  C16 UNL     1      10.189   8.867  19.837  1.00  0.00     0.287 C 
HETATM   35  O2  UNL     1      10.738   7.789  19.504  1.00  0.00    -0.262 OA
BRANCH  34  36
HETATM   36  O3  UNL     1       9.162   9.324  19.003  1.00  0.00    -0.320 OA
BRANCH  36  37
HETATM   37  C17 UNL     1       8.360   8.494  18.214  1.00  0.00     0.174 C 
HETATM   38  C18 UNL     1       7.169   8.055  19.074  1.00  0.00     0.034 C 
ENDBRANCH  36  37
ENDBRANCH  34  36
ENDBRANCH  17  34
ENDBRANCH  16  17
ENDBRANCH  15  16
ENDBRANCH  14  15
ENDBRANCH  13  14
ENDBRANCH  12  13
ENDBRANCH   4  12
BRANCH   6  39
HETATM   39  O4  UNL     1       8.563   2.941  27.129  1.00  0.00    -0.314 OA
BRANCH  39  40
HETATM   40  C21 UNL     1       8.438   1.681  27.665  1.00  0.00     0.261 C 
HETATM   41  O5  UNL     1       8.526   0.716  26.886  1.00  0.00    -0.265 OA
BRANCH  40  42
HETATM   42  C22 UNL     1       8.209   1.585  29.113  1.00  0.00     0.144 C 
BRANCH  42  43
HETATM   43  C23 UNL     1       6.783   1.739  29.511  1.00  0.00     0.157 C 
BRANCH  43  44
HETATM   44  O6  UNL     1       6.017   1.609  28.330  1.00  0.00    -0.393 OA
ATOM     45  H6  UNL     1       5.927   2.483  27.969  1.00  0.00     0.210 HD
ENDBRANCH  43  44
BRANCH  43  46
HETATM   46  C24 UNL     1       6.267   0.670  30.446  1.00  0.00     0.212 C 
BRANCH  46  47
HETATM   47  N6  UNL     1       5.039   0.080  29.976  1.00  0.00    -0.073 N 
ATOM     48  H63 UNL     1       5.160  -0.336  29.052  1.00  0.00     0.274 HD
ATOM     49  H62 UNL     1       4.808  -0.761  30.504  1.00  0.00     0.274 HD
ATOM     50  H61 UNL     1       4.265   0.744  29.983  1.00  0.00     0.274 HD
ENDBRANCH  46  47
BRANCH  46  51
HETATM   51  C25 UNL     1       6.135   1.204  31.851  1.00  0.00     0.031 C 
HETATM   52  C26 UNL     1       5.792   2.651  31.941  1.00  0.00     0.007 C 
ENDBRANCH  46  51
ENDBRANCH  43  46
ENDBRANCH  42  43
ENDBRANCH  40  42
ENDBRANCH  39  40
ENDBRANCH   6  39
ENDBRANCH   3   4
TORSDOF 22
ENDMDL
MODEL 5
REMARK VINA RESULT: -7.113449242      1.474      1.952
REMARK  22 active torsions:
REMARK  status: ('A' for Active; 'I' for Inactive)
REMARK    1  A    between atoms: C3_3  and  N1_4 
REMARK    2  A    between atoms: N1_4  and  C4_5 
REMARK    3  A    between atoms: C4_5  and  C5_6 
REMARK    4  A    between atoms: C5_6  and  C6_7 
REMARK    5  A    between atoms: C6_7  and  C7_8 
REMARK    6  A    between atoms: C7_8  and  C8_9 
REMARK    7  A    between atoms: C8_9  and  C9_10 
REMARK    8  A    between atoms: C9_10  and  N2_12 
REMARK    9  A    between atoms: C9_10  and  C16_27 
REMARK       I    between atoms: N2_12  and  C11_14 
REMARK   10  A    between atoms: C11_14  and  C12_16 
REMARK   11  A    between atoms: C12_16  and  N3_17 
REMARK       I    between atoms: N3_17  and  C13_19 
REMARK       I    between atoms: C13_19  and  N5_23 
REMARK   12  A    between atoms: N5_23  and  C14_25 
REMARK   13  A    between atoms: C16_27  and  O3_29 
REMARK   14  A    between atoms: O3_29  and  C17_30 
REMARK   15  A    between atoms: C20_33  and  O4_34 
REMARK   16  A    between atoms: O4_34  and  C21_35 
REMARK   17  A    between atoms: C21_35  and  C22_37 
REMARK   18  A    between atoms: C22_37  and  C23_38 
REMARK   19  A    between atoms: C23_38  and  O6_39 
REMARK   20  A    between atoms: C23_38  and  C24_41 
REMARK   21  A    between atoms: C24_41  and  N6_42 
REMARK   22  A    between atoms: C24_41  and  C25_46 
ROOT
HETATM    1  C1  UNL     1       8.745   7.436  29.189  1.00  0.00     0.013 C 
HETATM    2  C2  UNL     1       8.618   6.792  28.168  1.00  0.00    -0.089 C 
HETATM    3  C3  UNL     1       8.439   6.021  26.974  1.00  0.00     0.330 C 
ENDROOT
BRANCH   3   4
HETATM    4  N1  UNL     1       9.260   6.376  25.839  1.00  0.00    -0.049 N 
HETATM    5  C19 UNL     1      10.634   6.167  26.235  1.00  0.00     0.271 C 
HETATM    6  C20 UNL     1      11.062   4.722  26.166  1.00  0.00     0.163 C 
HETATM    7  C27 UNL     1      10.957   4.204  24.737  1.00  0.00     0.115 C 
HETATM    8  C28 UNL     1       9.962   4.925  23.925  1.00  0.00     0.270 C 
HETATM    9  F1  UNL     1      10.646   5.658  22.938  1.00  0.00    -0.204 F 
HETATM   10  F2  UNL     1       9.263   3.975  23.149  1.00  0.00    -0.204 F 
HETATM   11  C29 UNL     1       8.926   5.731  24.604  1.00  0.00     0.317 C 
BRANCH   4  12
HETATM   12  C4  UNL     1       9.086   7.815  25.672  1.00  0.00     0.239 C 
BRANCH  12  13
HETATM   13  C5  UNL     1       8.666   8.284  24.339  1.00  0.00     0.028 C 
BRANCH  13  14
HETATM   14  C6  UNL     1       9.772   9.228  23.841  1.00  0.00     0.002 C 
BRANCH  14  15
HETATM   15  C7  UNL     1       9.236  10.440  23.157  1.00  0.00     0.003 C 
BRANCH  15  16
HETATM   16  C8  UNL     1       9.499  10.453  21.676  1.00  0.00     0.041 C 
BRANCH  16  17
HETATM   17  C9  UNL     1      10.475  11.494  21.226  1.00  0.00     0.117 C 
HETATM   18  C10 UNL     1       9.922  12.837  21.734  1.00  0.00     0.049 C 
BRANCH  17  19
HETATM   19  N2  UNL     1      11.811  11.341  21.731  1.00  0.00    -0.341 N 
HETATM   20  C11 UNL     1      12.549  10.153  21.599  1.00  0.00     0.236 C 
HETATM   21  O1  UNL     1      12.001   9.176  20.993  1.00  0.00    -0.272 OA
ATOM     22  H2  UNL     1      12.245  12.132  22.207  1.00  0.00     0.163 HD
BRANCH  20  23
HETATM   23  C12 UNL     1      13.910   9.914  22.093  1.00  0.00     0.240 C 
BRANCH  23  24
HETATM   24  N3  UNL     1      14.191  10.409  23.417  1.00  0.00    -0.218 N 
HETATM   25  C13 UNL     1      15.031   9.797  24.356  1.00  0.00     0.667 C 
HETATM   26  N4  UNL     1      15.654   8.695  24.039  1.00  0.00    -0.235 N 
HETATM   27  N5  UNL     1      15.249  10.345  25.646  1.00  0.00    -0.227 N 
ATOM     28  H42 UNL     1      15.497   8.301  23.111  1.00  0.00     0.174 HD
ATOM     29  H41 UNL     1      16.266   8.249  24.723  1.00  0.00     0.174 HD
ATOM     30  H5  UNL     1      15.926  11.103  25.739  1.00  0.00     0.177 HD
ATOM     31  H3  UNL     1      13.740  11.280  23.695  1.00  0.00     0.178 HD
BRANCH  27  32
HETATM   32  C14 UNL     1      14.570   9.894  26.832  1.00  0.00     0.133 C 
HETATM   33  C15 UNL     1      15.281  10.392  28.066  1.00  0.00     0.027 C 
ENDBRANCH  27  32
ENDBRANCH  23  24
ENDBRANCH  20  23
ENDBRANCH  17  19
BRANCH  17  34
HETATM   34  C16 UNL     1      10.521  11.602  19.738  1.00  0.00     0.287 C 
HETATM   35  O2  UNL     1      11.504  12.053  19.101  1.00  0.00    -0.262 OA
BRANCH  34  36
HETATM   36  O3  UNL     1       9.424  11.185  18.974  1.00  0.00    -0.320 OA
BRANCH  36  37
HETATM   37  C17 UNL     1       9.510  10.315  17.884  1.00  0.00     0.174 C 
HETATM   38  C18 UNL     1       9.156   8.911  18.388  1.00  0.00     0.034 C 
ENDBRANCH  36  37
ENDBRANCH  34  36
ENDBRANCH  17  34
ENDBRANCH  16  17
ENDBRANCH  15  16
ENDBRANCH  14  15
ENDBRANCH  13  14
ENDBRANCH  12  13
ENDBRANCH   4  12
BRANCH   6  39
HETATM   39  O4  UNL     1      10.372   3.845  26.986  1.00  0.00    -0.314 OA
BRANCH  39  40
HETATM   40  C21 UNL     1       9.739   2.671  26.653  1.00  0.00     0.261 C 
HETATM   41  O5  UNL     1      10.453   1.688  26.392  1.00  0.00    -0.265 OA
BRANCH  40  42
HETATM   42  C22 UNL     1       8.270   2.681  26.633  1.00  0.00     0.144 C 
BRANCH  42  43
HETATM   43  C23 UNL     1       7.644   1.724  27.585  1.00  0.00     0.157 C 
BRANCH  43  44
HETATM   44  O6  UNL     1       8.239   0.464  27.339  1.00  0.00    -0.393 OA
ATOM     45  H6  UNL     1       8.846   0.308  28.052  1.00  0.00     0.210 HD
ENDBRANCH  43  44
BRANCH  43  46
HETATM   46  C24 UNL     1       7.908   2.016  29.043  1.00  0.00     0.212 C 
BRANCH  46  47
HETATM   47  N6  UNL     1       7.564   0.905  29.894  1.00  0.00    -0.073 N 
ATOM     48  H63 UNL     1       6.574   0.921  30.139  1.00  0.00     0.274 HD
ATOM     49  H62 UNL     1       7.590   0.025  29.379  1.00  0.00     0.274 HD
ATOM     50  H61 UNL     1       8.149   0.861  30.728  1.00  0.00     0.274 HD
ENDBRANCH  46  47
BRANCH  46  51
HETATM   51  C25 UNL     1       7.214   3.287  29.469  1.00  0.00     0.031 C 
HETATM   52  C26 UNL     1       6.451   3.188  30.745  1.00  0.00     0.007 C 
ENDBRANCH  46  51
ENDBRANCH  43  46
ENDBRANCH  42  43
ENDBRANCH  40  42
ENDBRANCH  39  40
ENDBRANCH   6  39
ENDBRANCH   3   4
TORSDOF 22
ENDMDL
