MODEL 1
REMARK VINA RESULT: -7.899145442      0.000      0.000
REMARK  22 active torsions:
REMARK  status: ('A' for Active; 'I' for Inactive)
REMARK    1  A    between atoms: C2_2  and  C3_3 
REMARK    2  A    between atoms: C3_3  and  O1_4 
REMARK    3  A    between atoms: C3_3  and  C4_6 
REMARK    4  A    between atoms: C4_6  and  O2_7 
REMARK    5  A    between atoms: C4_6  and  C5_9 
REMARK    6  A    between atoms: C5_9  and  O3_10 
REMARK    7  A    between atoms: C5_9  and  C6_12 
REMARK    8  A    between atoms: C6_12  and  O4_13 
REMARK    9  A    between atoms: C6_12  and  C7_15 
REMARK   10  A    between atoms: C7_15  and  C8_16 
REMARK   11  A    between atoms: C7_15  and  S1_42 
REMARK   12  A    between atoms: C8_16  and  N1_17 
REMARK   13  A    between atoms: N1_17  and  C9_19 
REMARK   14  A    between atoms: C9_19  and  C10_20 
REMARK   15  A    between atoms: C10_20  and  N2_21 
REMARK   16  A    between atoms: C10_20  and  C21_36 
REMARK       I    between atoms: N2_21  and  C11_23 
REMARK   17  A    between atoms: C11_23  and  C12_25 
REMARK   18  A    between atoms: C12_25  and  C13_26 
REMARK   19  A    between atoms: C12_25  and  C15_30 
REMARK   20  A    between atoms: C13_26  and  C14_27 
REMARK   21  A    between atoms: C21_36  and  C22_38 
REMARK   22  A    between atoms: S1_42  and  N3_45 
ROOT
HETATM    1  N1  UNL     1      10.223   7.636  25.597  1.00  0.00    -0.379 N 
ATOM      2  H1  UNL     1       9.459   8.165  25.176  1.00  0.00     0.164 HD
ENDROOT
BRANCH   1   3
HETATM    3  C8  UNL     1      11.537   7.979  25.322  1.00  0.00     0.084 C 
BRANCH   3   4
HETATM    4  C7  UNL     1      11.823   8.948  24.221  1.00  0.00     0.193 C 
BRANCH   4   5
HETATM    5  C6  UNL     1      13.211   9.252  23.809  1.00  0.00     0.174 C 
BRANCH   5   6
HETATM    6  C5  UNL     1      14.278   9.426  24.776  1.00  0.00     0.180 C 
BRANCH   6   7
HETATM    7  C4  UNL     1      14.115  10.409  25.908  1.00  0.00     0.181 C 
BRANCH   7   8
HETATM    8  C3  UNL     1      15.211  10.599  26.869  1.00  0.00     0.171 C 
BRANCH   8   9
HETATM    9  C2  UNL     1      15.125  11.950  27.536  1.00  0.00    -0.003 C 
HETATM   10  C1  UNL     1      15.237  11.997  28.846  1.00  0.00     0.009 C 
ENDBRANCH   8   9
BRANCH   8  11
HETATM   11  O1  UNL     1      15.306   9.665  27.884  1.00  0.00    -0.389 OA
ATOM     12  H1  UNL     1      16.181   9.299  27.833  1.00  0.00     0.210 HD
ENDBRANCH   8  11
ENDBRANCH   7   8
BRANCH   7  13
HETATM   13  O2  UNL     1      14.042  11.669  25.192  1.00  0.00    -0.390 OA
ATOM     14  H2  UNL     1      13.122  11.761  24.971  1.00  0.00     0.210 HD
ENDBRANCH   7  13
ENDBRANCH   6   7
BRANCH   6  15
HETATM   15  O3  UNL     1      15.535   9.823  24.221  1.00  0.00    -0.390 OA
ATOM     16  H3  UNL     1      15.268  10.455  23.564  1.00  0.00     0.210 HD
ENDBRANCH   6  15
ENDBRANCH   5   6
BRANCH   5  17
HETATM   17  O4  UNL     1      13.042  10.511  23.100  1.00  0.00    -0.391 OA
ATOM     18  H4  UNL     1      12.563  10.332  22.299  1.00  0.00     0.210 HD
ENDBRANCH   5  17
ENDBRANCH   4   5
BRANCH   4  19
HETATM   19  S1  UNL     1      10.866   8.329  22.803  1.00  0.00     0.222 S 
HETATM   20  O7  UNL     1      10.911   6.844  22.878  1.00  0.00    -0.210 OA
HETATM   21  O8  UNL     1      11.664   8.746  21.583  1.00  0.00    -0.210 OA
BRANCH  19  22
HETATM   22  N3  UNL     1       9.290   8.966  22.781  1.00  0.00    -0.218 NA
HETATM   23  C26 UNL     1       9.331  10.352  23.230  1.00  0.00     0.128 C 
HETATM   24  C27 UNL     1       8.741   8.964  21.427  1.00  0.00     0.128 C 
ENDBRANCH  19  22
ENDBRANCH   4  19
ENDBRANCH   3   4
ENDBRANCH   1   3
BRANCH   1  25
HETATM   25  C9  UNL     1       9.947   6.578  26.441  1.00  0.00     0.093 C 
BRANCH  25  26
HETATM   26  C10 UNL     1       9.524   5.233  25.971  1.00  0.00     0.193 C 
BRANCH  26  27
HETATM   27  N2  UNL     1       8.867   4.453  27.041  1.00  0.00    -0.345 N 
HETATM   28  C11 UNL     1       7.606   3.878  26.807  1.00  0.00     0.223 C 
HETATM   29  O5  UNL     1       7.072   4.070  25.648  1.00  0.00    -0.273 OA
ATOM     30  H2  UNL     1       9.326   4.334  27.943  1.00  0.00     0.163 HD
BRANCH  28  31
HETATM   31  C12 UNL     1       6.803   3.065  27.740  1.00  0.00     0.087 C 
BRANCH  31  32
HETATM   32  C13 UNL     1       5.416   3.514  27.778  1.00  0.00     0.085 C 
BRANCH  32  33
HETATM   33  C14 UNL     1       4.375   2.448  27.581  1.00  0.00     0.354 C 
HETATM   34  F1  UNL     1       3.515   2.387  28.681  1.00  0.00    -0.214 F 
HETATM   35  F2  UNL     1       4.899   1.180  27.469  1.00  0.00    -0.214 F 
ENDBRANCH  32  33
ENDBRANCH  31  32
BRANCH  31  36
HETATM   36  C15 UNL     1       7.514   2.934  29.042  1.00  0.00    -0.001 C 
HETATM   37  C16 UNL     1       8.131   1.566  29.208  1.00  0.00     0.005 C 
HETATM   38  C17 UNL     1       7.141   0.561  29.707  1.00  0.00     0.000 C 
HETATM   39  C18 UNL     1       6.773   0.982  31.138  1.00  0.00     0.000 C 
HETATM   40  C19 UNL     1       5.954   2.261  30.921  1.00  0.00     0.000 C 
HETATM   41  C20 UNL     1       6.793   3.321  30.264  1.00  0.00     0.005 C 
ENDBRANCH  31  36
ENDBRANCH  28  31
ENDBRANCH  26  27
BRANCH  26  42
HETATM   42  C21 UNL     1      10.555   4.420  25.327  1.00  0.00     0.162 C 
HETATM   43  O6  UNL     1      11.727   4.537  25.729  1.00  0.00    -0.294 OA
BRANCH  42  44
HETATM   44  C22 UNL     1      10.353   3.456  24.234  1.00  0.00     0.019 A 
HETATM   45  C23 UNL     1       9.346   3.778  23.167  1.00  0.00     0.023 C 
HETATM   46  C24 UNL     1      11.470   2.555  23.821  1.00  0.00     0.018 A 
HETATM   47  C25 UNL     1      10.376   1.964  24.646  1.00  0.00     0.018 A 
ENDBRANCH  42  44
ENDBRANCH  26  42
ENDBRANCH  25  26
ENDBRANCH   1  25
TORSDOF 22
ENDMDL
MODEL 2
REMARK VINA RESULT: -7.860344517      1.375      1.982
REMARK  22 active torsions:
REMARK  status: ('A' for Active; 'I' for Inactive)
REMARK    1  A    between atoms: C2_2  and  C3_3 
REMARK    2  A    between atoms: C3_3  and  O1_4 
REMARK    3  A    between atoms: C3_3  and  C4_6 
REMARK    4  A    between atoms: C4_6  and  O2_7 
REMARK    5  A    between atoms: C4_6  and  C5_9 
REMARK    6  A    between atoms: C5_9  and  O3_10 
REMARK    7  A    between atoms: C5_9  and  C6_12 
REMARK    8  A    between atoms: C6_12  and  O4_13 
REMARK    9  A    between atoms: C6_12  and  C7_15 
REMARK   10  A    between atoms: C7_15  and  C8_16 
REMARK   11  A    between atoms: C7_15  and  S1_42 
REMARK   12  A    between atoms: C8_16  and  N1_17 
REMARK   13  A    between atoms: N1_17  and  C9_19 
REMARK   14  A    between atoms: C9_19  and  C10_20 
REMARK   15  A    between atoms: C10_20  and  N2_21 
REMARK   16  A    between atoms: C10_20  and  C21_36 
REMARK       I    between atoms: N2_21  and  C11_23 
REMARK   17  A    between atoms: C11_23  and  C12_25 
REMARK   18  A    between atoms: C12_25  and  C13_26 
REMARK   19  A    between atoms: C12_25  and  C15_30 
REMARK   20  A    between atoms: C13_26  and  C14_27 
REMARK   21  A    between atoms: C21_36  and  C22_38 
REMARK   22  A    between atoms: S1_42  and  N3_45 
ROOT
HETATM    1  N1  UNL     1      10.904   7.820  25.909  1.00  0.00    -0.379 N 
ATOM      2  H1  UNL     1      10.175   8.429  25.539  1.00  0.00     0.164 HD
ENDROOT
BRANCH   1   3
HETATM    3  C8  UNL     1      12.228   8.026  25.552  1.00  0.00     0.084 C 
BRANCH   3   4
HETATM    4  C7  UNL     1      12.557   9.090  24.557  1.00  0.00     0.193 C 
BRANCH   4   5
HETATM    5  C6  UNL     1      13.939   9.277  24.065  1.00  0.00     0.174 C 
BRANCH   5   6
HETATM    6  C5  UNL     1      15.094   8.938  24.873  1.00  0.00     0.180 C 
BRANCH   6   7
HETATM    7  C4  UNL     1      15.587   9.900  25.925  1.00  0.00     0.181 C 
BRANCH   7   8
HETATM    8  C3  UNL     1      14.622  10.572  26.805  1.00  0.00     0.171 C 
BRANCH   8   9
HETATM    9  C2  UNL     1      15.184  10.755  28.193  1.00  0.00    -0.003 C 
HETATM   10  C1  UNL     1      15.264  11.981  28.667  1.00  0.00     0.009 C 
ENDBRANCH   8   9
BRANCH   8  11
HETATM   11  O1  UNL     1      14.179  11.816  26.393  1.00  0.00    -0.389 OA
ATOM     12  H1  UNL     1      14.463  11.919  25.492  1.00  0.00     0.210 HD
ENDBRANCH   8  11
ENDBRANCH   7   8
BRANCH   7  13
HETATM   13  O2  UNL     1      16.323   9.013  26.807  1.00  0.00    -0.390 OA
ATOM     14  H2  UNL     1      15.870   8.181  26.737  1.00  0.00     0.210 HD
ENDBRANCH   7  13
ENDBRANCH   6   7
BRANCH   6  15
HETATM   15  O3  UNL     1      16.291   8.673  24.134  1.00  0.00    -0.390 OA
ATOM     16  H3  UNL     1      16.365   7.730  24.217  1.00  0.00     0.210 HD
ENDBRANCH   6  15
ENDBRANCH   5   6
BRANCH   5  17
HETATM   17  O4  UNL     1      13.976  10.710  23.815  1.00  0.00    -0.391 OA
ATOM     18  H4  UNL     1      13.808  10.849  22.890  1.00  0.00     0.210 HD
ENDBRANCH   5  17
ENDBRANCH   4   5
BRANCH   4  19
HETATM   19  S1  UNL     1      11.428   8.784  23.164  1.00  0.00     0.222 S 
HETATM   20  O7  UNL     1      11.207   7.314  23.113  1.00  0.00    -0.210 OA
HETATM   21  O8  UNL     1      12.220   9.166  21.929  1.00  0.00    -0.210 OA
BRANCH  19  22
HETATM   22  N3  UNL     1       9.994   9.687  23.305  1.00  0.00    -0.218 NA
HETATM   23  C26 UNL     1      10.209  11.011  22.734  1.00  0.00     0.128 C 
HETATM   24  C27 UNL     1       8.905   9.063  22.559  1.00  0.00     0.128 C 
ENDBRANCH  19  22
ENDBRANCH   4  19
ENDBRANCH   3   4
ENDBRANCH   1   3
BRANCH   1  25
HETATM   25  C9  UNL     1      10.572   6.788  26.767  1.00  0.00     0.093 C 
BRANCH  25  26
HETATM   26  C10 UNL     1       9.999   5.493  26.319  1.00  0.00     0.193 C 
BRANCH  26  27
HETATM   27  N2  UNL     1       9.499   4.686  27.452  1.00  0.00    -0.345 N 
HETATM   28  C11 UNL     1       8.196   4.162  27.411  1.00  0.00     0.223 C 
HETATM   29  O5  UNL     1       7.485   4.423  26.367  1.00  0.00    -0.273 OA
ATOM     30  H2  UNL     1      10.097   4.512  28.259  1.00  0.00     0.163 HD
BRANCH  28  31
HETATM   31  C12 UNL     1       7.528   3.333  28.433  1.00  0.00     0.087 C 
BRANCH  31  32
HETATM   32  C13 UNL     1       7.413   1.946  27.999  1.00  0.00     0.085 C 
BRANCH  32  33
HETATM   33  C14 UNL     1       8.248   0.950  28.757  1.00  0.00     0.354 C 
HETATM   34  F1  UNL     1       7.710   0.718  30.026  1.00  0.00    -0.214 F 
HETATM   35  F2  UNL     1       9.536   1.376  28.990  1.00  0.00    -0.214 F 
ENDBRANCH  32  33
ENDBRANCH  31  32
BRANCH  31  36
HETATM   36  C15 UNL     1       6.284   4.007  28.901  1.00  0.00    -0.001 C 
HETATM   37  C16 UNL     1       6.399   4.459  30.337  1.00  0.00     0.005 C 
HETATM   38  C17 UNL     1       6.100   3.352  31.299  1.00  0.00     0.000 C 
HETATM   39  C18 UNL     1       4.610   3.016  31.129  1.00  0.00     0.000 C 
HETATM   40  C19 UNL     1       4.561   2.353  29.746  1.00  0.00     0.000 C 
HETATM   41  C20 UNL     1       5.003   3.319  28.682  1.00  0.00     0.005 C 
ENDBRANCH  31  36
ENDBRANCH  28  31
ENDBRANCH  26  27
BRANCH  26  42
HETATM   42  C21 UNL     1      10.853   4.669  25.463  1.00  0.00     0.162 C 
HETATM   43  O6  UNL     1      12.078   4.679  25.679  1.00  0.00    -0.294 OA
BRANCH  42  44
HETATM   44  C22 UNL     1      10.411   3.811  24.354  1.00  0.00     0.019 A 
HETATM   45  C23 UNL     1       9.364   4.333  23.411  1.00  0.00     0.023 C 
HETATM   46  C24 UNL     1      11.342   2.789  23.787  1.00  0.00     0.018 A 
HETATM   47  C25 UNL     1      10.257   2.307  24.692  1.00  0.00     0.018 A 
ENDBRANCH  42  44
ENDBRANCH  26  42
ENDBRANCH  25  26
ENDBRANCH   1  25
TORSDOF 22
ENDMDL
MODEL 3
REMARK VINA RESULT: -7.793615572      1.907      2.587
REMARK  22 active torsions:
REMARK  status: ('A' for Active; 'I' for Inactive)
REMARK    1  A    between atoms: C2_2  and  C3_3 
REMARK    2  A    between atoms: C3_3  and  O1_4 
REMARK    3  A    between atoms: C3_3  and  C4_6 
REMARK    4  A    between atoms: C4_6  and  O2_7 
REMARK    5  A    between atoms: C4_6  and  C5_9 
REMARK    6  A    between atoms: C5_9  and  O3_10 
REMARK    7  A    between atoms: C5_9  and  C6_12 
REMARK    8  A    between atoms: C6_12  and  O4_13 
REMARK    9  A    between atoms: C6_12  and  C7_15 
REMARK   10  A    between atoms: C7_15  and  C8_16 
REMARK   11  A    between atoms: C7_15  and  S1_42 
REMARK   12  A    between atoms: C8_16  and  N1_17 
REMARK   13  A    between atoms: N1_17  and  C9_19 
REMARK   14  A    between atoms: C9_19  and  C10_20 
REMARK   15  A    between atoms: C10_20  and  N2_21 
REMARK   16  A    between atoms: C10_20  and  C21_36 
REMARK       I    between atoms: N2_21  and  C11_23 
REMARK   17  A    between atoms: C11_23  and  C12_25 
REMARK   18  A    between atoms: C12_25  and  C13_26 
REMARK   19  A    between atoms: C12_25  and  C15_30 
REMARK   20  A    between atoms: C13_26  and  C14_27 
REMARK   21  A    between atoms: C21_36  and  C22_38 
REMARK   22  A    between atoms: S1_42  and  N3_45 
ROOT
HETATM    1  N1  UNL     1      10.911   8.326  25.393  1.00  0.00    -0.379 N 
ATOM      2  H1  UNL     1      10.309   9.148  25.411  1.00  0.00     0.164 HD
ENDROOT
BRANCH   1   3
HETATM    3  C8  UNL     1      11.832   8.162  24.369  1.00  0.00     0.084 C 
BRANCH   3   4
HETATM    4  C7  UNL     1      12.532   9.362  23.819  1.00  0.00     0.193 C 
BRANCH   4   5
HETATM    5  C6  UNL     1      14.007   9.463  23.837  1.00  0.00     0.174 C 
BRANCH   5   6
HETATM    6  C5  UNL     1      14.798   8.959  24.944  1.00  0.00     0.180 C 
BRANCH   6   7
HETATM    7  C4  UNL     1      15.383   9.918  25.951  1.00  0.00     0.181 C 
BRANCH   7   8
HETATM    8  C3  UNL     1      14.510  10.537  26.958  1.00  0.00     0.171 C 
BRANCH   8   9
HETATM    9  C2  UNL     1      15.253  10.784  28.247  1.00  0.00    -0.003 C 
HETATM   10  C1  UNL     1      15.215  11.997  28.756  1.00  0.00     0.009 C 
ENDBRANCH   8   9
BRANCH   8  11
HETATM   11  O1  UNL     1      13.922  11.738  26.606  1.00  0.00    -0.389 OA
ATOM     12  H1  UNL     1      13.981  11.800  25.660  1.00  0.00     0.210 HD
ENDBRANCH   8  11
ENDBRANCH   7   8
BRANCH   7  13
HETATM   13  O2  UNL     1      16.251   9.042  26.716  1.00  0.00    -0.390 OA
ATOM     14  H2  UNL     1      16.858   9.631  27.149  1.00  0.00     0.210 HD
ENDBRANCH   7  13
ENDBRANCH   6   7
BRANCH   6  15
HETATM   15  O3  UNL     1      15.946   8.194  24.566  1.00  0.00    -0.390 OA
ATOM     16  H3  UNL     1      16.470   8.842  24.110  1.00  0.00     0.210 HD
ENDBRANCH   6  15
ENDBRANCH   5   6
BRANCH   5  17
HETATM   17  O4  UNL     1      14.209  10.902  23.765  1.00  0.00    -0.391 OA
ATOM     18  H4  UNL     1      14.106  11.165  22.858  1.00  0.00     0.210 HD
ENDBRANCH   5  17
ENDBRANCH   4   5
BRANCH   4  19
HETATM   19  S1  UNL     1      11.910   9.520  22.117  1.00  0.00     0.222 S 
HETATM   20  O7  UNL     1      11.421   8.173  21.719  1.00  0.00    -0.210 OA
HETATM   21  O8  UNL     1      13.138   9.822  21.280  1.00  0.00    -0.210 OA
BRANCH  19  22
HETATM   22  N3  UNL     1      10.735  10.742  21.987  1.00  0.00    -0.218 NA
HETATM   23  C26 UNL     1      10.888  11.670  23.101  1.00  0.00     0.128 C 
HETATM   24  C27 UNL     1      10.908  11.509  20.756  1.00  0.00     0.128 C 
ENDBRANCH  19  22
ENDBRANCH   4  19
ENDBRANCH   3   4
ENDBRANCH   1   3
BRANCH   1  25
HETATM   25  C9  UNL     1      10.810   7.374  26.389  1.00  0.00     0.093 C 
BRANCH  25  26
HETATM   26  C10 UNL     1      10.215   6.027  26.189  1.00  0.00     0.193 C 
BRANCH  26  27
HETATM   27  N2  UNL     1       9.763   5.426  27.461  1.00  0.00    -0.345 N 
HETATM   28  C11 UNL     1       8.534   4.745  27.510  1.00  0.00     0.223 C 
HETATM   29  O5  UNL     1       7.846   4.685  26.421  1.00  0.00    -0.273 OA
ATOM     30  H2  UNL     1      10.340   5.504  28.298  1.00  0.00     0.163 HD
BRANCH  28  31
HETATM   31  C12 UNL     1       7.924   4.077  28.675  1.00  0.00     0.087 C 
BRANCH  31  32
HETATM   32  C13 UNL     1       8.175   2.641  28.656  1.00  0.00     0.085 C 
BRANCH  32  33
HETATM   33  C14 UNL     1       9.359   2.193  27.844  1.00  0.00     0.354 C 
HETATM   34  F1  UNL     1       9.068   1.010  27.157  1.00  0.00    -0.214 F 
HETATM   35  F2  UNL     1      10.467   1.897  28.605  1.00  0.00    -0.214 F 
ENDBRANCH  32  33
ENDBRANCH  31  32
BRANCH  31  36
HETATM   36  C15 UNL     1       6.510   4.521  28.832  1.00  0.00    -0.001 C 
HETATM   37  C16 UNL     1       6.417   5.992  29.158  1.00  0.00     0.005 C 
HETATM   38  C17 UNL     1       6.608   6.256  30.619  1.00  0.00     0.000 C 
HETATM   39  C18 UNL     1       5.399   5.636  31.336  1.00  0.00     0.000 C 
HETATM   40  C19 UNL     1       5.639   4.129  31.178  1.00  0.00     0.000 C 
HETATM   41  C20 UNL     1       5.638   3.744  29.725  1.00  0.00     0.005 C 
ENDBRANCH  31  36
ENDBRANCH  28  31
ENDBRANCH  26  27
BRANCH  26  42
HETATM   42  C21 UNL     1      11.029   5.065  25.447  1.00  0.00     0.162 C 
HETATM   43  O6  UNL     1      12.152   4.777  25.901  1.00  0.00    -0.294 OA
BRANCH  42  44
HETATM   44  C22 UNL     1      10.657   4.382  24.198  1.00  0.00     0.019 A 
HETATM   45  C23 UNL     1      10.037   5.190  23.094  1.00  0.00     0.023 C 
HETATM   46  C24 UNL     1      11.398   3.159  23.770  1.00  0.00     0.018 A 
HETATM   47  C25 UNL     1      10.042   2.971  24.365  1.00  0.00     0.018 A 
ENDBRANCH  42  44
ENDBRANCH  26  42
ENDBRANCH  25  26
ENDBRANCH   1  25
TORSDOF 22
ENDMDL
MODEL 4
REMARK VINA RESULT: -7.622920296      1.697      2.191
REMARK  22 active torsions:
REMARK  status: ('A' for Active; 'I' for Inactive)
REMARK    1  A    between atoms: C2_2  and  C3_3 
REMARK    2  A    between atoms: C3_3  and  O1_4 
REMARK    3  A    between atoms: C3_3  and  C4_6 
REMARK    4  A    between atoms: C4_6  and  O2_7 
REMARK    5  A    between atoms: C4_6  and  C5_9 
REMARK    6  A    between atoms: C5_9  and  O3_10 
REMARK    7  A    between atoms: C5_9  and  C6_12 
REMARK    8  A    between atoms: C6_12  and  O4_13 
REMARK    9  A    between atoms: C6_12  and  C7_15 
REMARK   10  A    between atoms: C7_15  and  C8_16 
REMARK   11  A    between atoms: C7_15  and  S1_42 
REMARK   12  A    between atoms: C8_16  and  N1_17 
REMARK   13  A    between atoms: N1_17  and  C9_19 
REMARK   14  A    between atoms: C9_19  and  C10_20 
REMARK   15  A    between atoms: C10_20  and  N2_21 
REMARK   16  A    between atoms: C10_20  and  C21_36 
REMARK       I    between atoms: N2_21  and  C11_23 
REMARK   17  A    between atoms: C11_23  and  C12_25 
REMARK   18  A    between atoms: C12_25  and  C13_26 
REMARK   19  A    between atoms: C12_25  and  C15_30 
REMARK   20  A    between atoms: C13_26  and  C14_27 
REMARK   21  A    between atoms: C21_36  and  C22_38 
REMARK   22  A    between atoms: S1_42  and  N3_45 
ROOT
HETATM    1  N1  UNL     1      11.141   8.355  25.543  1.00  0.00    -0.379 N 
ATOM      2  H1  UNL     1      10.667   9.235  25.747  1.00  0.00     0.164 HD
ENDROOT
BRANCH   1   3
HETATM    3  C8  UNL     1      11.914   8.233  24.398  1.00  0.00     0.084 C 
BRANCH   3   4
HETATM    4  C7  UNL     1      12.660   9.424  23.892  1.00  0.00     0.193 C 
BRANCH   4   5
HETATM    5  C6  UNL     1      14.139   9.459  23.894  1.00  0.00     0.174 C 
BRANCH   5   6
HETATM    6  C5  UNL     1      14.917   8.966  25.014  1.00  0.00     0.180 C 
BRANCH   6   7
HETATM    7  C4  UNL     1      15.484   9.934  26.022  1.00  0.00     0.181 C 
BRANCH   7   8
HETATM    8  C3  UNL     1      14.580  10.651  26.932  1.00  0.00     0.171 C 
BRANCH   8   9
HETATM    9  C2  UNL     1      15.228  10.887  28.273  1.00  0.00    -0.003 C 
HETATM   10  C1  UNL     1      15.213  12.110  28.758  1.00  0.00     0.009 C 
ENDBRANCH   8   9
BRANCH   8  11
HETATM   11  O1  UNL     1      14.120  11.881  26.496  1.00  0.00    -0.389 OA
ATOM     12  H1  UNL     1      14.088  11.836  25.548  1.00  0.00     0.210 HD
ENDBRANCH   8  11
ENDBRANCH   7   8
BRANCH   7  13
HETATM   13  O2  UNL     1      16.235   9.044  26.889  1.00  0.00    -0.390 OA
ATOM     14  H2  UNL     1      16.178   9.447  27.747  1.00  0.00     0.210 HD
ENDBRANCH   7  13
ENDBRANCH   6   7
BRANCH   6  15
HETATM   15  O3  UNL     1      16.073   8.204  24.657  1.00  0.00    -0.390 OA
ATOM     16  H3  UNL     1      16.590   8.844  24.183  1.00  0.00     0.210 HD
ENDBRANCH   6  15
ENDBRANCH   5   6
BRANCH   5  17
HETATM   17  O4  UNL     1      14.404  10.884  23.761  1.00  0.00    -0.391 OA
ATOM     18  H4  UNL     1      15.341  11.015  23.845  1.00  0.00     0.210 HD
ENDBRANCH   5  17
ENDBRANCH   4   5
BRANCH   4  19
HETATM   19  S1  UNL     1      12.026   9.684  22.207  1.00  0.00     0.222 S 
HETATM   20  O7  UNL     1      11.373   8.411  21.800  1.00  0.00    -0.210 OA
HETATM   21  O8  UNL     1      13.263   9.853  21.347  1.00  0.00    -0.210 OA
BRANCH  19  22
HETATM   22  N3  UNL     1      11.001  11.038  22.121  1.00  0.00    -0.218 NA
HETATM   23  C26 UNL     1      10.797  11.392  20.722  1.00  0.00     0.128 C 
HETATM   24  C27 UNL     1       9.690  10.740  22.691  1.00  0.00     0.128 C 
ENDBRANCH  19  22
ENDBRANCH   4  19
ENDBRANCH   3   4
ENDBRANCH   1   3
BRANCH   1  25
HETATM   25  C9  UNL     1      11.014   7.286  26.409  1.00  0.00     0.093 C 
BRANCH  25  26
HETATM   26  C10 UNL     1      10.215   6.070  26.109  1.00  0.00     0.193 C 
BRANCH  26  27
HETATM   27  N2  UNL     1       9.512   5.560  27.304  1.00  0.00    -0.345 N 
HETATM   28  C11 UNL     1       8.115   5.409  27.278  1.00  0.00     0.223 C 
HETATM   29  O5  UNL     1       7.504   5.738  26.190  1.00  0.00    -0.273 OA
ATOM     30  H2  UNL     1      10.038   5.319  28.144  1.00  0.00     0.163 HD
BRANCH  28  31
HETATM   31  C12 UNL     1       7.244   4.911  28.360  1.00  0.00     0.087 C 
BRANCH  31  32
HETATM   32  C13 UNL     1       7.292   5.786  29.526  1.00  0.00     0.085 C 
BRANCH  32  33
HETATM   33  C14 UNL     1       5.961   6.195  30.093  1.00  0.00     0.354 C 
HETATM   34  F1  UNL     1       5.845   5.787  31.425  1.00  0.00    -0.214 F 
HETATM   35  F2  UNL     1       4.888   5.620  29.451  1.00  0.00    -0.214 F 
ENDBRANCH  32  33
ENDBRANCH  31  32
BRANCH  31  36
HETATM   36  C15 UNL     1       7.494   3.459  28.585  1.00  0.00    -0.001 C 
HETATM   37  C16 UNL     1       6.955   2.617  27.454  1.00  0.00     0.005 C 
HETATM   38  C17 UNL     1       5.493   2.337  27.610  1.00  0.00     0.000 C 
HETATM   39  C18 UNL     1       5.350   1.439  28.848  1.00  0.00     0.000 C 
HETATM   40  C19 UNL     1       5.690   2.388  30.004  1.00  0.00     0.000 C 
HETATM   41  C20 UNL     1       7.103   2.885  29.881  1.00  0.00     0.005 C 
ENDBRANCH  31  36
ENDBRANCH  28  31
ENDBRANCH  26  27
BRANCH  26  42
HETATM   42  C21 UNL     1      10.926   4.976  25.448  1.00  0.00     0.162 C 
HETATM   43  O6  UNL     1      12.099   4.749  25.793  1.00  0.00    -0.294 OA
BRANCH  42  44
HETATM   44  C22 UNL     1      10.392   4.094  24.399  1.00  0.00     0.019 A 
HETATM   45  C23 UNL     1       9.379   4.648  23.437  1.00  0.00     0.023 C 
HETATM   46  C24 UNL     1      11.219   2.961  23.887  1.00  0.00     0.018 A 
HETATM   47  C25 UNL     1      10.111   2.633  24.831  1.00  0.00     0.018 A 
ENDBRANCH  42  44
ENDBRANCH  26  42
ENDBRANCH  25  26
ENDBRANCH   1  25
TORSDOF 22
ENDMDL
MODEL 5
REMARK VINA RESULT: -7.542033841      2.214      2.972
REMARK  22 active torsions:
REMARK  status: ('A' for Active; 'I' for Inactive)
REMARK    1  A    between atoms: C2_2  and  C3_3 
REMARK    2  A    between atoms: C3_3  and  O1_4 
REMARK    3  A    between atoms: C3_3  and  C4_6 
REMARK    4  A    between atoms: C4_6  and  O2_7 
REMARK    5  A    between atoms: C4_6  and  C5_9 
REMARK    6  A    between atoms: C5_9  and  O3_10 
REMARK    7  A    between atoms: C5_9  and  C6_12 
REMARK    8  A    between atoms: C6_12  and  O4_13 
REMARK    9  A    between atoms: C6_12  and  C7_15 
REMARK   10  A    between atoms: C7_15  and  C8_16 
REMARK   11  A    between atoms: C7_15  and  S1_42 
REMARK   12  A    between atoms: C8_16  and  N1_17 
REMARK   13  A    between atoms: N1_17  and  C9_19 
REMARK   14  A    between atoms: C9_19  and  C10_20 
REMARK   15  A    between atoms: C10_20  and  N2_21 
REMARK   16  A    between atoms: C10_20  and  C21_36 
REMARK       I    between atoms: N2_21  and  C11_23 
REMARK   17  A    between atoms: C11_23  and  C12_25 
REMARK   18  A    between atoms: C12_25  and  C13_26 
REMARK   19  A    between atoms: C12_25  and  C15_30 
REMARK   20  A    between atoms: C13_26  and  C14_27 
REMARK   21  A    between atoms: C21_36  and  C22_38 
REMARK   22  A    between atoms: S1_42  and  N3_45 
ROOT
HETATM    1  N1  UNL     1      10.717   8.338  25.078  1.00  0.00    -0.379 N 
ATOM      2  H1  UNL     1      10.155   9.174  24.921  1.00  0.00     0.164 HD
ENDROOT
BRANCH   1   3
HETATM    3  C8  UNL     1      11.934   8.189  24.429  1.00  0.00     0.084 C 
BRANCH   3   4
HETATM    4  C7  UNL     1      12.628   9.399  23.894  1.00  0.00     0.193 C 
BRANCH   4   5
HETATM    5  C6  UNL     1      14.103   9.475  23.839  1.00  0.00     0.174 C 
BRANCH   5   6
HETATM    6  C5  UNL     1      14.939   8.958  24.906  1.00  0.00     0.180 C 
BRANCH   6   7
HETATM    7  C4  UNL     1      15.445   9.885  25.983  1.00  0.00     0.181 C 
BRANCH   7   8
HETATM    8  C3  UNL     1      14.502  10.451  26.958  1.00  0.00     0.171 C 
BRANCH   8   9
HETATM    9  C2  UNL     1      15.187  10.756  28.266  1.00  0.00    -0.003 C 
HETATM   10  C1  UNL     1      15.387  12.020  28.576  1.00  0.00     0.009 C 
ENDBRANCH   8   9
BRANCH   8  11
HETATM   11  O1  UNL     1      13.847  11.608  26.577  1.00  0.00    -0.389 OA
ATOM     12  H1  UNL     1      14.507  12.182  26.207  1.00  0.00     0.210 HD
ENDBRANCH   8  11
ENDBRANCH   7   8
BRANCH   7  13
HETATM   13  O2  UNL     1      16.280   8.993  26.765  1.00  0.00    -0.390 OA
ATOM     14  H2  UNL     1      16.998   8.772  26.185  1.00  0.00     0.210 HD
ENDBRANCH   7  13
ENDBRANCH   6   7
BRANCH   6  15
HETATM   15  O3  UNL     1      16.147   8.324  24.474  1.00  0.00    -0.390 OA
ATOM     16  H3  UNL     1      16.552   8.094  25.301  1.00  0.00     0.210 HD
ENDBRANCH   6  15
ENDBRANCH   5   6
BRANCH   5  17
HETATM   17  O4  UNL     1      14.326  10.910  23.754  1.00  0.00    -0.391 OA
ATOM     18  H4  UNL     1      14.554  11.117  22.855  1.00  0.00     0.210 HD
ENDBRANCH   5  17
ENDBRANCH   4   5
BRANCH   4  19
HETATM   19  S1  UNL     1      11.921   9.640  22.235  1.00  0.00     0.222 S 
HETATM   20  O7  UNL     1      11.328   8.336  21.835  1.00  0.00    -0.210 OA
HETATM   21  O8  UNL     1      13.116   9.889  21.335  1.00  0.00    -0.210 OA
BRANCH  19  22
HETATM   22  N3  UNL     1      10.819  10.934  22.201  1.00  0.00    -0.218 NA
HETATM   23  C26 UNL     1      10.786  11.496  20.856  1.00  0.00     0.128 C 
HETATM   24  C27 UNL     1       9.467  10.480  22.516  1.00  0.00     0.128 C 
ENDBRANCH  19  22
ENDBRANCH   4  19
ENDBRANCH   3   4
ENDBRANCH   1   3
BRANCH   1  25
HETATM   25  C9  UNL     1      10.267   7.354  25.937  1.00  0.00     0.093 C 
BRANCH  25  26
HETATM   26  C10 UNL     1       8.919   6.736  25.852  1.00  0.00     0.193 C 
BRANCH  26  27
HETATM   27  N2  UNL     1       8.879   5.402  26.488  1.00  0.00    -0.345 N 
HETATM   28  C11 UNL     1       7.929   5.137  27.489  1.00  0.00     0.223 C 
HETATM   29  O5  UNL     1       7.127   6.094  27.813  1.00  0.00    -0.273 OA
ATOM     30  H2  UNL     1       9.539   4.679  26.202  1.00  0.00     0.163 HD
BRANCH  28  31
HETATM   31  C12 UNL     1       7.730   3.875  28.227  1.00  0.00     0.087 C 
BRANCH  31  32
HETATM   32  C13 UNL     1       8.122   2.722  27.424  1.00  0.00     0.085 C 
BRANCH  32  33
HETATM   33  C14 UNL     1       9.334   1.972  27.903  1.00  0.00     0.354 C 
HETATM   34  F1  UNL     1       9.040   1.246  29.061  1.00  0.00    -0.214 F 
HETATM   35  F2  UNL     1      10.385   2.788  28.253  1.00  0.00    -0.214 F 
ENDBRANCH  32  33
ENDBRANCH  31  32
BRANCH  31  36
HETATM   36  C15 UNL     1       6.370   3.852  28.836  1.00  0.00    -0.001 C 
HETATM   37  C16 UNL     1       6.433   3.796  30.343  1.00  0.00     0.005 C 
HETATM   38  C17 UNL     1       6.626   2.400  30.846  1.00  0.00     0.000 C 
HETATM   39  C18 UNL     1       5.344   1.628  30.495  1.00  0.00     0.000 C 
HETATM   40  C19 UNL     1       5.422   1.506  28.968  1.00  0.00     0.000 C 
HETATM   41  C20 UNL     1       5.404   2.866  28.328  1.00  0.00     0.005 C 
ENDBRANCH  31  36
ENDBRANCH  28  31
ENDBRANCH  26  27
BRANCH  26  42
HETATM   42  C21 UNL     1       8.321   6.668  24.519  1.00  0.00     0.162 C 
HETATM   43  O6  UNL     1       9.077   6.481  23.549  1.00  0.00    -0.294 OA
BRANCH  42  44
HETATM   44  C22 UNL     1       6.892   6.795  24.194  1.00  0.00     0.019 A 
HETATM   45  C23 UNL     1       6.157   8.025  24.647  1.00  0.00     0.023 C 
HETATM   46  C24 UNL     1       6.343   6.122  22.979  1.00  0.00     0.018 A 
HETATM   47  C25 UNL     1       6.062   5.492  24.303  1.00  0.00     0.018 A 
ENDBRANCH  42  44
ENDBRANCH  26  42
ENDBRANCH  25  26
ENDBRANCH   1  25
TORSDOF 22
ENDMDL
