MODEL 1
REMARK VINA RESULT: -7.270923222      0.000      0.000
REMARK  21 active torsions:
REMARK  status: ('A' for Active; 'I' for Inactive)
REMARK    1  A    between atoms: C2_2  and  C3_3 
REMARK    2  A    between atoms: C3_3  and  O1_4 
REMARK    3  A    between atoms: O1_4  and  C4_5 
REMARK    4  A    between atoms: C4_5  and  C5_6 
REMARK    5  A    between atoms: C4_5  and  N7_47 
REMARK    6  A    between atoms: C5_6  and  C6_7 
REMARK    7  A    between atoms: C6_7  and  C7_8 
REMARK       I    between atoms: N1_9  and  C8_10 
REMARK    8  A    between atoms: C8_10  and  C9_12 
REMARK    9  A    between atoms: C9_12  and  C10_13 
REMARK   10  A    between atoms: C9_12  and  N3_21 
REMARK   11  A    between atoms: C10_13  and  C11_14 
REMARK   12  A    between atoms: C11_14  and  C12_15 
REMARK   13  A    between atoms: C12_15  and  C13_16 
REMARK   14  A    between atoms: C13_16  and  N2_17 
REMARK       I    between atoms: N3_21  and  C14_23 
REMARK   15  A    between atoms: C14_23  and  C15_25 
REMARK   16  A    between atoms: C18_30  and  C19_31 
REMARK       I    between atoms: C19_31  and  N4_33 
REMARK   17  A    between atoms: N4_33  and  C20_35 
REMARK   18  A    between atoms: C20_35  and  C21_36 
REMARK   19  A    between atoms: C21_36  and  N5_37 
REMARK   20  A    between atoms: C21_36  and  O5_41 
REMARK   21  A    between atoms: N7_47  and  C25_49 
ROOT
HETATM    1  C7  UNL     1       7.415   6.809  25.075  1.00  0.00     0.188 C 
HETATM    2  N1  UNL     1       8.567   5.940  25.041  1.00  0.00    -0.298 N 
HETATM    3  C8  UNL     1       8.491   4.626  25.492  1.00  0.00     0.248 C 
HETATM    4  O2  UNL     1       7.376   4.184  25.902  1.00  0.00    -0.271 OA
HETATM    5  C17 UNL     1       9.798   6.429  24.498  1.00  0.00     0.149 C 
HETATM    6  C18 UNL     1       9.605   7.422  23.357  1.00  0.00     0.123 C 
HETATM    7  C22 UNL     1       8.641   8.449  23.845  1.00  0.00     0.260 C 
HETATM    8  N6  UNL     1       7.358   7.821  24.089  1.00  0.00    -0.033 N 
HETATM    9  C23 UNL     1       6.967   7.260  22.777  1.00  0.00     0.280 C 
HETATM   10  C24 UNL     1       6.438   8.892  24.332  1.00  0.00     0.280 C 
ENDROOT
BRANCH   1  11
HETATM   11  C6  UNL     1       6.948   7.196  26.442  1.00  0.00     0.089 C 
BRANCH  11  12
HETATM   12  C5  UNL     1       5.699   6.592  26.943  1.00  0.00     0.061 C 
BRANCH  12  13
HETATM   13  C4  UNL     1       5.860   6.428  28.464  1.00  0.00     0.217 C 
BRANCH  13  14
HETATM   14  O1  UNL     1       6.143   7.588  29.115  1.00  0.00    -0.363 OA
BRANCH  14  15
HETATM   15  C3  UNL     1       7.140   7.553  30.054  1.00  0.00     0.197 C 
BRANCH  15  16
HETATM   16  C2  UNL     1       7.882   8.867  29.942  1.00  0.00    -0.011 C 
HETATM   17  C1  UNL     1       7.222   9.990  30.154  1.00  0.00     0.009 C 
ENDBRANCH  15  16
ENDBRANCH  14  15
ENDBRANCH  13  14
BRANCH  13  18
HETATM   18  N7  UNL     1       6.677   5.294  28.748  1.00  0.00    -0.393 N 
ATOM     19  H7  UNL     1       7.688   5.330  28.620  1.00  0.00     0.156 HD
BRANCH  18  20
HETATM   20  C25 UNL     1       6.042   4.116  29.214  1.00  0.00     0.079 C 
HETATM   21  C26 UNL     1       6.621   2.816  28.786  1.00  0.00     0.025 C 
HETATM   22  C27 UNL     1       7.104   2.093  30.030  1.00  0.00     0.002 C 
HETATM   23  C28 UNL     1       6.348   2.710  31.159  1.00  0.00     0.002 C 
HETATM   24  C29 UNL     1       6.083   4.123  30.752  1.00  0.00     0.025 C 
ENDBRANCH  18  20
ENDBRANCH  13  18
ENDBRANCH  12  13
ENDBRANCH  11  12
ENDBRANCH   1  11
BRANCH   3  25
HETATM   25  C9  UNL     1       9.617   3.666  25.535  1.00  0.00     0.177 C 
BRANCH  25  26
HETATM   26  C10 UNL     1       9.853   3.026  26.857  1.00  0.00     0.035 C 
BRANCH  26  27
HETATM   27  C11 UNL     1      10.172   3.846  28.026  1.00  0.00     0.004 C 
BRANCH  27  28
HETATM   28  C12 UNL     1      10.893   5.116  27.978  1.00  0.00     0.027 C 
BRANCH  28  29
HETATM   29  C13 UNL     1      10.182   6.369  28.338  1.00  0.00     0.229 C 
BRANCH  29  30
HETATM   30  N2  UNL     1      10.622   7.604  27.794  1.00  0.00    -0.079 N 
ATOM     31  H23 UNL     1      10.596   7.540  26.776  1.00  0.00     0.274 HD
ATOM     32  H22 UNL     1       9.907   8.310  27.970  1.00  0.00     0.274 HD
ATOM     33  H21 UNL     1      11.528   7.981  28.073  1.00  0.00     0.274 HD
ENDBRANCH  29  30
ENDBRANCH  28  29
ENDBRANCH  27  28
ENDBRANCH  26  27
ENDBRANCH  25  26
BRANCH  25  34
HETATM   34  N3  UNL     1       9.563   2.715  24.467  1.00  0.00    -0.343 N 
HETATM   35  C14 UNL     1      10.737   2.259  23.776  1.00  0.00     0.290 C 
HETATM   36  O3  UNL     1      11.834   2.730  24.151  1.00  0.00    -0.267 OA
ATOM     37  H3  UNL     1       8.654   2.348  24.185  1.00  0.00     0.163 HD
BRANCH  35  38
HETATM   38  C15 UNL     1      10.725   1.285  22.669  1.00  0.00     0.318 C 
HETATM   39  C16 UNL     1      12.034   1.354  21.872  1.00  0.00     0.101 C 
HETATM   40  F1  UNL     1       9.668   1.449  21.805  1.00  0.00    -0.196 F 
HETATM   41  F2  UNL     1      10.678  -0.042  23.115  1.00  0.00    -0.196 F 
ENDBRANCH  35  38
ENDBRANCH  25  34
ENDBRANCH   3  25
BRANCH   6  42
HETATM   42  C19 UNL     1      10.921   8.090  23.030  1.00  0.00     0.225 C 
HETATM   43  O4  UNL     1      11.312   8.038  21.840  1.00  0.00    -0.273 OA
HETATM   44  N4  UNL     1      11.649   8.733  24.040  1.00  0.00    -0.356 N 
ATOM     45  H4  UNL     1      11.207   8.706  24.959  1.00  0.00     0.162 HD
BRANCH  44  46
HETATM   46  C20 UNL     1      12.891   9.414  24.009  1.00  0.00     0.183 C 
BRANCH  46  47
HETATM   47  C21 UNL     1      13.664   9.526  25.274  1.00  0.00     0.334 C 
BRANCH  47  48
HETATM   48  N5  UNL     1      13.960  10.871  25.620  1.00  0.00    -0.051 N 
ATOM     49  H53 UNL     1      14.729  11.233  25.056  1.00  0.00     0.277 HD
ATOM     50  H52 UNL     1      13.218  11.500  25.312  1.00  0.00     0.277 HD
ATOM     51  H51 UNL     1      14.151  10.991  26.615  1.00  0.00     0.277 HD
ENDBRANCH  47  48
BRANCH  47  52
HETATM   52  O5  UNL     1      12.861   9.036  26.351  1.00  0.00    -0.369 OA
ATOM     53  H5  UNL     1      12.272   9.725  26.633  1.00  0.00     0.212 HD
ENDBRANCH  47  52
ENDBRANCH  46  47
ENDBRANCH  44  46
ENDBRANCH   6  42
TORSDOF 21
ENDMDL
MODEL 2
REMARK VINA RESULT: -7.071447816      1.157      2.057
REMARK  21 active torsions:
REMARK  status: ('A' for Active; 'I' for Inactive)
REMARK    1  A    between atoms: C2_2  and  C3_3 
REMARK    2  A    between atoms: C3_3  and  O1_4 
REMARK    3  A    between atoms: O1_4  and  C4_5 
REMARK    4  A    between atoms: C4_5  and  C5_6 
REMARK    5  A    between atoms: C4_5  and  N7_47 
REMARK    6  A    between atoms: C5_6  and  C6_7 
REMARK    7  A    between atoms: C6_7  and  C7_8 
REMARK       I    between atoms: N1_9  and  C8_10 
REMARK    8  A    between atoms: C8_10  and  C9_12 
REMARK    9  A    between atoms: C9_12  and  C10_13 
REMARK   10  A    between atoms: C9_12  and  N3_21 
REMARK   11  A    between atoms: C10_13  and  C11_14 
REMARK   12  A    between atoms: C11_14  and  C12_15 
REMARK   13  A    between atoms: C12_15  and  C13_16 
REMARK   14  A    between atoms: C13_16  and  N2_17 
REMARK       I    between atoms: N3_21  and  C14_23 
REMARK   15  A    between atoms: C14_23  and  C15_25 
REMARK   16  A    between atoms: C18_30  and  C19_31 
REMARK       I    between atoms: C19_31  and  N4_33 
REMARK   17  A    between atoms: N4_33  and  C20_35 
REMARK   18  A    between atoms: C20_35  and  C21_36 
REMARK   19  A    between atoms: C21_36  and  N5_37 
REMARK   20  A    between atoms: C21_36  and  O5_41 
REMARK   21  A    between atoms: N7_47  and  C25_49 
ROOT
HETATM    1  C7  UNL     1       7.457   6.895  25.592  1.00  0.00     0.188 C 
HETATM    2  N1  UNL     1       8.587   5.998  25.567  1.00  0.00    -0.298 N 
HETATM    3  C8  UNL     1       8.520   4.738  26.153  1.00  0.00     0.248 C 
HETATM    4  O2  UNL     1       7.429   4.367  26.682  1.00  0.00    -0.271 OA
HETATM    5  C17 UNL     1       9.785   6.398  24.892  1.00  0.00     0.149 C 
HETATM    6  C18 UNL     1       9.528   7.276  23.673  1.00  0.00     0.123 C 
HETATM    7  C22 UNL     1       8.621   8.371  24.119  1.00  0.00     0.260 C 
HETATM    8  N6  UNL     1       7.348   7.804  24.515  1.00  0.00    -0.033 N 
HETATM    9  C23 UNL     1       6.853   7.125  23.297  1.00  0.00     0.280 C 
HETATM   10  C24 UNL     1       6.467   8.917  24.711  1.00  0.00     0.280 C 
ENDROOT
BRANCH   1  11
HETATM   11  C6  UNL     1       7.096   7.429  26.942  1.00  0.00     0.089 C 
BRANCH  11  12
HETATM   12  C5  UNL     1       8.154   7.486  27.968  1.00  0.00     0.061 C 
BRANCH  12  13
HETATM   13  C4  UNL     1       7.492   7.141  29.314  1.00  0.00     0.217 C 
BRANCH  13  14
HETATM   14  O1  UNL     1       7.930   7.903  30.352  1.00  0.00    -0.363 OA
BRANCH  14  15
HETATM   15  C3  UNL     1       8.038   9.252  30.139  1.00  0.00     0.197 C 
BRANCH  15  16
HETATM   16  C2  UNL     1       6.647   9.824  30.294  1.00  0.00    -0.011 C 
HETATM   17  C1  UNL     1       6.245  10.758  29.453  1.00  0.00     0.009 C 
ENDBRANCH  15  16
ENDBRANCH  14  15
ENDBRANCH  13  14
BRANCH  13  18
HETATM   18  N7  UNL     1       7.466   5.728  29.496  1.00  0.00    -0.393 N 
ATOM     19  H7  UNL     1       8.312   5.168  29.387  1.00  0.00     0.156 HD
BRANCH  18  20
HETATM   20  C25 UNL     1       6.229   5.123  29.833  1.00  0.00     0.079 C 
HETATM   21  C26 UNL     1       6.263   4.001  30.806  1.00  0.00     0.025 C 
HETATM   22  C27 UNL     1       5.479   4.428  32.033  1.00  0.00     0.002 C 
HETATM   23  C28 UNL     1       4.587   5.528  31.563  1.00  0.00     0.002 C 
HETATM   24  C29 UNL     1       5.318   6.200  30.446  1.00  0.00     0.025 C 
ENDBRANCH  18  20
ENDBRANCH  13  18
ENDBRANCH  12  13
ENDBRANCH  11  12
ENDBRANCH   1  11
BRANCH   3  25
HETATM   25  C9  UNL     1       9.628   3.758  26.215  1.00  0.00     0.177 C 
BRANCH  25  26
HETATM   26  C10 UNL     1       9.865   3.154  27.553  1.00  0.00     0.035 C 
BRANCH  26  27
HETATM   27  C11 UNL     1       9.411   1.792  27.837  1.00  0.00     0.004 C 
BRANCH  27  28
HETATM   28  C12 UNL     1       8.470   1.434  28.895  1.00  0.00     0.027 C 
BRANCH  28  29
HETATM   29  C13 UNL     1       7.034   1.253  28.561  1.00  0.00     0.229 C 
BRANCH  29  30
HETATM   30  N2  UNL     1       6.549   1.689  27.300  1.00  0.00    -0.079 N 
ATOM     31  H23 UNL     1       6.710   2.693  27.219  1.00  0.00     0.274 HD
ATOM     32  H22 UNL     1       7.165   1.326  26.572  1.00  0.00     0.274 HD
ATOM     33  H21 UNL     1       5.583   1.492  27.038  1.00  0.00     0.274 HD
ENDBRANCH  29  30
ENDBRANCH  28  29
ENDBRANCH  27  28
ENDBRANCH  26  27
ENDBRANCH  25  26
BRANCH  25  34
HETATM   34  N3  UNL     1       9.546   2.777  25.176  1.00  0.00    -0.343 N 
HETATM   35  C14 UNL     1      10.584   2.594  24.200  1.00  0.00     0.290 C 
HETATM   36  O3  UNL     1      11.587   3.337  24.294  1.00  0.00    -0.267 OA
ATOM     37  H3  UNL     1       8.717   2.185  25.127  1.00  0.00     0.163 HD
BRANCH  35  38
HETATM   38  C15 UNL     1      10.538   1.599  23.113  1.00  0.00     0.318 C 
HETATM   39  C16 UNL     1      11.865   1.575  22.343  1.00  0.00     0.101 C 
HETATM   40  F1  UNL     1       9.510   1.807  22.223  1.00  0.00    -0.196 F 
HETATM   41  F2  UNL     1      10.403   0.287  23.584  1.00  0.00    -0.196 F 
ENDBRANCH  35  38
ENDBRANCH  25  34
ENDBRANCH   3  25
BRANCH   6  42
HETATM   42  C19 UNL     1      10.830   7.875  23.189  1.00  0.00     0.225 C 
HETATM   43  O4  UNL     1      11.140   7.684  21.989  1.00  0.00    -0.273 OA
HETATM   44  N4  UNL     1      11.634   8.607  24.072  1.00  0.00    -0.356 N 
ATOM     45  H4  UNL     1      11.255   8.691  25.015  1.00  0.00     0.162 HD
BRANCH  44  46
HETATM   46  C20 UNL     1      12.881   9.252  23.885  1.00  0.00     0.183 C 
BRANCH  46  47
HETATM   47  C21 UNL     1      13.654   9.653  25.090  1.00  0.00     0.334 C 
BRANCH  47  48
HETATM   48  N5  UNL     1      13.774  11.062  25.224  1.00  0.00    -0.051 N 
ATOM     49  H53 UNL     1      14.752  11.350  25.196  1.00  0.00     0.277 HD
ATOM     50  H52 UNL     1      13.437  11.539  24.387  1.00  0.00     0.277 HD
ATOM     51  H51 UNL     1      13.311  11.421  26.059  1.00  0.00     0.277 HD
ENDBRANCH  47  48
BRANCH  47  52
HETATM   52  O5  UNL     1      12.943   9.231  26.256  1.00  0.00    -0.369 OA
ATOM     53  H5  UNL     1      13.482   9.397  27.021  1.00  0.00     0.212 HD
ENDBRANCH  47  52
ENDBRANCH  46  47
ENDBRANCH  44  46
ENDBRANCH   6  42
TORSDOF 21
ENDMDL
MODEL 3
REMARK VINA RESULT: -6.991169940      1.064      1.891
REMARK  21 active torsions:
REMARK  status: ('A' for Active; 'I' for Inactive)
REMARK    1  A    between atoms: C2_2  and  C3_3 
REMARK    2  A    between atoms: C3_3  and  O1_4 
REMARK    3  A    between atoms: O1_4  and  C4_5 
REMARK    4  A    between atoms: C4_5  and  C5_6 
REMARK    5  A    between atoms: C4_5  and  N7_47 
REMARK    6  A    between atoms: C5_6  and  C6_7 
REMARK    7  A    between atoms: C6_7  and  C7_8 
REMARK       I    between atoms: N1_9  and  C8_10 
REMARK    8  A    between atoms: C8_10  and  C9_12 
REMARK    9  A    between atoms: C9_12  and  C10_13 
REMARK   10  A    between atoms: C9_12  and  N3_21 
REMARK   11  A    between atoms: C10_13  and  C11_14 
REMARK   12  A    between atoms: C11_14  and  C12_15 
REMARK   13  A    between atoms: C12_15  and  C13_16 
REMARK   14  A    between atoms: C13_16  and  N2_17 
REMARK       I    between atoms: N3_21  and  C14_23 
REMARK   15  A    between atoms: C14_23  and  C15_25 
REMARK   16  A    between atoms: C18_30  and  C19_31 
REMARK       I    between atoms: C19_31  and  N4_33 
REMARK   17  A    between atoms: N4_33  and  C20_35 
REMARK   18  A    between atoms: C20_35  and  C21_36 
REMARK   19  A    between atoms: C21_36  and  N5_37 
REMARK   20  A    between atoms: C21_36  and  O5_41 
REMARK   21  A    between atoms: N7_47  and  C25_49 
ROOT
HETATM    1  C7  UNL     1       7.382   6.950  25.324  1.00  0.00     0.188 C 
HETATM    2  N1  UNL     1       8.526   6.071  25.301  1.00  0.00    -0.298 N 
HETATM    3  C8  UNL     1       8.485   4.818  25.903  1.00  0.00     0.248 C 
HETATM    4  O2  UNL     1       7.405   4.436  26.446  1.00  0.00    -0.271 OA
HETATM    5  C17 UNL     1       9.712   6.483  24.612  1.00  0.00     0.149 C 
HETATM    6  C18 UNL     1       9.431   7.342  23.384  1.00  0.00     0.123 C 
HETATM    7  C22 UNL     1       8.509   8.427  23.824  1.00  0.00     0.260 C 
HETATM    8  N6  UNL     1       7.249   7.844  24.237  1.00  0.00    -0.033 N 
HETATM    9  C23 UNL     1       6.756   7.141  23.031  1.00  0.00     0.280 C 
HETATM   10  C24 UNL     1       6.351   8.945  24.426  1.00  0.00     0.280 C 
ENDROOT
BRANCH   1  11
HETATM   11  C6  UNL     1       7.023   7.495  26.670  1.00  0.00     0.089 C 
BRANCH  11  12
HETATM   12  C5  UNL     1       5.804   6.980  27.322  1.00  0.00     0.061 C 
BRANCH  12  13
HETATM   13  C4  UNL     1       6.228   6.432  28.696  1.00  0.00     0.217 C 
BRANCH  13  14
HETATM   14  O1  UNL     1       7.524   6.695  29.016  1.00  0.00    -0.363 OA
BRANCH  14  15
HETATM   15  C3  UNL     1       7.753   7.455  30.132  1.00  0.00     0.197 C 
BRANCH  15  16
HETATM   16  C2  UNL     1       9.166   7.981  30.012  1.00  0.00    -0.011 C 
HETATM   17  C1  UNL     1       9.932   7.530  29.036  1.00  0.00     0.009 C 
ENDBRANCH  15  16
ENDBRANCH  14  15
ENDBRANCH  13  14
BRANCH  13  18
HETATM   18  N7  UNL     1       5.769   5.091  28.849  1.00  0.00    -0.393 N 
ATOM     19  H7  UNL     1       5.886   4.407  28.101  1.00  0.00     0.156 HD
BRANCH  18  20
HETATM   20  C25 UNL     1       5.145   4.737  30.071  1.00  0.00     0.079 C 
HETATM   21  C26 UNL     1       4.007   3.784  30.003  1.00  0.00     0.025 C 
HETATM   22  C27 UNL     1       4.406   2.532  30.764  1.00  0.00     0.002 C 
HETATM   23  C28 UNL     1       5.504   2.963  31.678  1.00  0.00     0.002 C 
HETATM   24  C29 UNL     1       6.202   4.085  30.979  1.00  0.00     0.025 C 
ENDBRANCH  18  20
ENDBRANCH  13  18
ENDBRANCH  12  13
ENDBRANCH  11  12
ENDBRANCH   1  11
BRANCH   3  25
HETATM   25  C9  UNL     1       9.610   3.858  25.968  1.00  0.00     0.177 C 
BRANCH  25  26
HETATM   26  C10 UNL     1       9.888   3.300  27.318  1.00  0.00     0.035 C 
BRANCH  26  27
HETATM   27  C11 UNL     1       9.475   1.936  27.651  1.00  0.00     0.004 C 
BRANCH  27  28
HETATM   28  C12 UNL     1       8.621   1.580  28.781  1.00  0.00     0.027 C 
BRANCH  28  29
HETATM   29  C13 UNL     1       7.156   1.445  28.571  1.00  0.00     0.229 C 
BRANCH  29  30
HETATM   30  N2  UNL     1       6.600   1.756  27.304  1.00  0.00    -0.079 N 
ATOM     31  H23 UNL     1       5.664   2.137  27.443  1.00  0.00     0.274 HD
ATOM     32  H22 UNL     1       7.092   2.563  26.922  1.00  0.00     0.274 HD
ATOM     33  H21 UNL     1       6.552   1.033  26.585  1.00  0.00     0.274 HD
ENDBRANCH  29  30
ENDBRANCH  28  29
ENDBRANCH  27  28
ENDBRANCH  26  27
ENDBRANCH  25  26
BRANCH  25  34
HETATM   34  N3  UNL     1       9.519   2.844  24.962  1.00  0.00    -0.343 N 
HETATM   35  C14 UNL     1      10.601   2.541  24.068  1.00  0.00     0.290 C 
HETATM   36  O3  UNL     1      11.651   3.207  24.204  1.00  0.00    -0.267 OA
ATOM     37  H3  UNL     1       8.650   2.315  24.878  1.00  0.00     0.163 HD
BRANCH  35  38
HETATM   38  C15 UNL     1      10.548   1.508  23.017  1.00  0.00     0.318 C 
HETATM   39  C16 UNL     1      11.863   1.468  22.229  1.00  0.00     0.101 C 
HETATM   40  F1  UNL     1       9.505   1.676  22.136  1.00  0.00    -0.196 F 
HETATM   41  F2  UNL     1      10.431   0.212  23.535  1.00  0.00    -0.196 F 
ENDBRANCH  35  38
ENDBRANCH  25  34
ENDBRANCH   3  25
BRANCH   6  42
HETATM   42  C19 UNL     1      10.719   7.956  22.882  1.00  0.00     0.225 C 
HETATM   43  O4  UNL     1      11.064   7.688  21.706  1.00  0.00    -0.273 OA
HETATM   44  N4  UNL     1      11.472   8.786  23.722  1.00  0.00    -0.356 N 
ATOM     45  H4  UNL     1      11.067   8.925  24.647  1.00  0.00     0.162 HD
BRANCH  44  46
HETATM   46  C20 UNL     1      12.696   9.467  23.511  1.00  0.00     0.183 C 
BRANCH  46  47
HETATM   47  C21 UNL     1      13.582   9.700  24.682  1.00  0.00     0.334 C 
BRANCH  47  48
HETATM   48  N5  UNL     1      13.910  11.071  24.860  1.00  0.00    -0.051 N 
ATOM     49  H53 UNL     1      14.548  11.195  25.646  1.00  0.00     0.277 HD
ATOM     50  H52 UNL     1      14.510  11.404  24.105  1.00  0.00     0.277 HD
ATOM     51  H51 UNL     1      13.087  11.664  24.961  1.00  0.00     0.277 HD
ENDBRANCH  47  48
BRANCH  47  52
HETATM   52  O5  UNL     1      12.881   9.330  25.872  1.00  0.00    -0.369 OA
ATOM     53  H5  UNL     1      12.114   8.825  25.632  1.00  0.00     0.212 HD
ENDBRANCH  47  52
ENDBRANCH  46  47
ENDBRANCH  44  46
ENDBRANCH   6  42
TORSDOF 21
ENDMDL
MODEL 4
REMARK VINA RESULT: -6.828366988      1.630      2.302
REMARK  21 active torsions:
REMARK  status: ('A' for Active; 'I' for Inactive)
REMARK    1  A    between atoms: C2_2  and  C3_3 
REMARK    2  A    between atoms: C3_3  and  O1_4 
REMARK    3  A    between atoms: O1_4  and  C4_5 
REMARK    4  A    between atoms: C4_5  and  C5_6 
REMARK    5  A    between atoms: C4_5  and  N7_47 
REMARK    6  A    between atoms: C5_6  and  C6_7 
REMARK    7  A    between atoms: C6_7  and  C7_8 
REMARK       I    between atoms: N1_9  and  C8_10 
REMARK    8  A    between atoms: C8_10  and  C9_12 
REMARK    9  A    between atoms: C9_12  and  C10_13 
REMARK   10  A    between atoms: C9_12  and  N3_21 
REMARK   11  A    between atoms: C10_13  and  C11_14 
REMARK   12  A    between atoms: C11_14  and  C12_15 
REMARK   13  A    between atoms: C12_15  and  C13_16 
REMARK   14  A    between atoms: C13_16  and  N2_17 
REMARK       I    between atoms: N3_21  and  C14_23 
REMARK   15  A    between atoms: C14_23  and  C15_25 
REMARK   16  A    between atoms: C18_30  and  C19_31 
REMARK       I    between atoms: C19_31  and  N4_33 
REMARK   17  A    between atoms: N4_33  and  C20_35 
REMARK   18  A    between atoms: C20_35  and  C21_36 
REMARK   19  A    between atoms: C21_36  and  N5_37 
REMARK   20  A    between atoms: C21_36  and  O5_41 
REMARK   21  A    between atoms: N7_47  and  C25_49 
ROOT
HETATM    1  C7  UNL     1       6.548   6.550  25.292  1.00  0.00     0.188 C 
HETATM    2  N1  UNL     1       7.892   6.037  25.174  1.00  0.00    -0.298 N 
HETATM    3  C8  UNL     1       8.170   4.690  25.382  1.00  0.00     0.248 C 
HETATM    4  O2  UNL     1       7.212   3.901  25.643  1.00  0.00    -0.271 OA
HETATM    5  C17 UNL     1       8.951   6.924  24.797  1.00  0.00     0.149 C 
HETATM    6  C18 UNL     1       8.506   8.024  23.839  1.00  0.00     0.123 C 
HETATM    7  C22 UNL     1       7.297   8.652  24.441  1.00  0.00     0.260 C 
HETATM    8  N6  UNL     1       6.229   7.674  24.496  1.00  0.00    -0.033 N 
HETATM    9  C23 UNL     1       6.016   7.281  23.086  1.00  0.00     0.280 C 
HETATM   10  C24 UNL     1       5.051   8.401  24.868  1.00  0.00     0.280 C 
ENDROOT
BRANCH   1  11
HETATM   11  C6  UNL     1       5.981   6.541  26.676  1.00  0.00     0.089 C 
BRANCH  11  12
HETATM   12  C5  UNL     1       6.891   6.837  27.798  1.00  0.00     0.061 C 
BRANCH  12  13
HETATM   13  C4  UNL     1       6.010   7.113  29.028  1.00  0.00     0.217 C 
BRANCH  13  14
HETATM   14  O1  UNL     1       6.582   7.950  29.936  1.00  0.00    -0.363 OA
BRANCH  14  15
HETATM   15  C3  UNL     1       7.657   8.688  29.518  1.00  0.00     0.197 C 
BRANCH  15  16
HETATM   16  C2  UNL     1       8.869   8.118  30.221  1.00  0.00    -0.011 C 
HETATM   17  C1  UNL     1       9.864   7.648  29.493  1.00  0.00     0.009 C 
ENDBRANCH  15  16
ENDBRANCH  14  15
ENDBRANCH  13  14
BRANCH  13  18
HETATM   18  N7  UNL     1       5.453   5.893  29.513  1.00  0.00    -0.393 N 
ATOM     19  H7  UNL     1       4.563   5.544  29.158  1.00  0.00     0.156 HD
BRANCH  18  20
HETATM   20  C25 UNL     1       6.175   5.181  30.503  1.00  0.00     0.079 C 
HETATM   21  C26 UNL     1       5.462   4.864  31.768  1.00  0.00     0.025 C 
HETATM   22  C27 UNL     1       5.371   3.352  31.881  1.00  0.00     0.002 C 
HETATM   23  C28 UNL     1       6.454   2.829  30.998  1.00  0.00     0.002 C 
HETATM   24  C29 UNL     1       6.612   3.834  29.904  1.00  0.00     0.025 C 
ENDBRANCH  18  20
ENDBRANCH  13  18
ENDBRANCH  12  13
ENDBRANCH  11  12
ENDBRANCH   1  11
BRANCH   3  25
HETATM   25  C9  UNL     1       9.514   4.070  25.323  1.00  0.00     0.177 C 
BRANCH  25  26
HETATM   26  C10 UNL     1      10.199   3.916  26.634  1.00  0.00     0.035 C 
BRANCH  26  27
HETATM   27  C11 UNL     1       9.471   3.385  27.788  1.00  0.00     0.004 C 
BRANCH  27  28
HETATM   28  C12 UNL     1       9.523   1.995  28.233  1.00  0.00     0.027 C 
BRANCH  28  29
HETATM   29  C13 UNL     1       8.390   1.088  27.920  1.00  0.00     0.229 C 
BRANCH  29  30
HETATM   30  N2  UNL     1       7.250   1.600  27.247  1.00  0.00    -0.079 N 
ATOM     31  H23 UNL     1       6.939   2.444  27.728  1.00  0.00     0.274 HD
ATOM     32  H22 UNL     1       7.546   1.978  26.347  1.00  0.00     0.274 HD
ATOM     33  H21 UNL     1       6.442   0.995  27.095  1.00  0.00     0.274 HD
ENDBRANCH  29  30
ENDBRANCH  28  29
ENDBRANCH  27  28
ENDBRANCH  26  27
ENDBRANCH  25  26
BRANCH  25  34
HETATM   34  N3  UNL     1       9.522   2.863  24.554  1.00  0.00    -0.343 N 
HETATM   35  C14 UNL     1      10.489   2.609  23.522  1.00  0.00     0.290 C 
HETATM   36  O3  UNL     1      11.344   3.499  23.316  1.00  0.00    -0.267 OA
ATOM     37  H3  UNL     1       8.813   2.155  24.746  1.00  0.00     0.163 HD
BRANCH  35  38
HETATM   38  C15 UNL     1      10.531   1.383  22.705  1.00  0.00     0.318 C 
HETATM   39  C16 UNL     1      11.882   1.254  21.990  1.00  0.00     0.101 C 
HETATM   40  F1  UNL     1       9.523   1.311  21.771  1.00  0.00    -0.196 F 
HETATM   41  F2  UNL     1      10.450   0.215  23.474  1.00  0.00    -0.196 F 
ENDBRANCH  35  38
ENDBRANCH  25  34
ENDBRANCH   3  25
BRANCH   6  42
HETATM   42  C19 UNL     1       9.596   9.064  23.711  1.00  0.00     0.225 C 
HETATM   43  O4  UNL     1       9.251  10.268  23.759  1.00  0.00    -0.273 OA
HETATM   44  N4  UNL     1      10.929   8.665  23.547  1.00  0.00    -0.356 N 
ATOM     45  H4  UNL     1      11.067   7.655  23.535  1.00  0.00     0.162 HD
BRANCH  44  46
HETATM   46  C20 UNL     1      12.119   9.418  23.395  1.00  0.00     0.183 C 
BRANCH  46  47
HETATM   47  C21 UNL     1      12.391  10.044  22.074  1.00  0.00     0.334 C 
BRANCH  47  48
HETATM   48  N5  UNL     1      11.680  11.259  21.883  1.00  0.00    -0.051 N 
ATOM     49  H53 UNL     1      11.382  11.652  22.776  1.00  0.00     0.277 HD
ATOM     50  H52 UNL     1      12.306  12.004  21.576  1.00  0.00     0.277 HD
ATOM     51  H51 UNL     1      10.890  11.160  21.247  1.00  0.00     0.277 HD
ENDBRANCH  47  48
BRANCH  47  52
HETATM   52  O5  UNL     1      13.772  10.411  22.012  1.00  0.00    -0.369 OA
ATOM     53  H5  UNL     1      14.183   9.940  21.297  1.00  0.00     0.212 HD
ENDBRANCH  47  52
ENDBRANCH  46  47
ENDBRANCH  44  46
ENDBRANCH   6  42
TORSDOF 21
ENDMDL
MODEL 5
REMARK VINA RESULT: -6.819560246      3.680      6.907
REMARK  21 active torsions:
REMARK  status: ('A' for Active; 'I' for Inactive)
REMARK    1  A    between atoms: C2_2  and  C3_3 
REMARK    2  A    between atoms: C3_3  and  O1_4 
REMARK    3  A    between atoms: O1_4  and  C4_5 
REMARK    4  A    between atoms: C4_5  and  C5_6 
REMARK    5  A    between atoms: C4_5  and  N7_47 
REMARK    6  A    between atoms: C5_6  and  C6_7 
REMARK    7  A    between atoms: C6_7  and  C7_8 
REMARK       I    between atoms: N1_9  and  C8_10 
REMARK    8  A    between atoms: C8_10  and  C9_12 
REMARK    9  A    between atoms: C9_12  and  C10_13 
REMARK   10  A    between atoms: C9_12  and  N3_21 
REMARK   11  A    between atoms: C10_13  and  C11_14 
REMARK   12  A    between atoms: C11_14  and  C12_15 
REMARK   13  A    between atoms: C12_15  and  C13_16 
REMARK   14  A    between atoms: C13_16  and  N2_17 
REMARK       I    between atoms: N3_21  and  C14_23 
REMARK   15  A    between atoms: C14_23  and  C15_25 
REMARK   16  A    between atoms: C18_30  and  C19_31 
REMARK       I    between atoms: C19_31  and  N4_33 
REMARK   17  A    between atoms: N4_33  and  C20_35 
REMARK   18  A    between atoms: C20_35  and  C21_36 
REMARK   19  A    between atoms: C21_36  and  N5_37 
REMARK   20  A    between atoms: C21_36  and  O5_41 
REMARK   21  A    between atoms: N7_47  and  C25_49 
ROOT
HETATM    1  C7  UNL     1      10.219   6.164  24.837  1.00  0.00     0.188 C 
HETATM    2  N1  UNL     1      10.218   7.312  23.962  1.00  0.00    -0.298 N 
HETATM    3  C8  UNL     1       9.159   7.555  23.093  1.00  0.00     0.248 C 
HETATM    4  O2  UNL     1       8.165   6.769  23.106  1.00  0.00    -0.271 OA
HETATM    5  C17 UNL     1      11.309   8.237  24.019  1.00  0.00     0.149 C 
HETATM    6  C18 UNL     1      11.902   8.389  25.416  1.00  0.00     0.123 C 
HETATM    7  C22 UNL     1      12.173   7.012  25.916  1.00  0.00     0.260 C 
HETATM    8  N6  UNL     1      10.919   6.300  26.058  1.00  0.00    -0.033 N 
HETATM    9  C23 UNL     1      10.144   7.108  27.025  1.00  0.00     0.280 C 
HETATM   10  C24 UNL     1      11.234   5.084  26.747  1.00  0.00     0.280 C 
ENDROOT
BRANCH   1  11
HETATM   11  C6  UNL     1      10.342   4.840  24.152  1.00  0.00     0.089 C 
BRANCH  11  12
HETATM   12  C5  UNL     1       9.167   3.949  24.153  1.00  0.00     0.061 C 
BRANCH  12  13
HETATM   13  C4  UNL     1       9.479   2.797  25.123  1.00  0.00     0.217 C 
BRANCH  13  14
HETATM   14  O1  UNL     1       9.894   1.658  24.506  1.00  0.00    -0.363 OA
BRANCH  14  15
HETATM   15  C3  UNL     1      11.036   1.733  23.753  1.00  0.00     0.197 C 
BRANCH  15  16
HETATM   16  C2  UNL     1      10.685   1.192  22.385  1.00  0.00    -0.011 C 
HETATM   17  C1  UNL     1      11.662   0.836  21.571  1.00  0.00     0.009 C 
ENDBRANCH  15  16
ENDBRANCH  14  15
ENDBRANCH  13  14
BRANCH  13  18
HETATM   18  N7  UNL     1       8.441   2.681  26.093  1.00  0.00    -0.393 N 
ATOM     19  H7  UNL     1       7.459   2.719  25.820  1.00  0.00     0.156 HD
BRANCH  18  20
HETATM   20  C25 UNL     1       8.815   2.513  27.450  1.00  0.00     0.079 C 
HETATM   21  C26 UNL     1       8.248   3.470  28.436  1.00  0.00     0.025 C 
HETATM   22  C27 UNL     1       7.386   2.680  29.404  1.00  0.00     0.002 C 
HETATM   23  C28 UNL     1       7.872   1.273  29.301  1.00  0.00     0.002 C 
HETATM   24  C29 UNL     1       8.370   1.112  27.901  1.00  0.00     0.025 C 
ENDBRANCH  18  20
ENDBRANCH  13  18
ENDBRANCH  12  13
ENDBRANCH  11  12
ENDBRANCH   1  11
BRANCH   3  25
HETATM   25  C9  UNL     1       9.077   8.679  22.132  1.00  0.00     0.177 C 
BRANCH  25  26
HETATM   26  C10 UNL     1       9.143   8.291  20.698  1.00  0.00     0.035 C 
BRANCH  26  27
HETATM   27  C11 UNL     1      10.223   8.793  19.848  1.00  0.00     0.004 C 
BRANCH  27  28
HETATM   28  C12 UNL     1      10.889  10.081  20.026  1.00  0.00     0.027 C 
BRANCH  28  29
HETATM   29  C13 UNL     1      12.091  10.164  20.894  1.00  0.00     0.229 C 
BRANCH  29  30
HETATM   30  N2  UNL     1      12.071  11.004  22.038  1.00  0.00    -0.079 N 
ATOM     31  H23 UNL     1      11.100  11.211  22.273  1.00  0.00     0.274 HD
ATOM     32  H22 UNL     1      12.362  10.457  22.848  1.00  0.00     0.274 HD
ATOM     33  H21 UNL     1      12.597  11.878  22.029  1.00  0.00     0.274 HD
ENDBRANCH  29  30
ENDBRANCH  28  29
ENDBRANCH  27  28
ENDBRANCH  26  27
ENDBRANCH  25  26
BRANCH  25  34
HETATM   34  N3  UNL     1       7.981   9.556  22.414  1.00  0.00    -0.343 N 
HETATM   35  C14 UNL     1       8.132  10.762  23.179  1.00  0.00     0.290 C 
HETATM   36  O3  UNL     1       9.281  11.026  23.599  1.00  0.00    -0.267 OA
ATOM     37  H3  UNL     1       7.057   9.315  22.056  1.00  0.00     0.163 HD
BRANCH  35  38
HETATM   38  C15 UNL     1       7.031  11.690  23.495  1.00  0.00     0.318 C 
HETATM   39  C16 UNL     1       5.859  10.941  24.143  1.00  0.00     0.101 C 
HETATM   40  F1  UNL     1       6.567  12.383  22.401  1.00  0.00    -0.196 F 
HETATM   41  F2  UNL     1       7.386  12.646  24.455  1.00  0.00    -0.196 F 
ENDBRANCH  35  38
ENDBRANCH  25  34
ENDBRANCH   3  25
BRANCH   6  42
HETATM   42  C19 UNL     1      13.203   9.156  25.340  1.00  0.00     0.225 C 
HETATM   43  O4  UNL     1      13.661   9.401  24.199  1.00  0.00    -0.273 OA
HETATM   44  N4  UNL     1      13.845   9.562  26.517  1.00  0.00    -0.356 N 
ATOM     45  H4  UNL     1      13.355   9.304  27.374  1.00  0.00     0.162 HD
BRANCH  44  46
HETATM   46  C20 UNL     1      15.055  10.269  26.727  1.00  0.00     0.183 C 
BRANCH  46  47
HETATM   47  C21 UNL     1      15.186  11.089  27.960  1.00  0.00     0.334 C 
BRANCH  47  48
HETATM   48  N5  UNL     1      15.822  10.391  29.021  1.00  0.00    -0.051 N 
ATOM     49  H53 UNL     1      16.225  11.041  29.695  1.00  0.00     0.277 HD
ATOM     50  H52 UNL     1      15.135   9.935  29.621  1.00  0.00     0.277 HD
ATOM     51  H51 UNL     1      16.521   9.726  28.693  1.00  0.00     0.277 HD
ENDBRANCH  47  48
BRANCH  47  52
HETATM   52  O5  UNL     1      16.041  12.203  27.685  1.00  0.00    -0.369 OA
ATOM     53  H5  UNL     1      16.618  12.337  28.427  1.00  0.00     0.212 HD
ENDBRANCH  47  52
ENDBRANCH  46  47
ENDBRANCH  44  46
ENDBRANCH   6  42
TORSDOF 21
ENDMDL
