MODEL 1
REMARK VINA RESULT: -8.393274153      0.000      0.000
REMARK  19 active torsions:
REMARK  status: ('A' for Active; 'I' for Inactive)
REMARK    1  A    between atoms: C2_2  and  C3_3 
REMARK    2  A    between atoms: C3_3  and  N1_4 
REMARK    3  A    between atoms: N1_4  and  C4_6 
REMARK    4  A    between atoms: C4_6  and  C5_7 
REMARK    5  A    between atoms: C5_7  and  O1_8 
REMARK    6  A    between atoms: C5_7  and  C13_16 
REMARK    7  A    between atoms: O1_8  and  C6_9 
REMARK    8  A    between atoms: C6_9  and  C7_10 
REMARK    9  A    between atoms: C13_16  and  C14_17 
REMARK   10  A    between atoms: C13_16  and  N2_27 
REMARK   11  A    between atoms: C14_17  and  C15_18 
REMARK   12  A    between atoms: C15_18  and  C16_19 
REMARK   13  A    between atoms: N2_27  and  C22_29 
REMARK   14  A    between atoms: C22_29  and  C23_30 
REMARK   15  A    between atoms: C22_29  and  C27_37 
REMARK   16  A    between atoms: C23_30  and  C24_31 
REMARK   17  A    between atoms: C24_31  and  C25_32 
REMARK   18  A    between atoms: C25_32  and  N3_33 
REMARK       I    between atoms: N3_33  and  C26_34 
REMARK   19  A    between atoms: C27_37  and  N6_38 
ROOT
HETATM    1  C13 UNL     1      10.799   4.336  26.425  1.00  0.00     0.140 C 
ENDROOT
BRANCH   1   2
HETATM    2  C5  UNL     1      10.035   4.316  25.181  1.00  0.00     0.084 C 
BRANCH   2   3
HETATM    3  C4  UNL     1      10.864   3.969  23.983  1.00  0.00     0.117 C 
BRANCH   3   4
HETATM    4  N1  UNL     1      11.539   2.735  24.010  1.00  0.00    -0.393 N 
ATOM      5  H1  UNL     1      12.539   2.638  24.184  1.00  0.00     0.159 HD
BRANCH   4   6
HETATM    6  C3  UNL     1      10.652   1.620  23.761  1.00  0.00     0.145 C 
BRANCH   6   7
HETATM    7  C2  UNL     1      10.677   1.216  22.328  1.00  0.00    -0.018 C 
HETATM    8  C1  UNL     1      11.778   0.931  21.652  1.00  0.00     0.008 C 
ENDBRANCH   6   7
ENDBRANCH   4   6
ENDBRANCH   3   4
ENDBRANCH   2   3
BRANCH   2   9
HETATM    9  O1  UNL     1       8.733   3.947  25.130  1.00  0.00    -0.347 OA
BRANCH   9  10
HETATM   10  C6  UNL     1       7.872   4.751  24.431  1.00  0.00     0.214 C 
BRANCH  10  11
HETATM   11  C7  UNL     1       6.487   4.736  24.933  1.00  0.00    -0.034 A 
HETATM   12  C8  UNL     1       6.186   4.005  26.054  1.00  0.00     0.009 A 
HETATM   13  C9  UNL     1       4.882   3.975  26.534  1.00  0.00     0.001 A 
HETATM   14  C10 UNL     1       3.879   4.674  25.897  1.00  0.00     0.000 A 
HETATM   15  C11 UNL     1       4.178   5.405  24.778  1.00  0.00     0.001 A 
HETATM   16  C12 UNL     1       5.463   5.441  24.295  1.00  0.00     0.009 A 
ENDBRANCH  10  11
ENDBRANCH   9  10
ENDBRANCH   2   9
ENDBRANCH   1   2
BRANCH   1  17
HETATM   17  C14 UNL     1      10.001   3.742  27.594  1.00  0.00     0.036 C 
BRANCH  17  18
HETATM   18  C15 UNL     1       9.590   2.345  27.558  1.00  0.00     0.041 C 
BRANCH  18  19
HETATM   19  C16 UNL     1       8.513   2.175  28.625  1.00  0.00    -0.052 A 
HETATM   20  C17 UNL     1       7.795   3.254  29.079  1.00  0.00     0.049 A 
HETATM   21  C18 UNL     1       6.806   3.124  30.043  1.00  0.00     0.119 A 
HETATM   22  F1  UNL     1       6.093   4.188  30.494  1.00  0.00    -0.206 F 
HETATM   23  C19 UNL     1       6.554   1.856  30.551  1.00  0.00     0.084 A 
HETATM   24  C20 UNL     1       7.260   0.765  30.113  1.00  0.00     0.119 A 
HETATM   25  F2  UNL     1       7.017  -0.462  30.602  1.00  0.00    -0.206 F 
HETATM   26  C21 UNL     1       8.236   0.939  29.149  1.00  0.00     0.049 A 
ENDBRANCH  18  19
ENDBRANCH  17  18
ENDBRANCH   1  17
BRANCH   1  27
HETATM   27  N2  UNL     1      11.128   5.640  26.985  1.00  0.00    -0.381 N 
ATOM     28  H2  UNL     1      12.028   5.763  27.449  1.00  0.00     0.160 HD
BRANCH  27  29
HETATM   29  C22 UNL     1      10.267   6.714  26.909  1.00  0.00     0.022 C 
BRANCH  29  30
HETATM   30  C23 UNL     1      10.053   7.183  28.370  1.00  0.00     0.064 C 
BRANCH  30  31
HETATM   31  C24 UNL     1       8.634   7.217  28.793  1.00  0.00     0.065 C 
BRANCH  31  32
HETATM   32  C25 UNL     1       8.600   8.038  30.117  1.00  0.00     0.158 C 
BRANCH  32  33
HETATM   33  N3  UNL     1       7.590   8.890  30.228  1.00  0.00    -0.393 NA
HETATM   34  C26 UNL     1       6.805   9.766  30.216  1.00  0.00     0.274 C 
HETATM   35  N4  UNL     1       5.531   9.590  30.927  1.00  0.00    -0.052 NA
HETATM   36  N5  UNL     1       6.949  11.057  29.557  1.00  0.00    -0.052 NA
ENDBRANCH  32  33
ENDBRANCH  31  32
ENDBRANCH  30  31
ENDBRANCH  29  30
BRANCH  29  37
HETATM   37  C27 UNL     1      10.330   7.779  25.915  1.00  0.00     0.131 C 
BRANCH  37  38
HETATM   38  N6  UNL     1       9.554   7.882  24.761  1.00  0.00    -0.224 N 
HETATM   39  C28 UNL     1      10.124   7.680  23.534  1.00  0.00     0.338 A 
HETATM   40  O2  UNL     1      11.334   7.393  23.369  1.00  0.00    -0.246 OA
HETATM   41  N7  UNL     1       9.389   7.785  22.413  1.00  0.00    -0.260 N 
HETATM   42  C29 UNL     1       8.088   8.087  22.428  1.00  0.00     0.332 A 
ATOM     43  H7  UNL     1       9.844   7.627  21.514  1.00  0.00     0.175 HD
HETATM   44  O3  UNL     1       7.395   8.187  21.362  1.00  0.00    -0.246 OA
HETATM   45  N8  UNL     1       7.513   8.289  23.604  1.00  0.00    -0.260 N 
HETATM   46  C30 UNL     1       8.258   8.183  24.750  1.00  0.00     0.338 A 
ATOM     47  H8  UNL     1       6.521   8.522  23.658  1.00  0.00     0.175 HD
HETATM   48  O4  UNL     1       7.576   8.403  25.787  1.00  0.00    -0.246 OA
ENDBRANCH  37  38
ENDBRANCH  29  37
ENDBRANCH  27  29
ENDBRANCH   1  27
TORSDOF 19
ENDMDL
MODEL 2
REMARK VINA RESULT: -8.195236521      1.002      2.019
REMARK  19 active torsions:
REMARK  status: ('A' for Active; 'I' for Inactive)
REMARK    1  A    between atoms: C2_2  and  C3_3 
REMARK    2  A    between atoms: C3_3  and  N1_4 
REMARK    3  A    between atoms: N1_4  and  C4_6 
REMARK    4  A    between atoms: C4_6  and  C5_7 
REMARK    5  A    between atoms: C5_7  and  O1_8 
REMARK    6  A    between atoms: C5_7  and  C13_16 
REMARK    7  A    between atoms: O1_8  and  C6_9 
REMARK    8  A    between atoms: C6_9  and  C7_10 
REMARK    9  A    between atoms: C13_16  and  C14_17 
REMARK   10  A    between atoms: C13_16  and  N2_27 
REMARK   11  A    between atoms: C14_17  and  C15_18 
REMARK   12  A    between atoms: C15_18  and  C16_19 
REMARK   13  A    between atoms: N2_27  and  C22_29 
REMARK   14  A    between atoms: C22_29  and  C23_30 
REMARK   15  A    between atoms: C22_29  and  C27_37 
REMARK   16  A    between atoms: C23_30  and  C24_31 
REMARK   17  A    between atoms: C24_31  and  C25_32 
REMARK   18  A    between atoms: C25_32  and  N3_33 
REMARK       I    between atoms: N3_33  and  C26_34 
REMARK   19  A    between atoms: C27_37  and  N6_38 
ROOT
HETATM    1  C13 UNL     1      10.641   4.276  26.203  1.00  0.00     0.140 C 
ENDROOT
BRANCH   1   2
HETATM    2  C5  UNL     1      10.061   4.171  24.868  1.00  0.00     0.084 C 
BRANCH   2   3
HETATM    3  C4  UNL     1      11.029   3.674  23.839  1.00  0.00     0.117 C 
BRANCH   3   4
HETATM    4  N1  UNL     1      11.399   2.318  23.912  1.00  0.00    -0.393 N 
ATOM      5  H1  UNL     1      11.915   1.911  24.692  1.00  0.00     0.159 HD
BRANCH   4   6
HETATM    6  C3  UNL     1      10.963   1.568  22.755  1.00  0.00     0.145 C 
BRANCH   6   7
HETATM    7  C2  UNL     1      12.083   1.345  21.799  1.00  0.00    -0.018 C 
HETATM    8  C1  UNL     1      12.116   0.374  20.901  1.00  0.00     0.008 C 
ENDBRANCH   6   7
ENDBRANCH   4   6
ENDBRANCH   3   4
ENDBRANCH   2   3
BRANCH   2   9
HETATM    9  O1  UNL     1       8.760   3.856  24.660  1.00  0.00    -0.347 OA
BRANCH   9  10
HETATM   10  C6  UNL     1       7.922   4.860  24.254  1.00  0.00     0.214 C 
BRANCH  10  11
HETATM   11  C7  UNL     1       6.568   4.789  24.832  1.00  0.00    -0.034 A 
HETATM   12  C8  UNL     1       6.353   4.023  25.949  1.00  0.00     0.009 A 
HETATM   13  C9  UNL     1       5.081   3.940  26.501  1.00  0.00     0.001 A 
HETATM   14  C10 UNL     1       4.022   4.622  25.938  1.00  0.00     0.000 A 
HETATM   15  C11 UNL     1       4.235   5.387  24.822  1.00  0.00     0.001 A 
HETATM   16  C12 UNL     1       5.488   5.476  24.270  1.00  0.00     0.009 A 
ENDBRANCH  10  11
ENDBRANCH   9  10
ENDBRANCH   2   9
ENDBRANCH   1   2
BRANCH   1  17
HETATM   17  C14 UNL     1       9.680   3.765  27.285  1.00  0.00     0.036 C 
BRANCH  17  18
HETATM   18  C15 UNL     1       9.603   2.338  27.572  1.00  0.00     0.041 C 
BRANCH  18  19
HETATM   19  C16 UNL     1       8.516   2.160  28.628  1.00  0.00    -0.052 A 
HETATM   20  C17 UNL     1       8.206   0.916  29.118  1.00  0.00     0.049 A 
HETATM   21  C18 UNL     1       7.227   0.729  30.082  1.00  0.00     0.119 A 
HETATM   22  F1  UNL     1       6.918  -0.501  30.569  1.00  0.00    -0.206 F 
HETATM   23  C19 UNL     1       6.552   1.849  30.551  1.00  0.00     0.084 A 
HETATM   24  C20 UNL     1       6.845   3.101  30.076  1.00  0.00     0.119 A 
HETATM   25  F2  UNL     1       6.194   4.186  30.528  1.00  0.00    -0.206 F 
HETATM   26  C21 UNL     1       7.829   3.243  29.115  1.00  0.00     0.049 A 
ENDBRANCH  18  19
ENDBRANCH  17  18
ENDBRANCH   1  17
BRANCH   1  27
HETATM   27  N2  UNL     1      10.900   5.616  26.714  1.00  0.00    -0.381 N 
ATOM     28  H2  UNL     1      11.863   5.890  26.909  1.00  0.00     0.160 HD
BRANCH  27  29
HETATM   29  C22 UNL     1       9.890   6.527  26.941  1.00  0.00     0.022 C 
BRANCH  29  30
HETATM   30  C23 UNL     1       9.966   6.867  28.450  1.00  0.00     0.064 C 
BRANCH  30  31
HETATM   31  C24 UNL     1       8.647   7.085  29.088  1.00  0.00     0.065 C 
BRANCH  31  32
HETATM   32  C25 UNL     1       8.823   8.314  30.030  1.00  0.00     0.158 C 
BRANCH  32  33
HETATM   33  N3  UNL     1       7.743   9.070  30.179  1.00  0.00    -0.393 NA
HETATM   34  C26 UNL     1       6.882   9.870  30.199  1.00  0.00     0.274 C 
HETATM   35  N4  UNL     1       5.652   9.576  30.948  1.00  0.00    -0.052 NA
HETATM   36  N5  UNL     1       6.887  11.172  29.545  1.00  0.00    -0.052 NA
ENDBRANCH  32  33
ENDBRANCH  31  32
ENDBRANCH  30  31
ENDBRANCH  29  30
BRANCH  29  37
HETATM   37  C27 UNL     1       9.546   7.641  26.067  1.00  0.00     0.131 C 
BRANCH  37  38
HETATM   38  N6  UNL     1      10.254   8.060  24.940  1.00  0.00    -0.224 N 
HETATM   39  C28 UNL     1       9.611   8.186  23.739  1.00  0.00     0.338 A 
HETATM   40  O2  UNL     1       8.391   7.949  23.575  1.00  0.00    -0.246 OA
HETATM   41  N7  UNL     1      10.283   8.581  22.643  1.00  0.00    -0.260 N 
HETATM   42  C29 UNL     1      11.588   8.867  22.660  1.00  0.00     0.332 A 
ATOM     43  H7  UNL     1       9.775   8.667  21.763  1.00  0.00     0.175 HD
HETATM   44  O3  UNL     1      12.222   9.240  21.617  1.00  0.00    -0.246 OA
HETATM   45  N8  UNL     1      12.232   8.751  23.811  1.00  0.00    -0.260 N 
HETATM   46  C30 UNL     1      11.551   8.349  24.932  1.00  0.00     0.338 A 
ATOM     47  H8  UNL     1      13.230   8.960  23.865  1.00  0.00     0.175 HD
HETATM   48  O4  UNL     1      12.296   8.284  25.947  1.00  0.00    -0.246 OA
ENDBRANCH  37  38
ENDBRANCH  29  37
ENDBRANCH  27  29
ENDBRANCH   1  27
TORSDOF 19
ENDMDL
MODEL 3
REMARK VINA RESULT: -8.099244260      2.437      3.681
REMARK  19 active torsions:
REMARK  status: ('A' for Active; 'I' for Inactive)
REMARK    1  A    between atoms: C2_2  and  C3_3 
REMARK    2  A    between atoms: C3_3  and  N1_4 
REMARK    3  A    between atoms: N1_4  and  C4_6 
REMARK    4  A    between atoms: C4_6  and  C5_7 
REMARK    5  A    between atoms: C5_7  and  O1_8 
REMARK    6  A    between atoms: C5_7  and  C13_16 
REMARK    7  A    between atoms: O1_8  and  C6_9 
REMARK    8  A    between atoms: C6_9  and  C7_10 
REMARK    9  A    between atoms: C13_16  and  C14_17 
REMARK   10  A    between atoms: C13_16  and  N2_27 
REMARK   11  A    between atoms: C14_17  and  C15_18 
REMARK   12  A    between atoms: C15_18  and  C16_19 
REMARK   13  A    between atoms: N2_27  and  C22_29 
REMARK   14  A    between atoms: C22_29  and  C23_30 
REMARK   15  A    between atoms: C22_29  and  C27_37 
REMARK   16  A    between atoms: C23_30  and  C24_31 
REMARK   17  A    between atoms: C24_31  and  C25_32 
REMARK   18  A    between atoms: C25_32  and  N3_33 
REMARK       I    between atoms: N3_33  and  C26_34 
REMARK   19  A    between atoms: C27_37  and  N6_38 
ROOT
HETATM    1  C13 UNL     1      11.045   5.557  25.333  1.00  0.00     0.140 C 
ENDROOT
BRANCH   1   2
HETATM    2  C5  UNL     1      10.425   4.672  24.352  1.00  0.00     0.084 C 
BRANCH   2   3
HETATM    3  C4  UNL     1      11.344   3.596  23.861  1.00  0.00     0.117 C 
BRANCH   3   4
HETATM    4  N1  UNL     1      11.001   2.269  24.179  1.00  0.00    -0.393 N 
ATOM      5  H1  UNL     1      11.002   1.893  25.127  1.00  0.00     0.159 HD
BRANCH   4   6
HETATM    6  C3  UNL     1      10.646   1.500  23.006  1.00  0.00     0.145 C 
BRANCH   6   7
HETATM    7  C2  UNL     1      11.778   1.428  22.042  1.00  0.00    -0.018 C 
HETATM    8  C1  UNL     1      11.935   0.466  21.146  1.00  0.00     0.008 C 
ENDBRANCH   6   7
ENDBRANCH   4   6
ENDBRANCH   3   4
ENDBRANCH   2   3
BRANCH   2   9
HETATM    9  O1  UNL     1       9.107   4.361  24.380  1.00  0.00    -0.347 OA
BRANCH   9  10
HETATM   10  C6  UNL     1       8.239   5.222  23.764  1.00  0.00     0.214 C 
BRANCH  10  11
HETATM   11  C7  UNL     1       6.862   5.170  24.286  1.00  0.00    -0.034 A 
HETATM   12  C8  UNL     1       6.592   4.409  25.394  1.00  0.00     0.009 A 
HETATM   13  C9  UNL     1       5.297   4.344  25.894  1.00  0.00     0.001 A 
HETATM   14  C10 UNL     1       4.271   5.039  25.289  1.00  0.00     0.000 A 
HETATM   15  C11 UNL     1       4.539   5.799  24.182  1.00  0.00     0.001 A 
HETATM   16  C12 UNL     1       5.815   5.870  23.680  1.00  0.00     0.009 A 
ENDBRANCH  10  11
ENDBRANCH   9  10
ENDBRANCH   2   9
ENDBRANCH   1   2
BRANCH   1  17
HETATM   17  C14 UNL     1      10.990   4.967  26.749  1.00  0.00     0.036 C 
BRANCH  17  18
HETATM   18  C15 UNL     1      10.008   5.463  27.704  1.00  0.00     0.041 C 
BRANCH  18  19
HETATM   19  C16 UNL     1       9.068   4.301  28.013  1.00  0.00    -0.052 A 
HETATM   20  C17 UNL     1       9.330   3.039  27.541  1.00  0.00     0.049 A 
HETATM   21  C18 UNL     1       8.496   1.965  27.814  1.00  0.00     0.119 A 
HETATM   22  F1  UNL     1       8.752   0.715  27.350  1.00  0.00    -0.206 F 
HETATM   23  C19 UNL     1       7.366   2.198  28.588  1.00  0.00     0.084 A 
HETATM   24  C20 UNL     1       7.084   3.451  29.069  1.00  0.00     0.119 A 
HETATM   25  F2  UNL     1       5.993   3.679  29.817  1.00  0.00    -0.206 F 
HETATM   26  C21 UNL     1       7.944   4.494  28.774  1.00  0.00     0.049 A 
ENDBRANCH  18  19
ENDBRANCH  17  18
ENDBRANCH   1  17
BRANCH   1  27
HETATM   27  N2  UNL     1      10.401   6.842  25.574  1.00  0.00    -0.381 N 
ATOM     28  H2  UNL     1       9.474   6.855  26.001  1.00  0.00     0.160 HD
BRANCH  27  29
HETATM   29  C22 UNL     1      10.998   8.040  25.244  1.00  0.00     0.022 C 
BRANCH  29  30
HETATM   30  C23 UNL     1      12.495   7.875  25.606  1.00  0.00     0.064 C 
BRANCH  30  31
HETATM   31  C24 UNL     1      13.400   8.792  24.875  1.00  0.00     0.065 C 
BRANCH  31  32
HETATM   32  C25 UNL     1      14.711   8.861  25.714  1.00  0.00     0.158 C 
BRANCH  32  33
HETATM   33  N3  UNL     1      14.850   9.952  26.456  1.00  0.00    -0.393 NA
HETATM   34  C26 UNL     1      15.070  10.801  27.239  1.00  0.00     0.274 C 
HETATM   35  N4  UNL     1      14.587  12.163  26.967  1.00  0.00    -0.052 NA
HETATM   36  N5  UNL     1      15.791  10.662  28.497  1.00  0.00    -0.052 NA
ENDBRANCH  32  33
ENDBRANCH  31  32
ENDBRANCH  30  31
ENDBRANCH  29  30
BRANCH  29  37
HETATM   37  C27 UNL     1      10.729   8.815  24.039  1.00  0.00     0.131 C 
BRANCH  37  38
HETATM   38  N6  UNL     1       9.669   8.627  23.153  1.00  0.00    -0.224 N 
HETATM   39  C28 UNL     1       9.891   8.032  21.941  1.00  0.00     0.338 A 
HETATM   40  O2  UNL     1      11.016   7.625  21.561  1.00  0.00    -0.246 OA
HETATM   41  N7  UNL     1       8.880   7.851  21.073  1.00  0.00    -0.260 N 
HETATM   42  C29 UNL     1       7.627   8.235  21.334  1.00  0.00     0.332 A 
ATOM     43  H7  UNL     1       9.078   7.403  20.178  1.00  0.00     0.175 HD
HETATM   44  O3  UNL     1       6.671   8.063  20.506  1.00  0.00    -0.246 OA
HETATM   45  N8  UNL     1       7.388   8.814  22.500  1.00  0.00    -0.260 N 
HETATM   46  C30 UNL     1       8.415   9.000  23.389  1.00  0.00     0.338 A 
ATOM     47  H8  UNL     1       6.444   9.122  22.737  1.00  0.00     0.175 HD
HETATM   48  O4  UNL     1       8.035   9.564  24.450  1.00  0.00    -0.246 OA
ENDBRANCH  37  38
ENDBRANCH  29  37
ENDBRANCH  27  29
ENDBRANCH   1  27
TORSDOF 19
ENDMDL
MODEL 4
REMARK VINA RESULT: -8.083396604      3.032      4.106
REMARK  19 active torsions:
REMARK  status: ('A' for Active; 'I' for Inactive)
REMARK    1  A    between atoms: C2_2  and  C3_3 
REMARK    2  A    between atoms: C3_3  and  N1_4 
REMARK    3  A    between atoms: N1_4  and  C4_6 
REMARK    4  A    between atoms: C4_6  and  C5_7 
REMARK    5  A    between atoms: C5_7  and  O1_8 
REMARK    6  A    between atoms: C5_7  and  C13_16 
REMARK    7  A    between atoms: O1_8  and  C6_9 
REMARK    8  A    between atoms: C6_9  and  C7_10 
REMARK    9  A    between atoms: C13_16  and  C14_17 
REMARK   10  A    between atoms: C13_16  and  N2_27 
REMARK   11  A    between atoms: C14_17  and  C15_18 
REMARK   12  A    between atoms: C15_18  and  C16_19 
REMARK   13  A    between atoms: N2_27  and  C22_29 
REMARK   14  A    between atoms: C22_29  and  C23_30 
REMARK   15  A    between atoms: C22_29  and  C27_37 
REMARK   16  A    between atoms: C23_30  and  C24_31 
REMARK   17  A    between atoms: C24_31  and  C25_32 
REMARK   18  A    between atoms: C25_32  and  N3_33 
REMARK       I    between atoms: N3_33  and  C26_34 
REMARK   19  A    between atoms: C27_37  and  N6_38 
ROOT
HETATM    1  C13 UNL     1      10.772   6.236  25.448  1.00  0.00     0.140 C 
ENDROOT
BRANCH   1   2
HETATM    2  C5  UNL     1      10.045   5.370  24.525  1.00  0.00     0.084 C 
BRANCH   2   3
HETATM    3  C4  UNL     1      10.932   4.416  23.786  1.00  0.00     0.117 C 
BRANCH   3   4
HETATM    4  N1  UNL     1      11.433   3.319  24.510  1.00  0.00    -0.393 N 
ATOM      5  H1  UNL     1      12.241   3.368  25.131  1.00  0.00     0.159 HD
BRANCH   4   6
HETATM    6  C3  UNL     1      10.672   2.112  24.272  1.00  0.00     0.145 C 
BRANCH   6   7
HETATM    7  C2  UNL     1      10.482   1.869  22.815  1.00  0.00    -0.018 C 
HETATM    8  C1  UNL     1      11.267   1.099  22.078  1.00  0.00     0.008 C 
ENDBRANCH   6   7
ENDBRANCH   4   6
ENDBRANCH   3   4
ENDBRANCH   2   3
BRANCH   2   9
HETATM    9  O1  UNL     1       8.783   4.943  24.766  1.00  0.00    -0.347 OA
BRANCH   9  10
HETATM   10  C6  UNL     1       7.812   5.292  23.866  1.00  0.00     0.214 C 
BRANCH  10  11
HETATM   11  C7  UNL     1       6.438   5.191  24.387  1.00  0.00    -0.034 A 
HETATM   12  C8  UNL     1       5.430   5.881  23.765  1.00  0.00     0.009 A 
HETATM   13  C9  UNL     1       4.130   5.802  24.250  1.00  0.00     0.001 A 
HETATM   14  C10 UNL     1       3.836   5.033  25.356  1.00  0.00     0.000 A 
HETATM   15  C11 UNL     1       4.841   4.342  25.979  1.00  0.00     0.001 A 
HETATM   16  C12 UNL     1       6.129   4.414  25.508  1.00  0.00     0.009 A 
ENDBRANCH  10  11
ENDBRANCH   9  10
ENDBRANCH   2   9
ENDBRANCH   1   2
BRANCH   1  17
HETATM   17  C14 UNL     1      10.336   6.014  26.903  1.00  0.00     0.036 C 
BRANCH  17  18
HETATM   18  C15 UNL     1      10.812   4.847  27.634  1.00  0.00     0.041 C 
BRANCH  18  19
HETATM   19  C16 UNL     1       9.582   4.017  27.989  1.00  0.00    -0.052 A 
HETATM   20  C17 UNL     1       8.442   4.616  28.465  1.00  0.00     0.049 A 
HETATM   21  C18 UNL     1       7.308   3.885  28.788  1.00  0.00     0.119 A 
HETATM   22  F1  UNL     1       6.179   4.474  29.259  1.00  0.00    -0.206 F 
HETATM   23  C19 UNL     1       7.352   2.507  28.618  1.00  0.00     0.084 A 
HETATM   24  C20 UNL     1       8.480   1.888  28.145  1.00  0.00     0.119 A 
HETATM   25  F2  UNL     1       8.524   0.556  27.979  1.00  0.00    -0.206 F 
HETATM   26  C21 UNL     1       9.588   2.655  27.834  1.00  0.00     0.049 A 
ENDBRANCH  18  19
ENDBRANCH  17  18
ENDBRANCH   1  17
BRANCH   1  27
HETATM   27  N2  UNL     1      10.544   7.671  25.337  1.00  0.00    -0.381 N 
ATOM     28  H2  UNL     1       9.729   8.077  25.797  1.00  0.00     0.160 HD
BRANCH  27  29
HETATM   29  C22 UNL     1      11.390   8.500  24.631  1.00  0.00     0.022 C 
BRANCH  29  30
HETATM   30  C23 UNL     1      12.798   8.274  25.236  1.00  0.00     0.064 C 
BRANCH  30  31
HETATM   31  C24 UNL     1      13.879   9.018  24.548  1.00  0.00     0.065 C 
BRANCH  31  32
HETATM   32  C25 UNL     1      15.070   9.068  25.552  1.00  0.00     0.158 C 
BRANCH  32  33
HETATM   33  N3  UNL     1      15.071  10.108  26.375  1.00  0.00    -0.393 NA
HETATM   34  C26 UNL     1      15.173  10.913  27.227  1.00  0.00     0.274 C 
HETATM   35  N4  UNL     1      14.577  12.241  27.027  1.00  0.00    -0.052 NA
HETATM   36  N5  UNL     1      15.845  10.745  28.509  1.00  0.00    -0.052 NA
ENDBRANCH  32  33
ENDBRANCH  31  32
ENDBRANCH  30  31
ENDBRANCH  29  30
BRANCH  29  37
HETATM   37  C27 UNL     1      11.357   8.712  23.189  1.00  0.00     0.131 C 
BRANCH  37  38
HETATM   38  N6  UNL     1      11.010   9.892  22.532  1.00  0.00    -0.224 N 
HETATM   39  C28 UNL     1      11.800  10.369  21.523  1.00  0.00     0.338 A 
HETATM   40  O2  UNL     1      12.846   9.798  21.130  1.00  0.00    -0.246 OA
HETATM   41  N7  UNL     1      11.482  11.509  20.886  1.00  0.00    -0.260 N 
HETATM   42  C29 UNL     1      10.401  12.231  21.195  1.00  0.00     0.332 A 
ATOM     43  H7  UNL     1      12.092  11.838  20.137  1.00  0.00     0.175 HD
HETATM   44  O3  UNL     1      10.104  13.314  20.589  1.00  0.00    -0.246 OA
HETATM   45  N8  UNL     1       9.621  11.791  22.170  1.00  0.00    -0.260 N 
HETATM   46  C30 UNL     1       9.940  10.628  22.821  1.00  0.00     0.338 A 
ATOM     47  H8  UNL     1       8.786  12.314  22.435  1.00  0.00     0.175 HD
HETATM   48  O4  UNL     1       9.108  10.339  23.723  1.00  0.00    -0.246 OA
ENDBRANCH  37  38
ENDBRANCH  29  37
ENDBRANCH  27  29
ENDBRANCH   1  27
TORSDOF 19
ENDMDL
MODEL 5
REMARK VINA RESULT: -8.070132377      3.289      5.280
REMARK  19 active torsions:
REMARK  status: ('A' for Active; 'I' for Inactive)
REMARK    1  A    between atoms: C2_2  and  C3_3 
REMARK    2  A    between atoms: C3_3  and  N1_4 
REMARK    3  A    between atoms: N1_4  and  C4_6 
REMARK    4  A    between atoms: C4_6  and  C5_7 
REMARK    5  A    between atoms: C5_7  and  O1_8 
REMARK    6  A    between atoms: C5_7  and  C13_16 
REMARK    7  A    between atoms: O1_8  and  C6_9 
REMARK    8  A    between atoms: C6_9  and  C7_10 
REMARK    9  A    between atoms: C13_16  and  C14_17 
REMARK   10  A    between atoms: C13_16  and  N2_27 
REMARK   11  A    between atoms: C14_17  and  C15_18 
REMARK   12  A    between atoms: C15_18  and  C16_19 
REMARK   13  A    between atoms: N2_27  and  C22_29 
REMARK   14  A    between atoms: C22_29  and  C23_30 
REMARK   15  A    between atoms: C22_29  and  C27_37 
REMARK   16  A    between atoms: C23_30  and  C24_31 
REMARK   17  A    between atoms: C24_31  and  C25_32 
REMARK   18  A    between atoms: C25_32  and  N3_33 
REMARK       I    between atoms: N3_33  and  C26_34 
REMARK   19  A    between atoms: C27_37  and  N6_38 
ROOT
HETATM    1  C13 UNL     1      11.397   5.583  26.521  1.00  0.00     0.140 C 
ENDROOT
BRANCH   1   2
HETATM    2  C5  UNL     1      10.686   4.485  25.873  1.00  0.00     0.084 C 
BRANCH   2   3
HETATM    3  C4  UNL     1      11.233   4.141  24.522  1.00  0.00     0.117 C 
BRANCH   3   4
HETATM    4  N1  UNL     1      11.346   2.774  24.208  1.00  0.00    -0.393 N 
ATOM      5  H1  UNL     1      12.020   2.145  24.642  1.00  0.00     0.159 HD
BRANCH   4   6
HETATM    6  C3  UNL     1      10.394   2.365  23.198  1.00  0.00     0.145 C 
BRANCH   6   7
HETATM    7  C2  UNL     1      10.861   1.151  22.473  1.00  0.00    -0.018 C 
HETATM    8  C1  UNL     1      11.910   1.121  21.666  1.00  0.00     0.008 C 
ENDBRANCH   6   7
ENDBRANCH   4   6
ENDBRANCH   3   4
ENDBRANCH   2   3
BRANCH   2   9
HETATM    9  O1  UNL     1      10.134   3.462  26.569  1.00  0.00    -0.347 OA
BRANCH   9  10
HETATM   10  C6  UNL     1       8.767   3.383  26.602  1.00  0.00     0.214 C 
BRANCH  10  11
HETATM   11  C7  UNL     1       8.226   2.766  27.826  1.00  0.00    -0.034 A 
HETATM   12  C8  UNL     1       7.540   3.543  28.723  1.00  0.00     0.009 A 
HETATM   13  C9  UNL     1       7.031   2.976  29.885  1.00  0.00     0.001 A 
HETATM   14  C10 UNL     1       7.205   1.635  30.152  1.00  0.00     0.000 A 
HETATM   15  C11 UNL     1       7.889   0.857  29.256  1.00  0.00     0.001 A 
HETATM   16  C12 UNL     1       8.397   1.407  28.104  1.00  0.00     0.009 A 
ENDBRANCH  10  11
ENDBRANCH   9  10
ENDBRANCH   2   9
ENDBRANCH   1   2
BRANCH   1  17
HETATM   17  C14 UNL     1      10.432   6.626  27.101  1.00  0.00     0.036 C 
BRANCH  17  18
HETATM   18  C15 UNL     1      10.119   6.614  28.524  1.00  0.00     0.041 C 
BRANCH  18  19
HETATM   19  C16 UNL     1       8.830   7.412  28.698  1.00  0.00    -0.052 A 
HETATM   20  C17 UNL     1       8.721   8.367  29.678  1.00  0.00     0.049 A 
HETATM   21  C18 UNL     1       7.562   9.111  29.852  1.00  0.00     0.119 A 
HETATM   22  F1  UNL     1       7.450  10.056  30.820  1.00  0.00    -0.206 F 
HETATM   23  C19 UNL     1       6.495   8.863  28.998  1.00  0.00     0.084 A 
HETATM   24  C20 UNL     1       6.583   7.913  28.013  1.00  0.00     0.119 A 
HETATM   25  F2  UNL     1       5.552   7.673  27.186  1.00  0.00    -0.206 F 
HETATM   26  C21 UNL     1       7.756   7.195  27.874  1.00  0.00     0.049 A 
ENDBRANCH  18  19
ENDBRANCH  17  18
ENDBRANCH   1  17
BRANCH   1  27
HETATM   27  N2  UNL     1      12.212   6.443  25.672  1.00  0.00    -0.381 N 
ATOM     28  H2  UNL     1      13.139   6.122  25.393  1.00  0.00     0.160 HD
BRANCH  27  29
HETATM   29  C22 UNL     1      11.774   7.674  25.232  1.00  0.00     0.022 C 
BRANCH  29  30
HETATM   30  C23 UNL     1      12.850   8.690  25.690  1.00  0.00     0.064 C 
BRANCH  30  31
HETATM   31  C24 UNL     1      14.242   8.209  25.532  1.00  0.00     0.065 C 
BRANCH  31  32
HETATM   32  C25 UNL     1      15.113   9.482  25.308  1.00  0.00     0.158 C 
BRANCH  32  33
HETATM   33  N3  UNL     1      15.187  10.304  26.347  1.00  0.00    -0.393 NA
HETATM   34  C26 UNL     1      15.141  11.154  27.158  1.00  0.00     0.274 C 
HETATM   35  N4  UNL     1      15.841  10.957  28.436  1.00  0.00    -0.052 NA
HETATM   36  N5  UNL     1      14.448  12.430  27.046  1.00  0.00    -0.052 NA
ENDBRANCH  32  33
ENDBRANCH  31  32
ENDBRANCH  30  31
ENDBRANCH  29  30
BRANCH  29  37
HETATM   37  C27 UNL     1      11.177   7.942  23.930  1.00  0.00     0.131 C 
BRANCH  37  38
HETATM   38  N6  UNL     1      11.029   9.191  23.327  1.00  0.00    -0.224 N 
HETATM   39  C28 UNL     1       9.875   9.903  23.508  1.00  0.00     0.338 A 
HETATM   40  O2  UNL     1       8.912   9.502  24.205  1.00  0.00    -0.246 OA
HETATM   41  N7  UNL     1       9.715  11.105  22.926  1.00  0.00    -0.260 N 
HETATM   42  C29 UNL     1      10.651  11.662  22.153  1.00  0.00     0.332 A 
ATOM     43  H7  UNL     1       8.843  11.611  23.082  1.00  0.00     0.175 HD
HETATM   44  O3  UNL     1      10.494  12.802  21.601  1.00  0.00    -0.246 OA
HETATM   45  N8  UNL     1      11.776  10.991  21.961  1.00  0.00    -0.260 N 
HETATM   46  C30 UNL     1      11.944   9.766  22.553  1.00  0.00     0.338 A 
ATOM     47  H8  UNL     1      12.515  11.384  21.376  1.00  0.00     0.175 HD
HETATM   48  O4  UNL     1      13.061   9.250  22.277  1.00  0.00    -0.246 OA
ENDBRANCH  37  38
ENDBRANCH  29  37
ENDBRANCH  27  29
ENDBRANCH   1  27
TORSDOF 19
ENDMDL
