MODEL 1
REMARK VINA RESULT: -7.514509033      0.000      0.000
REMARK  13 active torsions:
REMARK  status: ('A' for Active; 'I' for Inactive)
REMARK    1  A    between atoms: C2_2  and  N1_3 
REMARK    2  A    between atoms: C2_2  and  C3_7 
REMARK    3  A    between atoms: C3_7  and  N2_8 
REMARK    4  A    between atoms: N2_8  and  C4_10 
REMARK    5  A    between atoms: C4_10  and  C5_11 
REMARK    6  A    between atoms: C5_11  and  C6_12 
REMARK    7  A    between atoms: C5_11  and  N4_17 
REMARK    8  A    between atoms: C6_12  and  N3_13 
REMARK       I    between atoms: N4_17  and  C7_19 
REMARK       I    between atoms: C7_19  and  N5_21 
REMARK       I    between atoms: N6_24  and  C10_25 
REMARK    9  A    between atoms: C10_25  and  C11_27 
REMARK   10  A    between atoms: C11_27  and  C12_28 
REMARK   11  A    between atoms: C11_27  and  N7_35 
REMARK   12  A    between atoms: C12_28  and  C13_29 
REMARK       I    between atoms: N7_35  and  C19_37 
REMARK   13  A    between atoms: C19_37  and  C20_39 
ROOT
HETATM    1  N4  UNL     1      14.929  16.570  28.178  1.00  0.00    -0.335 N 
ATOM      2  H4  UNL     1      14.658  17.352  28.773  1.00  0.00     0.164 HD
HETATM    3  C7  UNL     1      16.257  16.092  28.245  1.00  0.00     0.318 C 
HETATM    4  O1  UNL     1      16.550  15.110  27.526  1.00  0.00    -0.247 OA
HETATM    5  N5  UNL     1      17.194  16.712  29.098  1.00  0.00    -0.331 N 
HETATM    6  C8  UNL     1      18.551  16.171  29.307  1.00  0.00     0.147 C 
HETATM    7  C9  UNL     1      19.321  17.224  30.121  1.00  0.00     0.145 C 
HETATM    8  N6  UNL     1      19.253  18.492  29.457  1.00  0.00    -0.347 N 
HETATM    9  C10 UNL     1      20.335  19.354  29.175  1.00  0.00     0.242 C 
HETATM   10  O2  UNL     1      20.078  20.327  28.421  1.00  0.00    -0.271 OA
HETATM   11  C24 UNL     1      17.903  18.953  29.077  1.00  0.00     0.145 C 
HETATM   12  C25 UNL     1      16.930  17.969  29.764  1.00  0.00     0.147 C 
ENDROOT
BRANCH   9  13
HETATM   13  C11 UNL     1      21.669  19.135  29.719  1.00  0.00     0.177 C 
BRANCH  13  14
HETATM   14  C12 UNL     1      22.480  18.172  28.949  1.00  0.00     0.039 C 
BRANCH  14  15
HETATM   15  C13 UNL     1      23.868  17.858  29.314  1.00  0.00    -0.012 C 
HETATM   16  C14 UNL     1      24.506  17.316  27.985  1.00  0.00     0.005 C 
HETATM   17  C15 UNL     1      26.006  17.458  28.139  1.00  0.00     0.000 C 
HETATM   18  C16 UNL     1      26.443  17.090  29.542  1.00  0.00     0.000 C 
HETATM   19  C17 UNL     1      25.458  16.136  30.186  1.00  0.00     0.000 C 
HETATM   20  C18 UNL     1      24.051  16.713  30.267  1.00  0.00     0.005 C 
ENDBRANCH  14  15
ENDBRANCH  13  14
BRANCH  13  21
HETATM   21  N7  UNL     1      21.754  18.914  31.146  1.00  0.00    -0.346 N 
HETATM   22  C19 UNL     1      21.810  19.894  32.133  1.00  0.00     0.249 C 
HETATM   23  O3  UNL     1      21.782  21.127  31.907  1.00  0.00    -0.271 OA
ATOM     24  H7  UNL     1      21.774  17.944  31.460  1.00  0.00     0.163 HD
BRANCH  22  25
HETATM   25  C20 UNL     1      21.912  19.411  33.546  1.00  0.00     0.277 C 
HETATM   26  C21 UNL     1      20.720  18.630  34.006  1.00  0.00     0.044 C 
HETATM   27  C22 UNL     1      21.232  18.197  35.395  1.00  0.00     0.030 C 
HETATM   28  C23 UNL     1      22.755  18.212  35.217  1.00  0.00     0.233 C 
HETATM   29  N8  UNL     1      22.980  18.478  33.782  1.00  0.00    -0.062 N 
ATOM     30  H82 UNL     1      23.004  17.660  33.172  1.00  0.00     0.278 HD
ATOM     31  H81 UNL     1      23.915  18.792  33.525  1.00  0.00     0.278 HD
ENDBRANCH  22  25
ENDBRANCH  13  21
ENDBRANCH   9  13
BRANCH   1  32
HETATM   32  C5  UNL     1      13.935  15.986  27.287  1.00  0.00     0.128 C 
BRANCH  32  33
HETATM   33  C4  UNL     1      14.203  16.410  25.882  1.00  0.00     0.140 C 
BRANCH  33  34
HETATM   34  N2  UNL     1      14.595  15.316  25.068  1.00  0.00    -0.417 N 
ATOM     35  H2  UNL     1      14.682  14.366  25.429  1.00  0.00     0.153 HD
BRANCH  34  36
HETATM   36  C3  UNL     1      14.858  15.646  23.710  1.00  0.00     0.146 C 
BRANCH  36  37
HETATM   37  C2  UNL     1      13.951  15.069  22.686  1.00  0.00     0.196 C 
HETATM   38  C1  UNL     1      14.694  14.920  21.357  1.00  0.00     0.041 C 
BRANCH  37  39
HETATM   39  N1  UNL     1      12.659  15.632  22.563  1.00  0.00    -0.074 N 
ATOM     40  H13 UNL     1      12.637  16.317  21.808  1.00  0.00     0.274 HD
ATOM     41  H12 UNL     1      12.003  14.945  22.191  1.00  0.00     0.274 HD
ATOM     42  H11 UNL     1      12.299  16.039  23.426  1.00  0.00     0.274 HD
ENDBRANCH  37  39
ENDBRANCH  36  37
ENDBRANCH  34  36
ENDBRANCH  33  34
ENDBRANCH  32  33
BRANCH  32  43
HETATM   43  C6  UNL     1      12.510  16.344  27.708  1.00  0.00     0.256 C 
BRANCH  43  44
HETATM   44  N3  UNL     1      12.122  15.648  28.884  1.00  0.00    -0.077 N 
ATOM     45  H33 UNL     1      11.961  14.659  28.696  1.00  0.00     0.274 HD
ATOM     46  H32 UNL     1      12.899  15.560  29.539  1.00  0.00     0.274 HD
ATOM     47  H31 UNL     1      11.310  16.080  29.325  1.00  0.00     0.274 HD
ENDBRANCH  43  44
ENDBRANCH  32  43
ENDBRANCH   1  32
TORSDOF 13
ENDMDL
MODEL 2
REMARK VINA RESULT: -7.462154760      3.678      9.756
REMARK  13 active torsions:
REMARK  status: ('A' for Active; 'I' for Inactive)
REMARK    1  A    between atoms: C2_2  and  N1_3 
REMARK    2  A    between atoms: C2_2  and  C3_7 
REMARK    3  A    between atoms: C3_7  and  N2_8 
REMARK    4  A    between atoms: N2_8  and  C4_10 
REMARK    5  A    between atoms: C4_10  and  C5_11 
REMARK    6  A    between atoms: C5_11  and  C6_12 
REMARK    7  A    between atoms: C5_11  and  N4_17 
REMARK    8  A    between atoms: C6_12  and  N3_13 
REMARK       I    between atoms: N4_17  and  C7_19 
REMARK       I    between atoms: C7_19  and  N5_21 
REMARK       I    between atoms: N6_24  and  C10_25 
REMARK    9  A    between atoms: C10_25  and  C11_27 
REMARK   10  A    between atoms: C11_27  and  C12_28 
REMARK   11  A    between atoms: C11_27  and  N7_35 
REMARK   12  A    between atoms: C12_28  and  C13_29 
REMARK       I    between atoms: N7_35  and  C19_37 
REMARK   13  A    between atoms: C19_37  and  C20_39 
ROOT
HETATM    1  N4  UNL     1      21.316  17.452  33.402  1.00  0.00    -0.335 N 
ATOM      2  H4  UNL     1      21.888  16.612  33.490  1.00  0.00     0.164 HD
HETATM    3  C7  UNL     1      19.980  17.322  32.962  1.00  0.00     0.318 C 
HETATM    4  O1  UNL     1      19.295  18.367  32.896  1.00  0.00    -0.247 OA
HETATM    5  N5  UNL     1      19.465  16.055  32.616  1.00  0.00    -0.331 N 
HETATM    6  C8  UNL     1      18.043  15.846  32.281  1.00  0.00     0.147 C 
HETATM    7  C9  UNL     1      17.923  14.402  31.767  1.00  0.00     0.145 C 
HETATM    8  N6  UNL     1      18.852  14.192  30.696  1.00  0.00    -0.347 N 
HETATM    9  C10 UNL     1      18.570  13.616  29.439  1.00  0.00     0.242 C 
HETATM   10  O2  UNL     1      19.487  13.697  28.582  1.00  0.00    -0.271 OA
HETATM   11  C24 UNL     1      20.251  14.577  30.968  1.00  0.00     0.145 C 
HETATM   12  C25 UNL     1      20.302  14.883  32.480  1.00  0.00     0.147 C 
ENDROOT
BRANCH   9  13
HETATM   13  C11 UNL     1      17.298  12.968  29.144  1.00  0.00     0.177 C 
BRANCH  13  14
HETATM   14  C12 UNL     1      17.401  11.510  28.940  1.00  0.00     0.039 C 
BRANCH  14  15
HETATM   15  C13 UNL     1      17.069  10.552  30.003  1.00  0.00    -0.012 C 
HETATM   16  C14 UNL     1      15.897   9.697  29.403  1.00  0.00     0.005 C 
HETATM   17  C15 UNL     1      15.855   8.407  30.196  1.00  0.00     0.000 C 
HETATM   18  C16 UNL     1      16.092   8.671  31.670  1.00  0.00     0.000 C 
HETATM   19  C17 UNL     1      15.696  10.085  32.039  1.00  0.00     0.000 C 
HETATM   20  C18 UNL     1      16.461  11.135  31.245  1.00  0.00     0.005 C 
ENDBRANCH  14  15
ENDBRANCH  13  14
BRANCH  13  21
HETATM   21  N7  UNL     1      16.465  13.609  28.151  1.00  0.00    -0.346 N 
HETATM   22  C19 UNL     1      15.994  14.918  28.186  1.00  0.00     0.249 C 
HETATM   23  O3  UNL     1      16.248  15.736  29.102  1.00  0.00    -0.271 OA
ATOM     24  H7  UNL     1      16.196  13.046  27.344  1.00  0.00     0.163 HD
BRANCH  22  25
HETATM   25  C20 UNL     1      15.129  15.346  27.042  1.00  0.00     0.277 C 
HETATM   26  C21 UNL     1      14.581  16.733  27.185  1.00  0.00     0.044 C 
HETATM   27  C22 UNL     1      13.893  16.866  25.810  1.00  0.00     0.030 C 
HETATM   28  C23 UNL     1      14.691  15.895  24.933  1.00  0.00     0.233 C 
HETATM   29  N8  UNL     1      15.810  15.431  25.779  1.00  0.00    -0.062 N 
ATOM     30  H82 UNL     1      16.653  16.004  25.762  1.00  0.00     0.278 HD
ATOM     31  H81 UNL     1      16.286  14.584  25.469  1.00  0.00     0.278 HD
ENDBRANCH  22  25
ENDBRANCH  13  21
ENDBRANCH   9  13
BRANCH   1  32
HETATM   32  C5  UNL     1      21.905  18.742  33.736  1.00  0.00     0.128 C 
BRANCH  32  33
HETATM   33  C4  UNL     1      22.572  19.321  32.533  1.00  0.00     0.140 C 
BRANCH  33  34
HETATM   34  N2  UNL     1      21.861  20.439  32.025  1.00  0.00    -0.417 N 
ATOM     35  H2  UNL     1      21.752  21.306  32.551  1.00  0.00     0.153 HD
BRANCH  34  36
HETATM   36  C3  UNL     1      21.311  20.257  30.726  1.00  0.00     0.146 C 
BRANCH  36  37
HETATM   37  C2  UNL     1      20.063  20.997  30.410  1.00  0.00     0.196 C 
HETATM   38  C1  UNL     1      20.406  22.347  29.777  1.00  0.00     0.041 C 
BRANCH  37  39
HETATM   39  N1  UNL     1      19.071  21.068  31.416  1.00  0.00    -0.074 N 
ATOM     40  H13 UNL     1      19.162  21.932  31.949  1.00  0.00     0.274 HD
ATOM     41  H12 UNL     1      18.151  21.217  31.001  1.00  0.00     0.274 HD
ATOM     42  H11 UNL     1      19.055  20.262  32.041  1.00  0.00     0.274 HD
ENDBRANCH  37  39
ENDBRANCH  36  37
ENDBRANCH  34  36
ENDBRANCH  33  34
ENDBRANCH  32  33
BRANCH  32  43
HETATM   43  C6  UNL     1      22.880  18.640  34.909  1.00  0.00     0.256 C 
BRANCH  43  44
HETATM   44  N3  UNL     1      24.087  19.342  34.649  1.00  0.00    -0.077 N 
ATOM     45  H33 UNL     1      23.964  20.348  34.762  1.00  0.00     0.274 HD
ATOM     46  H32 UNL     1      24.776  19.183  35.382  1.00  0.00     0.274 HD
ATOM     47  H31 UNL     1      24.462  19.113  33.728  1.00  0.00     0.274 HD
ENDBRANCH  43  44
ENDBRANCH  32  43
ENDBRANCH   1  32
TORSDOF 13
ENDMDL
MODEL 3
REMARK VINA RESULT: -7.370334245      3.590      8.862
REMARK  13 active torsions:
REMARK  status: ('A' for Active; 'I' for Inactive)
REMARK    1  A    between atoms: C2_2  and  N1_3 
REMARK    2  A    between atoms: C2_2  and  C3_7 
REMARK    3  A    between atoms: C3_7  and  N2_8 
REMARK    4  A    between atoms: N2_8  and  C4_10 
REMARK    5  A    between atoms: C4_10  and  C5_11 
REMARK    6  A    between atoms: C5_11  and  C6_12 
REMARK    7  A    between atoms: C5_11  and  N4_17 
REMARK    8  A    between atoms: C6_12  and  N3_13 
REMARK       I    between atoms: N4_17  and  C7_19 
REMARK       I    between atoms: C7_19  and  N5_21 
REMARK       I    between atoms: N6_24  and  C10_25 
REMARK    9  A    between atoms: C10_25  and  C11_27 
REMARK   10  A    between atoms: C11_27  and  C12_28 
REMARK   11  A    between atoms: C11_27  and  N7_35 
REMARK   12  A    between atoms: C12_28  and  C13_29 
REMARK       I    between atoms: N7_35  and  C19_37 
REMARK   13  A    between atoms: C19_37  and  C20_39 
ROOT
HETATM    1  N4  UNL     1      19.910  19.567  31.688  1.00  0.00    -0.335 N 
ATOM      2  H4  UNL     1      20.788  19.048  31.677  1.00  0.00     0.164 HD
HETATM    3  C7  UNL     1      18.772  18.993  31.076  1.00  0.00     0.318 C 
HETATM    4  O1  UNL     1      17.702  19.640  31.135  1.00  0.00    -0.247 OA
HETATM    5  N5  UNL     1      18.866  17.741  30.434  1.00  0.00    -0.331 N 
HETATM    6  C8  UNL     1      17.684  17.037  29.900  1.00  0.00     0.147 C 
HETATM    7  C9  UNL     1      18.214  15.832  29.105  1.00  0.00     0.145 C 
HETATM    8  N6  UNL     1      19.166  16.278  28.131  1.00  0.00    -0.347 N 
HETATM    9  C10 UNL     1      19.190  15.937  26.761  1.00  0.00     0.242 C 
HETATM   10  O2  UNL     1      19.999  16.586  26.050  1.00  0.00    -0.271 OA
HETATM   11  C24 UNL     1      20.252  17.141  28.634  1.00  0.00     0.145 C 
HETATM   12  C25 UNL     1      20.132  17.091  30.172  1.00  0.00     0.147 C 
ENDROOT
BRANCH   9  13
HETATM   13  C11 UNL     1      18.332  14.901  26.199  1.00  0.00     0.177 C 
BRANCH  13  14
HETATM   14  C12 UNL     1      18.577  13.555  26.751  1.00  0.00     0.039 C 
BRANCH  14  15
HETATM   15  C13 UNL     1      19.907  12.933  26.722  1.00  0.00    -0.012 C 
HETATM   16  C14 UNL     1      19.728  11.673  25.803  1.00  0.00     0.005 C 
HETATM   17  C15 UNL     1      21.111  11.290  25.321  1.00  0.00     0.000 C 
HETATM   18  C16 UNL     1      22.130  11.433  26.434  1.00  0.00     0.000 C 
HETATM   19  C17 UNL     1      21.473  11.304  27.792  1.00  0.00     0.000 C 
HETATM   20  C18 UNL     1      20.382  12.341  28.017  1.00  0.00     0.005 C 
ENDBRANCH  14  15
ENDBRANCH  13  14
BRANCH  13  21
HETATM   21  N7  UNL     1      18.192  14.893  24.760  1.00  0.00    -0.346 N 
HETATM   22  C19 UNL     1      17.377  15.729  24.002  1.00  0.00     0.249 C 
HETATM   23  O3  UNL     1      16.648  16.629  24.483  1.00  0.00    -0.271 OA
ATOM     24  H7  UNL     1      18.747  14.207  24.248  1.00  0.00     0.163 HD
BRANCH  22  25
HETATM   25  C20 UNL     1      17.393  15.513  22.522  1.00  0.00     0.277 C 
HETATM   26  C21 UNL     1      18.512  14.635  22.051  1.00  0.00     0.044 C 
HETATM   27  C22 UNL     1      18.130  14.530  20.560  1.00  0.00     0.030 C 
HETATM   28  C23 UNL     1      16.615  14.765  20.578  1.00  0.00     0.233 C 
HETATM   29  N8  UNL     1      16.244  14.821  22.007  1.00  0.00    -0.062 N 
ATOM     30  H82 UNL     1      16.023  13.928  22.448  1.00  0.00     0.278 HD
ATOM     31  H81 UNL     1      15.337  15.237  22.220  1.00  0.00     0.278 HD
ENDBRANCH  22  25
ENDBRANCH  13  21
ENDBRANCH   9  13
BRANCH   1  32
HETATM   32  C5  UNL     1      19.872  20.873  32.332  1.00  0.00     0.128 C 
BRANCH  32  33
HETATM   33  C4  UNL     1      20.494  21.896  31.441  1.00  0.00     0.140 C 
BRANCH  33  34
HETATM   34  N2  UNL     1      19.559  22.422  30.512  1.00  0.00    -0.417 N 
ATOM     35  H2  UNL     1      18.598  22.648  30.769  1.00  0.00     0.153 HD
BRANCH  34  36
HETATM   36  C3  UNL     1      20.065  22.610  29.196  1.00  0.00     0.146 C 
BRANCH  36  37
HETATM   37  C2  UNL     1      19.513  21.739  28.129  1.00  0.00     0.196 C 
HETATM   38  C1  UNL     1      19.414  22.522  26.818  1.00  0.00     0.041 C 
BRANCH  37  39
HETATM   39  N1  UNL     1      18.359  20.979  28.434  1.00  0.00    -0.074 N 
ATOM     40  H13 UNL     1      17.519  21.456  28.108  1.00  0.00     0.274 HD
ATOM     41  H12 UNL     1      18.318  20.141  27.854  1.00  0.00     0.274 HD
ATOM     42  H11 UNL     1      18.271  20.736  29.421  1.00  0.00     0.274 HD
ENDBRANCH  37  39
ENDBRANCH  36  37
ENDBRANCH  34  36
ENDBRANCH  33  34
ENDBRANCH  32  33
BRANCH  32  43
HETATM   43  C6  UNL     1      20.548  20.854  33.703  1.00  0.00     0.256 C 
BRANCH  43  44
HETATM   44  N3  UNL     1      20.805  19.527  34.140  1.00  0.00    -0.077 N 
ATOM     45  H33 UNL     1      19.972  19.099  34.542  1.00  0.00     0.274 HD
ATOM     46  H32 UNL     1      20.944  18.895  33.352  1.00  0.00     0.274 HD
ATOM     47  H31 UNL     1      21.592  19.492  34.789  1.00  0.00     0.274 HD
ENDBRANCH  43  44
ENDBRANCH  32  43
ENDBRANCH   1  32
TORSDOF 13
ENDMDL
MODEL 4
REMARK VINA RESULT: -7.365801050      1.539      4.233
REMARK  13 active torsions:
REMARK  status: ('A' for Active; 'I' for Inactive)
REMARK    1  A    between atoms: C2_2  and  N1_3 
REMARK    2  A    between atoms: C2_2  and  C3_7 
REMARK    3  A    between atoms: C3_7  and  N2_8 
REMARK    4  A    between atoms: N2_8  and  C4_10 
REMARK    5  A    between atoms: C4_10  and  C5_11 
REMARK    6  A    between atoms: C5_11  and  C6_12 
REMARK    7  A    between atoms: C5_11  and  N4_17 
REMARK    8  A    between atoms: C6_12  and  N3_13 
REMARK       I    between atoms: N4_17  and  C7_19 
REMARK       I    between atoms: C7_19  and  N5_21 
REMARK       I    between atoms: N6_24  and  C10_25 
REMARK    9  A    between atoms: C10_25  and  C11_27 
REMARK   10  A    between atoms: C11_27  and  C12_28 
REMARK   11  A    between atoms: C11_27  and  N7_35 
REMARK   12  A    between atoms: C12_28  and  C13_29 
REMARK       I    between atoms: N7_35  and  C19_37 
REMARK   13  A    between atoms: C19_37  and  C20_39 
ROOT
HETATM    1  N4  UNL     1      14.943  16.360  28.238  1.00  0.00    -0.335 N 
ATOM      2  H4  UNL     1      14.709  17.157  28.829  1.00  0.00     0.164 HD
HETATM    3  C7  UNL     1      16.219  15.767  28.369  1.00  0.00     0.318 C 
HETATM    4  O1  UNL     1      16.464  14.770  27.653  1.00  0.00    -0.247 OA
HETATM    5  N5  UNL     1      17.159  16.296  29.279  1.00  0.00    -0.331 N 
HETATM    6  C8  UNL     1      18.450  15.636  29.552  1.00  0.00     0.147 C 
HETATM    7  C9  UNL     1      19.264  16.610  30.421  1.00  0.00     0.145 C 
HETATM    8  N6  UNL     1      19.341  17.886  29.771  1.00  0.00    -0.347 N 
HETATM    9  C10 UNL     1      20.508  18.652  29.560  1.00  0.00     0.242 C 
HETATM   10  O2  UNL     1      20.377  19.651  28.806  1.00  0.00    -0.271 OA
HETATM   11  C24 UNL     1      18.059  18.466  29.327  1.00  0.00     0.145 C 
HETATM   12  C25 UNL     1      16.969  17.564  29.947  1.00  0.00     0.147 C 
ENDROOT
BRANCH   9  13
HETATM   13  C11 UNL     1      21.787  18.313  30.170  1.00  0.00     0.177 C 
BRANCH  13  14
HETATM   14  C12 UNL     1      22.170  19.195  31.289  1.00  0.00     0.039 C 
BRANCH  14  15
HETATM   15  C13 UNL     1      22.328  18.690  32.659  1.00  0.00    -0.012 C 
HETATM   16  C14 UNL     1      21.507  19.695  33.541  1.00  0.00     0.005 C 
HETATM   17  C15 UNL     1      21.200  18.979  34.839  1.00  0.00     0.000 C 
HETATM   18  C16 UNL     1      22.393  18.167  35.304  1.00  0.00     0.000 C 
HETATM   19  C17 UNL     1      23.685  18.739  34.759  1.00  0.00     0.000 C 
HETATM   20  C18 UNL     1      23.710  18.784  33.237  1.00  0.00     0.005 C 
ENDBRANCH  14  15
ENDBRANCH  13  14
BRANCH  13  21
HETATM   21  N7  UNL     1      22.884  18.057  29.264  1.00  0.00    -0.346 N 
HETATM   22  C19 UNL     1      23.047  16.937  28.455  1.00  0.00     0.249 C 
HETATM   23  O3  UNL     1      22.234  15.984  28.398  1.00  0.00    -0.271 OA
ATOM     24  H7  UNL     1      23.612  18.770  29.212  1.00  0.00     0.163 HD
BRANCH  22  25
HETATM   25  C20 UNL     1      24.283  16.896  27.612  1.00  0.00     0.277 C 
HETATM   26  C21 UNL     1      25.391  17.765  28.122  1.00  0.00     0.044 C 
HETATM   27  C22 UNL     1      26.495  17.365  27.122  1.00  0.00     0.030 C 
HETATM   28  C23 UNL     1      26.075  15.954  26.696  1.00  0.00     0.233 C 
HETATM   29  N8  UNL     1      24.924  15.611  27.555  1.00  0.00    -0.062 N 
ATOM     30  H82 UNL     1      25.146  15.180  28.453  1.00  0.00     0.278 HD
ATOM     31  H81 UNL     1      24.343  14.834  27.239  1.00  0.00     0.278 HD
ENDBRANCH  22  25
ENDBRANCH  13  21
ENDBRANCH   9  13
BRANCH   1  32
HETATM   32  C5  UNL     1      13.952  15.873  27.288  1.00  0.00     0.128 C 
BRANCH  32  33
HETATM   33  C4  UNL     1      14.286  16.355  25.915  1.00  0.00     0.140 C 
BRANCH  33  34
HETATM   34  N2  UNL     1      14.635  15.285  25.052  1.00  0.00    -0.417 N 
ATOM     35  H2  UNL     1      14.721  14.322  25.378  1.00  0.00     0.153 HD
BRANCH  34  36
HETATM   36  C3  UNL     1      14.856  15.658  23.697  1.00  0.00     0.146 C 
BRANCH  36  37
HETATM   37  C2  UNL     1      13.952  15.068  22.678  1.00  0.00     0.196 C 
HETATM   38  C1  UNL     1      14.702  14.895  21.356  1.00  0.00     0.041 C 
BRANCH  37  39
HETATM   39  N1  UNL     1      12.663  15.635  22.538  1.00  0.00    -0.074 N 
ATOM     40  H13 UNL     1      12.524  15.980  21.589  1.00  0.00     0.274 HD
ATOM     41  H12 UNL     1      11.948  14.908  22.564  1.00  0.00     0.274 HD
ATOM     42  H11 UNL     1      12.455  16.366  23.218  1.00  0.00     0.274 HD
ENDBRANCH  37  39
ENDBRANCH  36  37
ENDBRANCH  34  36
ENDBRANCH  33  34
ENDBRANCH  32  33
BRANCH  32  43
HETATM   43  C6  UNL     1      12.533  16.279  27.683  1.00  0.00     0.256 C 
BRANCH  43  44
HETATM   44  N3  UNL     1      12.124  15.643  28.886  1.00  0.00    -0.077 N 
ATOM     45  H33 UNL     1      11.351  16.142  29.327  1.00  0.00     0.274 HD
ATOM     46  H32 UNL     1      11.654  14.758  28.699  1.00  0.00     0.274 HD
ATOM     47  H31 UNL     1      12.905  15.522  29.531  1.00  0.00     0.274 HD
ENDBRANCH  43  44
ENDBRANCH  32  43
ENDBRANCH   1  32
TORSDOF 13
ENDMDL
MODEL 5
REMARK VINA RESULT: -7.288295551      3.194      8.995
REMARK  13 active torsions:
REMARK  status: ('A' for Active; 'I' for Inactive)
REMARK    1  A    between atoms: C2_2  and  N1_3 
REMARK    2  A    between atoms: C2_2  and  C3_7 
REMARK    3  A    between atoms: C3_7  and  N2_8 
REMARK    4  A    between atoms: N2_8  and  C4_10 
REMARK    5  A    between atoms: C4_10  and  C5_11 
REMARK    6  A    between atoms: C5_11  and  C6_12 
REMARK    7  A    between atoms: C5_11  and  N4_17 
REMARK    8  A    between atoms: C6_12  and  N3_13 
REMARK       I    between atoms: N4_17  and  C7_19 
REMARK       I    between atoms: C7_19  and  N5_21 
REMARK       I    between atoms: N6_24  and  C10_25 
REMARK    9  A    between atoms: C10_25  and  C11_27 
REMARK   10  A    between atoms: C11_27  and  C12_28 
REMARK   11  A    between atoms: C11_27  and  N7_35 
REMARK   12  A    between atoms: C12_28  and  C13_29 
REMARK       I    between atoms: N7_35  and  C19_37 
REMARK   13  A    between atoms: C19_37  and  C20_39 
ROOT
HETATM    1  N4  UNL     1      20.131  19.784  31.257  1.00  0.00    -0.335 N 
ATOM      2  H4  UNL     1      21.031  19.706  30.784  1.00  0.00     0.164 HD
HETATM    3  C7  UNL     1      19.106  18.869  30.926  1.00  0.00     0.318 C 
HETATM    4  O1  UNL     1      18.025  18.971  31.548  1.00  0.00    -0.247 OA
HETATM    5  N5  UNL     1      19.320  17.891  29.932  1.00  0.00    -0.331 N 
HETATM    6  C8  UNL     1      18.335  16.830  29.644  1.00  0.00     0.147 C 
HETATM    7  C9  UNL     1      18.830  16.106  28.381  1.00  0.00     0.145 C 
HETATM    8  N6  UNL     1      19.043  17.059  27.331  1.00  0.00    -0.347 N 
HETATM    9  C10 UNL     1      18.573  16.966  26.003  1.00  0.00     0.242 C 
HETATM   10  O2  UNL     1      18.716  17.999  25.299  1.00  0.00    -0.271 OA
HETATM   11  C24 UNL     1      19.881  18.224  27.675  1.00  0.00     0.145 C 
HETATM   12  C25 UNL     1      20.476  17.902  29.063  1.00  0.00     0.147 C 
ENDROOT
BRANCH   9  13
HETATM   13  C11 UNL     1      17.958  15.756  25.475  1.00  0.00     0.177 C 
BRANCH  13  14
HETATM   14  C12 UNL     1      18.917  14.803  24.885  1.00  0.00     0.039 C 
BRANCH  14  15
HETATM   15  C13 UNL     1      19.526  13.724  25.674  1.00  0.00    -0.012 C 
HETATM   16  C14 UNL     1      19.614  12.515  24.676  1.00  0.00     0.005 C 
HETATM   17  C15 UNL     1      20.661  11.573  25.232  1.00  0.00     0.000 C 
HETATM   18  C16 UNL     1      20.548  11.467  26.739  1.00  0.00     0.000 C 
HETATM   19  C17 UNL     1      19.140  11.782  27.201  1.00  0.00     0.000 C 
HETATM   20  C18 UNL     1      18.688  13.177  26.792  1.00  0.00     0.005 C 
ENDBRANCH  14  15
ENDBRANCH  13  14
BRANCH  13  21
HETATM   21  N7  UNL     1      16.782  15.938  24.653  1.00  0.00    -0.346 N 
HETATM   22  C19 UNL     1      15.488  16.186  25.103  1.00  0.00     0.249 C 
HETATM   23  O3  UNL     1      15.169  16.298  26.310  1.00  0.00    -0.271 OA
ATOM     24  H7  UNL     1      16.914  15.880  23.644  1.00  0.00     0.163 HD
BRANCH  22  25
HETATM   25  C20 UNL     1      14.432  16.321  24.051  1.00  0.00     0.277 C 
HETATM   26  C21 UNL     1      14.396  15.182  23.080  1.00  0.00     0.044 C 
HETATM   27  C22 UNL     1      13.144  15.586  22.274  1.00  0.00     0.030 C 
HETATM   28  C23 UNL     1      12.351  16.431  23.277  1.00  0.00     0.233 C 
HETATM   29  N8  UNL     1      13.086  16.317  24.554  1.00  0.00    -0.062 N 
ATOM     30  H82 UNL     1      12.831  15.529  25.149  1.00  0.00     0.278 HD
ATOM     31  H81 UNL     1      12.869  17.020  25.261  1.00  0.00     0.278 HD
ENDBRANCH  22  25
ENDBRANCH  13  21
ENDBRANCH   9  13
BRANCH   1  32
HETATM   32  C5  UNL     1      19.947  20.834  32.250  1.00  0.00     0.128 C 
BRANCH  32  33
HETATM   33  C4  UNL     1      20.418  22.139  31.700  1.00  0.00     0.140 C 
BRANCH  33  34
HETATM   34  N2  UNL     1      19.559  22.620  30.678  1.00  0.00    -0.417 N 
ATOM     35  H2  UNL     1      18.581  22.856  30.848  1.00  0.00     0.153 HD
BRANCH  34  36
HETATM   36  C3  UNL     1      20.166  22.746  29.398  1.00  0.00     0.146 C 
BRANCH  36  37
HETATM   37  C2  UNL     1      19.585  21.943  28.292  1.00  0.00     0.196 C 
HETATM   38  C1  UNL     1      19.597  22.757  26.997  1.00  0.00     0.041 C 
BRANCH  37  39
HETATM   39  N1  UNL     1      18.364  21.273  28.540  1.00  0.00    -0.074 N 
ATOM     40  H13 UNL     1      18.419  20.738  29.407  1.00  0.00     0.274 HD
ATOM     41  H12 UNL     1      17.635  21.939  28.794  1.00  0.00     0.274 HD
ATOM     42  H11 UNL     1      18.053  20.678  27.772  1.00  0.00     0.274 HD
ENDBRANCH  37  39
ENDBRANCH  36  37
ENDBRANCH  34  36
ENDBRANCH  33  34
ENDBRANCH  32  33
BRANCH  32  43
HETATM   43  C6  UNL     1      20.651  20.506  33.567  1.00  0.00     0.256 C 
BRANCH  43  44
HETATM   44  N3  UNL     1      21.856  19.786  33.350  1.00  0.00    -0.077 N 
ATOM     45  H33 UNL     1      21.890  18.938  33.914  1.00  0.00     0.274 HD
ATOM     46  H32 UNL     1      21.875  19.361  32.423  1.00  0.00     0.274 HD
ATOM     47  H31 UNL     1      22.677  20.372  33.507  1.00  0.00     0.274 HD
ENDBRANCH  43  44
ENDBRANCH  32  43
ENDBRANCH   1  32
TORSDOF 13
ENDMDL
