MODEL 1
REMARK VINA RESULT: -7.010692900      0.000      0.000
REMARK  12 active torsions:
REMARK  status: ('A' for Active; 'I' for Inactive)
REMARK    1  A    between atoms: C2_2  and  N1_3 
REMARK    2  A    between atoms: C2_2  and  C4_10 
REMARK       I    between atoms: N1_3  and  C3_5 
REMARK       I    between atoms: C4_10  and  N4_12 
REMARK    3  A    between atoms: N4_12  and  C5_14 
REMARK    4  A    between atoms: C5_14  and  C7_16 
REMARK    5  A    between atoms: C7_16  and  C8_17 
REMARK    6  A    between atoms: C7_16  and  N5_20 
REMARK    7  A    between atoms: C15_25  and  C16_26 
REMARK       I    between atoms: C16_26  and  N6_28 
REMARK    8  A    between atoms: N6_28  and  C17_30 
REMARK    9  A    between atoms: C17_30  and  C18_31 
REMARK   10  A    between atoms: C17_30  and  C21_37 
REMARK   11  A    between atoms: C19_32  and  S1_33 
REMARK   12  A    between atoms: C21_37  and  O5_39 
ROOT
HETATM    1  N5  UNL     1      19.930  20.217  30.359  1.00  0.00    -0.372 N 
HETATM    2  C11 UNL     1      20.102  21.540  29.742  1.00  0.00     0.123 C 
HETATM    3  C12 UNL     1      19.703  22.641  30.705  1.00  0.00     0.020 C 
HETATM    4  C13 UNL     1      20.336  22.451  32.060  1.00  0.00     0.004 C 
HETATM    5  C14 UNL     1      20.331  21.037  32.512  1.00  0.00     0.035 C 
HETATM    6  C15 UNL     1      20.853  20.121  31.367  1.00  0.00     0.176 C 
ENDROOT
BRANCH   1   7
HETATM    7  C7  UNL     1      19.552  19.216  29.466  1.00  0.00     0.011 C 
BRANCH   7   8
HETATM    8  C5  UNL     1      18.058  18.967  29.471  1.00  0.00     0.126 C 
HETATM    9  C6  UNL     1      17.618  18.948  30.946  1.00  0.00     0.038 C 
BRANCH   8  10
HETATM   10  N4  UNL     1      17.651  17.688  28.946  1.00  0.00    -0.350 N 
HETATM   11  C4  UNL     1      16.329  17.368  28.569  1.00  0.00     0.240 C 
HETATM   12  O1  UNL     1      15.464  18.265  28.704  1.00  0.00    -0.271 OA
ATOM     13  H4  UNL     1      18.365  16.967  28.839  1.00  0.00     0.163 HD
BRANCH  11  14
HETATM   14  C2  UNL     1      15.873  16.071  28.032  1.00  0.00     0.172 C 
HETATM   15  C1  UNL     1      16.645  14.885  28.536  1.00  0.00     0.042 C 
BRANCH  14  16
HETATM   16  N1  UNL     1      15.847  16.038  26.600  1.00  0.00    -0.352 N 
HETATM   17  C3  UNL     1      14.657  16.029  25.839  1.00  0.00     0.182 C 
HETATM   18  N2  UNL     1      14.456  15.099  24.981  1.00  0.00    -0.374 N 
HETATM   19  N3  UNL     1      13.659  17.029  25.992  1.00  0.00    -0.064 NA
ATOM     20  H22 UNL     1      15.172  14.381  24.871  1.00  0.00     0.158 HD
ATOM     21  H21 UNL     1      13.596  15.093  24.432  1.00  0.00     0.158 HD
ATOM     22  H1  UNL     1      16.737  16.020  26.102  1.00  0.00     0.163 HD
ENDBRANCH  14  16
ENDBRANCH  11  14
ENDBRANCH   8  10
ENDBRANCH   7   8
BRANCH   7  23
HETATM   23  C8  UNL     1      20.176  19.230  28.106  1.00  0.00     0.025 C 
HETATM   24  C9  UNL     1      19.244  19.525  26.962  1.00  0.00     0.016 C 
HETATM   25  C10 UNL     1      20.935  17.990  27.730  1.00  0.00     0.016 C 
ENDBRANCH   7  23
ENDBRANCH   1   7
BRANCH   6  26
HETATM   26  C16 UNL     1      21.322  18.894  31.962  1.00  0.00     0.241 C 
HETATM   27  O2  UNL     1      22.362  18.259  31.676  1.00  0.00    -0.271 OA
HETATM   28  N6  UNL     1      20.563  18.283  33.001  1.00  0.00    -0.349 N 
ATOM     29  H6  UNL     1      19.701  18.744  33.289  1.00  0.00     0.163 HD
BRANCH  28  30
HETATM   30  C17 UNL     1      20.919  17.070  33.671  1.00  0.00     0.136 C 
BRANCH  30  31
HETATM   31  C18 UNL     1      19.659  16.383  34.068  1.00  0.00     0.012 C 
HETATM   32  C19 UNL     1      18.655  16.191  33.243  1.00  0.00     0.106 C 
BRANCH  32  33
HETATM   33  S1  UNL     1      17.212  15.372  33.799  1.00  0.00     0.161 S 
HETATM   34  C20 UNL     1      17.348  13.639  33.394  1.00  0.00     0.166 C 
HETATM   35  O3  UNL     1      15.988  15.951  33.156  1.00  0.00    -0.224 OA
HETATM   36  O4  UNL     1      17.169  15.471  35.296  1.00  0.00    -0.224 OA
ENDBRANCH  32  33
ENDBRANCH  30  31
BRANCH  30  37
HETATM   37  C21 UNL     1      21.711  17.293  34.935  1.00  0.00     0.140 C 
HETATM   38  C22 UNL     1      21.274  18.508  35.703  1.00  0.00     0.042 C 
BRANCH  37  39
HETATM   39  O5  UNL     1      23.055  17.457  34.602  1.00  0.00    -0.394 OA
ATOM     40  H5  UNL     1      23.321  18.340  34.826  1.00  0.00     0.210 HD
ENDBRANCH  37  39
ENDBRANCH  30  37
ENDBRANCH  28  30
ENDBRANCH   6  26
TORSDOF 12
ENDMDL
MODEL 2
REMARK VINA RESULT: -6.943957323      2.798      6.919
REMARK  12 active torsions:
REMARK  status: ('A' for Active; 'I' for Inactive)
REMARK    1  A    between atoms: C2_2  and  N1_3 
REMARK    2  A    between atoms: C2_2  and  C4_10 
REMARK       I    between atoms: N1_3  and  C3_5 
REMARK       I    between atoms: C4_10  and  N4_12 
REMARK    3  A    between atoms: N4_12  and  C5_14 
REMARK    4  A    between atoms: C5_14  and  C7_16 
REMARK    5  A    between atoms: C7_16  and  C8_17 
REMARK    6  A    between atoms: C7_16  and  N5_20 
REMARK    7  A    between atoms: C15_25  and  C16_26 
REMARK       I    between atoms: C16_26  and  N6_28 
REMARK    8  A    between atoms: N6_28  and  C17_30 
REMARK    9  A    between atoms: C17_30  and  C18_31 
REMARK   10  A    between atoms: C17_30  and  C21_37 
REMARK   11  A    between atoms: C19_32  and  S1_33 
REMARK   12  A    between atoms: C21_37  and  O5_39 
ROOT
HETATM    1  N5  UNL     1      19.034  16.360  32.515  1.00  0.00    -0.372 N 
HETATM    2  C11 UNL     1      18.886  15.138  33.319  1.00  0.00     0.123 C 
HETATM    3  C12 UNL     1      17.769  15.290  34.332  1.00  0.00     0.020 C 
HETATM    4  C13 UNL     1      16.511  15.825  33.697  1.00  0.00     0.004 C 
HETATM    5  C14 UNL     1      16.770  16.908  32.714  1.00  0.00     0.035 C 
HETATM    6  C15 UNL     1      17.906  16.473  31.744  1.00  0.00     0.176 C 
ENDROOT
BRANCH   1   7
HETATM    7  C7  UNL     1      20.346  16.636  32.132  1.00  0.00     0.011 C 
BRANCH   7   8
HETATM    8  C5  UNL     1      20.867  17.925  32.733  1.00  0.00     0.126 C 
HETATM    9  C6  UNL     1      20.521  17.887  34.232  1.00  0.00     0.038 C 
BRANCH   8  10
HETATM   10  N4  UNL     1      20.241  19.125  32.238  1.00  0.00    -0.350 N 
HETATM   11  C4  UNL     1      20.919  20.344  32.021  1.00  0.00     0.240 C 
HETATM   12  O1  UNL     1      22.145  20.368  32.277  1.00  0.00    -0.271 OA
ATOM     13  H4  UNL     1      19.242  19.092  32.031  1.00  0.00     0.163 HD
BRANCH  11  14
HETATM   14  C2  UNL     1      20.312  21.593  31.520  1.00  0.00     0.172 C 
HETATM   15  C1  UNL     1      19.821  22.518  32.596  1.00  0.00     0.042 C 
BRANCH  14  16
HETATM   16  N1  UNL     1      19.255  21.363  30.582  1.00  0.00    -0.352 N 
HETATM   17  C3  UNL     1      19.470  21.041  29.223  1.00  0.00     0.182 C 
HETATM   18  N2  UNL     1      18.934  21.756  28.305  1.00  0.00    -0.374 N 
HETATM   19  N3  UNL     1      20.272  19.936  28.830  1.00  0.00    -0.064 NA
ATOM     20  H22 UNL     1      18.358  22.549  28.587  1.00  0.00     0.158 HD
ATOM     21  H21 UNL     1      19.089  21.523  27.325  1.00  0.00     0.158 HD
ATOM     22  H1  UNL     1      18.293  21.435  30.913  1.00  0.00     0.163 HD
ENDBRANCH  14  16
ENDBRANCH  11  14
ENDBRANCH   8  10
ENDBRANCH   7   8
BRANCH   7  23
HETATM   23  C8  UNL     1      21.323  15.503  32.145  1.00  0.00     0.025 C 
HETATM   24  C9  UNL     1      22.749  15.873  32.449  1.00  0.00     0.016 C 
HETATM   25  C10 UNL     1      21.355  14.663  30.901  1.00  0.00     0.016 C 
ENDBRANCH   7  23
ENDBRANCH   1   7
BRANCH   6  26
HETATM   26  C16 UNL     1      17.786  17.258  30.542  1.00  0.00     0.241 C 
HETATM   27  O2  UNL     1      17.660  18.501  30.454  1.00  0.00    -0.271 OA
HETATM   28  N6  UNL     1      17.809  16.609  29.274  1.00  0.00    -0.349 N 
ATOM     29  H6  UNL     1      17.911  15.594  29.265  1.00  0.00     0.163 HD
BRANCH  28  30
HETATM   30  C17 UNL     1      17.700  17.273  28.011  1.00  0.00     0.136 C 
BRANCH  30  31
HETATM   31  C18 UNL     1      16.510  16.721  27.308  1.00  0.00     0.012 C 
HETATM   32  C19 UNL     1      15.294  16.773  27.803  1.00  0.00     0.106 C 
BRANCH  32  33
HETATM   33  S1  UNL     1      13.954  16.097  26.904  1.00  0.00     0.161 S 
HETATM   34  C20 UNL     1      14.483  15.811  25.223  1.00  0.00     0.166 C 
HETATM   35  O3  UNL     1      12.779  17.026  26.917  1.00  0.00    -0.224 OA
HETATM   36  O4  UNL     1      13.627  14.756  27.495  1.00  0.00    -0.224 OA
ENDBRANCH  32  33
ENDBRANCH  30  31
BRANCH  30  37
HETATM   37  C21 UNL     1      18.886  17.043  27.108  1.00  0.00     0.140 C 
HETATM   38  C22 UNL     1      20.049  16.398  27.807  1.00  0.00     0.042 C 
BRANCH  37  39
HETATM   39  O5  UNL     1      19.315  18.270  26.605  1.00  0.00    -0.394 OA
ATOM     40  H5  UNL     1      20.215  18.414  26.873  1.00  0.00     0.210 HD
ENDBRANCH  37  39
ENDBRANCH  30  37
ENDBRANCH  28  30
ENDBRANCH   6  26
TORSDOF 12
ENDMDL
MODEL 3
REMARK VINA RESULT: -6.933141132      2.767      6.526
REMARK  12 active torsions:
REMARK  status: ('A' for Active; 'I' for Inactive)
REMARK    1  A    between atoms: C2_2  and  N1_3 
REMARK    2  A    between atoms: C2_2  and  C4_10 
REMARK       I    between atoms: N1_3  and  C3_5 
REMARK       I    between atoms: C4_10  and  N4_12 
REMARK    3  A    between atoms: N4_12  and  C5_14 
REMARK    4  A    between atoms: C5_14  and  C7_16 
REMARK    5  A    between atoms: C7_16  and  C8_17 
REMARK    6  A    between atoms: C7_16  and  N5_20 
REMARK    7  A    between atoms: C15_25  and  C16_26 
REMARK       I    between atoms: C16_26  and  N6_28 
REMARK    8  A    between atoms: N6_28  and  C17_30 
REMARK    9  A    between atoms: C17_30  and  C18_31 
REMARK   10  A    between atoms: C17_30  and  C21_37 
REMARK   11  A    between atoms: C19_32  and  S1_33 
REMARK   12  A    between atoms: C21_37  and  O5_39 
ROOT
HETATM    1  N5  UNL     1      22.254  16.076  29.438  1.00  0.00    -0.372 N 
HETATM    2  C11 UNL     1      22.794  15.342  28.283  1.00  0.00     0.123 C 
HETATM    3  C12 UNL     1      22.213  13.943  28.215  1.00  0.00     0.020 C 
HETATM    4  C13 UNL     1      20.712  13.955  28.354  1.00  0.00     0.004 C 
HETATM    5  C14 UNL     1      20.232  14.904  29.390  1.00  0.00     0.035 C 
HETATM    6  C15 UNL     1      20.923  16.285  29.194  1.00  0.00     0.176 C 
ENDROOT
BRANCH   1   7
HETATM    7  C7  UNL     1      23.155  16.970  30.016  1.00  0.00     0.011 C 
BRANCH   7   8
HETATM    8  C5  UNL     1      23.159  16.892  31.529  1.00  0.00     0.126 C 
HETATM    9  C6  UNL     1      22.784  15.446  31.899  1.00  0.00     0.038 C 
BRANCH   8  10
HETATM   10  N4  UNL     1      22.170  17.711  32.184  1.00  0.00    -0.350 N 
HETATM   11  C4  UNL     1      22.391  19.041  32.602  1.00  0.00     0.240 C 
HETATM   12  O1  UNL     1      23.524  19.529  32.381  1.00  0.00    -0.271 OA
ATOM     13  H4  UNL     1      21.251  17.303  32.357  1.00  0.00     0.163 HD
BRANCH  11  14
HETATM   14  C2  UNL     1      21.407  19.909  33.279  1.00  0.00     0.172 C 
HETATM   15  C1  UNL     1      20.821  19.323  34.531  1.00  0.00     0.042 C 
BRANCH  14  16
HETATM   16  N1  UNL     1      20.343  20.324  32.415  1.00  0.00    -0.352 N 
HETATM   17  C3  UNL     1      20.160  21.658  31.983  1.00  0.00     0.182 C 
HETATM   18  N2  UNL     1      19.039  22.244  32.184  1.00  0.00    -0.374 N 
HETATM   19  N3  UNL     1      21.189  22.382  31.326  1.00  0.00    -0.064 NA
ATOM     20  H22 UNL     1      18.300  21.724  32.656  1.00  0.00     0.158 HD
ATOM     21  H21 UNL     1      18.908  23.206  31.873  1.00  0.00     0.158 HD
ATOM     22  H1  UNL     1      19.680  19.619  32.093  1.00  0.00     0.163 HD
ENDBRANCH  14  16
ENDBRANCH  11  14
ENDBRANCH   8  10
ENDBRANCH   7   8
BRANCH   7  23
HETATM   23  C8  UNL     1      24.511  17.085  29.395  1.00  0.00     0.025 C 
HETATM   24  C9  UNL     1      25.670  17.114  30.355  1.00  0.00     0.016 C 
HETATM   25  C10 UNL     1      24.698  18.248  28.463  1.00  0.00     0.016 C 
ENDBRANCH   7  23
ENDBRANCH   1   7
BRANCH   6  26
HETATM   26  C16 UNL     1      20.100  17.284  29.829  1.00  0.00     0.241 C 
HETATM   27  O2  UNL     1      20.266  18.525  29.819  1.00  0.00    -0.271 OA
HETATM   28  N6  UNL     1      18.950  16.882  30.567  1.00  0.00    -0.349 N 
ATOM     29  H6  UNL     1      18.749  15.883  30.619  1.00  0.00     0.163 HD
BRANCH  28  30
HETATM   30  C17 UNL     1      18.055  17.773  31.240  1.00  0.00     0.136 C 
BRANCH  30  31
HETATM   31  C18 UNL     1      17.358  16.998  32.304  1.00  0.00     0.012 C 
HETATM   32  C19 UNL     1      17.773  15.828  32.731  1.00  0.00     0.106 C 
BRANCH  32  33
HETATM   33  S1  UNL     1      16.888  14.991  33.986  1.00  0.00     0.161 S 
HETATM   34  C20 UNL     1      17.272  13.250  33.890  1.00  0.00     0.166 C 
HETATM   35  O3  UNL     1      15.412  15.196  33.827  1.00  0.00    -0.224 OA
HETATM   36  O4  UNL     1      17.391  15.479  35.314  1.00  0.00    -0.224 OA
ENDBRANCH  32  33
ENDBRANCH  30  31
BRANCH  30  37
HETATM   37  C21 UNL     1      16.985  18.341  30.341  1.00  0.00     0.140 C 
HETATM   38  C22 UNL     1      16.681  17.469  29.156  1.00  0.00     0.042 C 
BRANCH  37  39
HETATM   39  O5  UNL     1      17.408  19.581  29.865  1.00  0.00    -0.394 OA
ATOM     40  H5  UNL     1      17.302  20.226  30.554  1.00  0.00     0.210 HD
ENDBRANCH  37  39
ENDBRANCH  30  37
ENDBRANCH  28  30
ENDBRANCH   6  26
TORSDOF 12
ENDMDL
MODEL 4
REMARK VINA RESULT: -6.920930996      2.648      7.338
REMARK  12 active torsions:
REMARK  status: ('A' for Active; 'I' for Inactive)
REMARK    1  A    between atoms: C2_2  and  N1_3 
REMARK    2  A    between atoms: C2_2  and  C4_10 
REMARK       I    between atoms: N1_3  and  C3_5 
REMARK       I    between atoms: C4_10  and  N4_12 
REMARK    3  A    between atoms: N4_12  and  C5_14 
REMARK    4  A    between atoms: C5_14  and  C7_16 
REMARK    5  A    between atoms: C7_16  and  C8_17 
REMARK    6  A    between atoms: C7_16  and  N5_20 
REMARK    7  A    between atoms: C15_25  and  C16_26 
REMARK       I    between atoms: C16_26  and  N6_28 
REMARK    8  A    between atoms: N6_28  and  C17_30 
REMARK    9  A    between atoms: C17_30  and  C18_31 
REMARK   10  A    between atoms: C17_30  and  C21_37 
REMARK   11  A    between atoms: C19_32  and  S1_33 
REMARK   12  A    between atoms: C21_37  and  O5_39 
ROOT
HETATM    1  N5  UNL     1      18.497  15.008  32.346  1.00  0.00    -0.372 N 
HETATM    2  C11 UNL     1      18.300  13.566  32.555  1.00  0.00     0.123 C 
HETATM    3  C12 UNL     1      17.693  13.298  33.919  1.00  0.00     0.020 C 
HETATM    4  C13 UNL     1      16.498  14.178  34.180  1.00  0.00     0.004 C 
HETATM    5  C14 UNL     1      16.695  15.577  33.722  1.00  0.00     0.035 C 
HETATM    6  C15 UNL     1      17.253  15.577  32.269  1.00  0.00     0.176 C 
ENDROOT
BRANCH   1   7
HETATM    7  C7  UNL     1      19.616  15.324  31.576  1.00  0.00     0.011 C 
BRANCH   7   8
HETATM    8  C5  UNL     1      20.661  16.093  32.359  1.00  0.00     0.126 C 
HETATM    9  C6  UNL     1      20.618  15.556  33.801  1.00  0.00     0.038 C 
BRANCH   8  10
HETATM   10  N4  UNL     1      20.411  17.507  32.482  1.00  0.00    -0.350 N 
HETATM   11  C4  UNL     1      21.418  18.496  32.463  1.00  0.00     0.240 C 
HETATM   12  O1  UNL     1      22.601  18.104  32.326  1.00  0.00    -0.271 OA
ATOM     13  H4  UNL     1      19.444  17.813  32.591  1.00  0.00     0.163 HD
BRANCH  11  14
HETATM   14  C2  UNL     1      21.203  19.951  32.590  1.00  0.00     0.172 C 
HETATM   15  C1  UNL     1      20.611  20.378  33.902  1.00  0.00     0.042 C 
BRANCH  14  16
HETATM   16  N1  UNL     1      20.417  20.494  31.523  1.00  0.00    -0.352 N 
HETATM   17  C3  UNL     1      20.292  21.878  31.268  1.00  0.00     0.182 C 
HETATM   18  N2  UNL     1      19.130  22.414  31.213  1.00  0.00    -0.374 N 
HETATM   19  N3  UNL     1      21.426  22.710  31.068  1.00  0.00    -0.064 NA
ATOM     20  H22 UNL     1      18.316  21.817  31.357  1.00  0.00     0.158 HD
ATOM     21  H21 UNL     1      19.041  23.414  31.029  1.00  0.00     0.158 HD
ATOM     22  H1  UNL     1      19.919  19.846  30.913  1.00  0.00     0.163 HD
ENDBRANCH  14  16
ENDBRANCH  11  14
ENDBRANCH   8  10
ENDBRANCH   7   8
BRANCH   7  23
HETATM   23  C8  UNL     1      20.168  14.256  30.685  1.00  0.00     0.025 C 
HETATM   24  C9  UNL     1      21.664  14.244  30.526  1.00  0.00     0.016 C 
HETATM   25  C10 UNL     1      19.590  14.208  29.300  1.00  0.00     0.016 C 
ENDBRANCH   7  23
ENDBRANCH   1   7
BRANCH   6  26
HETATM   26  C16 UNL     1      16.951  16.857  31.679  1.00  0.00     0.241 C 
HETATM   27  O2  UNL     1      16.710  17.932  32.275  1.00  0.00    -0.271 OA
HETATM   28  N6  UNL     1      16.907  16.984  30.261  1.00  0.00    -0.349 N 
ATOM     29  H6  UNL     1      17.094  16.148  29.707  1.00  0.00     0.163 HD
BRANCH  28  30
HETATM   30  C17 UNL     1      16.620  18.195  29.555  1.00  0.00     0.136 C 
BRANCH  30  31
HETATM   31  C18 UNL     1      15.592  17.886  28.522  1.00  0.00     0.012 C 
HETATM   32  C19 UNL     1      15.248  16.662  28.194  1.00  0.00     0.106 C 
BRANCH  32  33
HETATM   33  S1  UNL     1      14.029  16.396  26.967  1.00  0.00     0.161 S 
HETATM   34  C20 UNL     1      14.834  15.827  25.479  1.00  0.00     0.166 C 
HETATM   35  O3  UNL     1      13.271  17.657  26.686  1.00  0.00    -0.224 OA
HETATM   36  O4  UNL     1      13.135  15.285  27.434  1.00  0.00    -0.224 OA
ENDBRANCH  32  33
ENDBRANCH  30  31
BRANCH  30  37
HETATM   37  C21 UNL     1      17.813  18.762  28.827  1.00  0.00     0.140 C 
HETATM   38  C22 UNL     1      19.040  17.902  28.937  1.00  0.00     0.042 C 
BRANCH  37  39
HETATM   39  O5  UNL     1      18.116  20.012  29.365  1.00  0.00    -0.394 OA
ATOM     40  H5  UNL     1      17.323  20.535  29.390  1.00  0.00     0.210 HD
ENDBRANCH  37  39
ENDBRANCH  30  37
ENDBRANCH  28  30
ENDBRANCH   6  26
TORSDOF 12
ENDMDL
MODEL 5
REMARK VINA RESULT: -6.873962065      3.041      6.257
REMARK  12 active torsions:
REMARK  status: ('A' for Active; 'I' for Inactive)
REMARK    1  A    between atoms: C2_2  and  N1_3 
REMARK    2  A    between atoms: C2_2  and  C4_10 
REMARK       I    between atoms: N1_3  and  C3_5 
REMARK       I    between atoms: C4_10  and  N4_12 
REMARK    3  A    between atoms: N4_12  and  C5_14 
REMARK    4  A    between atoms: C5_14  and  C7_16 
REMARK    5  A    between atoms: C7_16  and  C8_17 
REMARK    6  A    between atoms: C7_16  and  N5_20 
REMARK    7  A    between atoms: C15_25  and  C16_26 
REMARK       I    between atoms: C16_26  and  N6_28 
REMARK    8  A    between atoms: N6_28  and  C17_30 
REMARK    9  A    between atoms: C17_30  and  C18_31 
REMARK   10  A    between atoms: C17_30  and  C21_37 
REMARK   11  A    between atoms: C19_32  and  S1_33 
REMARK   12  A    between atoms: C21_37  and  O5_39 
ROOT
HETATM    1  N5  UNL     1      19.404  20.708  29.133  1.00  0.00    -0.372 N 
HETATM    2  C11 UNL     1      19.197  21.998  28.459  1.00  0.00     0.123 C 
HETATM    3  C12 UNL     1      19.722  21.954  27.037  1.00  0.00     0.020 C 
HETATM    4  C13 UNL     1      19.234  20.732  26.301  1.00  0.00     0.004 C 
HETATM    5  C14 UNL     1      19.255  19.504  27.135  1.00  0.00     0.035 C 
HETATM    6  C15 UNL     1      18.592  19.796  28.512  1.00  0.00     0.176 C 
ENDROOT
BRANCH   1   7
HETATM    7  C7  UNL     1      19.661  20.814  30.499  1.00  0.00     0.011 C 
BRANCH   7   8
HETATM    8  C5  UNL     1      20.809  19.930  30.944  1.00  0.00     0.126 C 
HETATM    9  C6  UNL     1      21.740  19.770  29.729  1.00  0.00     0.038 C 
BRANCH   8  10
HETATM   10  N4  UNL     1      20.438  18.586  31.307  1.00  0.00    -0.350 N 
HETATM   11  C4  UNL     1      20.159  18.167  32.626  1.00  0.00     0.240 C 
HETATM   12  O1  UNL     1      20.241  19.033  33.529  1.00  0.00    -0.271 OA
ATOM     13  H4  UNL     1      20.372  17.892  30.563  1.00  0.00     0.163 HD
BRANCH  11  14
HETATM   14  C2  UNL     1      19.780  16.801  33.037  1.00  0.00     0.172 C 
HETATM   15  C1  UNL     1      20.938  15.857  33.191  1.00  0.00     0.042 C 
BRANCH  14  16
HETATM   16  N1  UNL     1      18.805  16.208  32.173  1.00  0.00    -0.352 N 
HETATM   17  C3  UNL     1      17.500  15.858  32.588  1.00  0.00     0.182 C 
HETATM   18  N2  UNL     1      17.079  14.660  32.423  1.00  0.00    -0.374 N 
HETATM   19  N3  UNL     1      16.625  16.801  33.190  1.00  0.00    -0.064 NA
ATOM     20  H22 UNL     1      17.708  13.982  31.991  1.00  0.00     0.158 HD
ATOM     21  H21 UNL     1      16.138  14.407  32.723  1.00  0.00     0.158 HD
ATOM     22  H1  UNL     1      19.066  16.029  31.203  1.00  0.00     0.163 HD
ENDBRANCH  14  16
ENDBRANCH  11  14
ENDBRANCH   8  10
ENDBRANCH   7   8
BRANCH   7  23
HETATM   23  C8  UNL     1      19.662  22.185  31.099  1.00  0.00     0.025 C 
HETATM   24  C9  UNL     1      20.871  23.029  30.799  1.00  0.00     0.016 C 
HETATM   25  C10 UNL     1      19.462  22.238  32.587  1.00  0.00     0.016 C 
ENDBRANCH   7  23
ENDBRANCH   1   7
BRANCH   6  26
HETATM   26  C16 UNL     1      18.162  18.539  29.071  1.00  0.00     0.241 C 
HETATM   27  O2  UNL     1      17.661  18.339  30.201  1.00  0.00    -0.271 OA
HETATM   28  N6  UNL     1      18.291  17.347  28.301  1.00  0.00    -0.349 N 
ATOM     29  H6  UNL     1      18.692  17.430  27.367  1.00  0.00     0.163 HD
BRANCH  28  30
HETATM   30  C17 UNL     1      17.902  16.042  28.739  1.00  0.00     0.136 C 
BRANCH  30  31
HETATM   31  C18 UNL     1      18.675  15.047  27.946  1.00  0.00     0.012 C 
HETATM   32  C19 UNL     1      18.247  13.828  27.708  1.00  0.00     0.106 C 
BRANCH  32  33
HETATM   33  S1  UNL     1      19.224  12.726  26.764  1.00  0.00     0.161 S 
HETATM   34  C20 UNL     1      20.895  12.767  27.391  1.00  0.00     0.166 C 
HETATM   35  O3  UNL     1      19.215  13.111  25.315  1.00  0.00    -0.224 OA
HETATM   36  O4  UNL     1      18.705  11.336  26.987  1.00  0.00    -0.224 OA
ENDBRANCH  32  33
ENDBRANCH  30  31
BRANCH  30  37
HETATM   37  C21 UNL     1      16.442  15.742  28.510  1.00  0.00     0.140 C 
HETATM   38  C22 UNL     1      15.828  16.579  27.423  1.00  0.00     0.042 C 
BRANCH  37  39
HETATM   39  O5  UNL     1      15.741  15.990  29.690  1.00  0.00    -0.394 OA
ATOM     40  H5  UNL     1      14.858  16.262  29.470  1.00  0.00     0.210 HD
ENDBRANCH  37  39
ENDBRANCH  30  37
ENDBRANCH  28  30
ENDBRANCH   6  26
TORSDOF 12
ENDMDL
