MODEL 1
REMARK VINA RESULT: -6.667596631      0.000      0.000
REMARK  9 active torsions:
REMARK  status: ('A' for Active; 'I' for Inactive)
REMARK    1  A    between atoms: C3_3  and  C4_4 
REMARK    2  A    between atoms: C14_14  and  O1_15 
REMARK    3  A    between atoms: O1_15  and  C15_16 
REMARK       I    between atoms: C15_16  and  N1_18 
REMARK    4  A    between atoms: N1_18  and  C16_20 
REMARK    5  A    between atoms: C16_20  and  C17_21 
REMARK    6  A    between atoms: C17_21  and  N2_22 
REMARK    7  A    between atoms: C23_31  and  C24_32 
REMARK       I    between atoms: C24_32  and  N3_34 
REMARK    8  A    between atoms: N3_34  and  C25_35 
REMARK    9  A    between atoms: N3_34  and  C28_38 
ROOT
HETATM    1  C1  UNL     1      78.665  57.170  12.602  1.00  0.00     0.112 C 
HETATM    2  C2  UNL     1      79.645  58.230  12.367  1.00  0.00    -0.111 C 
HETATM    3  C3  UNL     1      80.477  59.099  12.169  1.00  0.00    -0.101 C 
ENDROOT
BRANCH   3   4
HETATM    4  C4  UNL     1      81.490  60.166  11.957  1.00  0.00     0.078 C 
HETATM    5  C5  UNL     1      80.906  61.157  11.015  1.00  0.00     0.018 C 
HETATM    6  C6  UNL     1      81.008  62.582  11.361  1.00  0.00     0.007 C 
HETATM    7  C7  UNL     1      80.970  62.980  12.788  1.00  0.00    -0.005 C 
HETATM    8  C8  UNL     1      79.682  63.557  13.252  1.00  0.00    -0.006 C 
HETATM    9  C22 UNL     1      81.188  61.885  13.788  1.00  0.00     0.005 C 
HETATM   10  C9  UNL     1      78.907  64.384  12.301  1.00  0.00     0.006 C 
HETATM   11  C20 UNL     1      78.867  62.312  13.538  1.00  0.00    -0.005 C 
HETATM   12  C10 UNL     1      77.724  64.935  13.114  1.00  0.00     0.010 C 
HETATM   13  C11 UNL     1      76.922  63.896  13.773  1.00  0.00    -0.038 C 
HETATM   14  C12 UNL     1      75.710  63.594  12.880  1.00  0.00     0.015 C 
HETATM   15  C13 UNL     1      76.319  64.513  15.046  1.00  0.00     0.042 C 
HETATM   16  C19 UNL     1      77.590  62.650  14.193  1.00  0.00     0.001 C 
HETATM   17  C14 UNL     1      76.309  63.338  16.003  1.00  0.00     0.135 C 
HETATM   18  C18 UNL     1      77.678  62.729  15.718  1.00  0.00     0.038 C 
HETATM   19  C21 UNL     1      79.856  61.553  14.380  1.00  0.00     0.011 C 
HETATM   20  C23 UNL     1      81.936  60.688  13.267  1.00  0.00     0.098 C 
BRANCH  17  21
HETATM   21  O1  UNL     1      76.129  63.704  17.325  1.00  0.00    -0.299 OA
BRANCH  21  22
HETATM   22  C15 UNL     1      74.860  63.976  17.831  1.00  0.00     0.360 C 
HETATM   23  O2  UNL     1      74.566  65.199  17.901  1.00  0.00    -0.239 OA
HETATM   24  N1  UNL     1      73.968  62.957  18.235  1.00  0.00    -0.335 N 
ATOM     25  H1  UNL     1      74.266  61.984  18.156  1.00  0.00     0.164 HD
BRANCH  24  26
HETATM   26  C16 UNL     1      72.673  63.235  18.746  1.00  0.00     0.152 C 
BRANCH  26  27
HETATM   27  C17 UNL     1      72.409  62.608  20.092  1.00  0.00     0.249 C 
BRANCH  27  28
HETATM   28  N2  UNL     1      73.467  62.955  21.026  1.00  0.00    -0.078 N 
ATOM     29  H23 UNL     1      74.311  63.269  20.547  1.00  0.00     0.274 HD
ATOM     30  H22 UNL     1      73.256  63.812  21.538  1.00  0.00     0.274 HD
ATOM     31  H21 UNL     1      73.655  62.174  21.655  1.00  0.00     0.274 HD
ENDBRANCH  27  28
ENDBRANCH  26  27
ENDBRANCH  24  26
ENDBRANCH  21  22
ENDBRANCH  17  21
BRANCH  20  32
HETATM   32  C24 UNL     1      83.370  61.058  13.211  1.00  0.00     0.226 C 
HETATM   33  O3  UNL     1      83.736  62.203  13.698  1.00  0.00    -0.273 OA
HETATM   34  N3  UNL     1      84.434  60.295  12.673  1.00  0.00    -0.344 N 
BRANCH  34  35
HETATM   35  C25 UNL     1      84.154  59.016  12.146  1.00  0.00     0.079 C 
HETATM   36  C26 UNL     1      84.507  58.839  10.667  1.00  0.00     0.032 C 
HETATM   37  C27 UNL     1      84.859  57.875  12.851  1.00  0.00     0.032 C 
ENDBRANCH  34  35
BRANCH  34  38
HETATM   38  C28 UNL     1      85.772  60.884  12.700  1.00  0.00     0.079 C 
HETATM   39  C29 UNL     1      86.345  61.131  11.335  1.00  0.00     0.032 C 
HETATM   40  C30 UNL     1      86.725  60.164  13.618  1.00  0.00     0.032 C 
ENDBRANCH  34  38
ENDBRANCH  20  32
ENDBRANCH   3   4
TORSDOF 9
ENDMDL
MODEL 2
REMARK VINA RESULT: -6.542275205      0.877      1.159
REMARK  9 active torsions:
REMARK  status: ('A' for Active; 'I' for Inactive)
REMARK    1  A    between atoms: C3_3  and  C4_4 
REMARK    2  A    between atoms: C14_14  and  O1_15 
REMARK    3  A    between atoms: O1_15  and  C15_16 
REMARK       I    between atoms: C15_16  and  N1_18 
REMARK    4  A    between atoms: N1_18  and  C16_20 
REMARK    5  A    between atoms: C16_20  and  C17_21 
REMARK    6  A    between atoms: C17_21  and  N2_22 
REMARK    7  A    between atoms: C23_31  and  C24_32 
REMARK       I    between atoms: C24_32  and  N3_34 
REMARK    8  A    between atoms: N3_34  and  C25_35 
REMARK    9  A    between atoms: N3_34  and  C28_38 
ROOT
HETATM    1  C1  UNL     1      78.603  57.222  12.563  1.00  0.00     0.112 C 
HETATM    2  C2  UNL     1      79.635  58.237  12.350  1.00  0.00    -0.111 C 
HETATM    3  C3  UNL     1      80.489  59.092  12.191  1.00  0.00    -0.101 C 
ENDROOT
BRANCH   3   4
HETATM    4  C4  UNL     1      81.514  60.147  11.973  1.00  0.00     0.078 C 
HETATM    5  C5  UNL     1      80.961  61.110  10.984  1.00  0.00     0.018 C 
HETATM    6  C6  UNL     1      81.062  62.545  11.287  1.00  0.00     0.007 C 
HETATM    7  C7  UNL     1      80.988  62.989  12.698  1.00  0.00    -0.005 C 
HETATM    8  C8  UNL     1      79.692  63.586  13.109  1.00  0.00    -0.006 C 
HETATM    9  C22 UNL     1      81.172  61.925  13.739  1.00  0.00     0.005 C 
HETATM   10  C9  UNL     1      78.947  64.386  12.112  1.00  0.00     0.006 C 
HETATM   11  C20 UNL     1      78.862  62.355  13.412  1.00  0.00    -0.005 C 
HETATM   12  C10 UNL     1      77.746  64.969  12.874  1.00  0.00     0.010 C 
HETATM   13  C11 UNL     1      76.921  63.956  13.544  1.00  0.00    -0.038 C 
HETATM   14  C12 UNL     1      75.732  63.632  12.629  1.00  0.00     0.015 C 
HETATM   15  C13 UNL     1      76.287  64.616  14.779  1.00  0.00     0.042 C 
HETATM   16  C19 UNL     1      77.570  62.720  14.021  1.00  0.00     0.001 C 
HETATM   17  C14 UNL     1      76.245  63.473  15.773  1.00  0.00     0.135 C 
HETATM   18  C18 UNL     1      77.617  62.848  15.544  1.00  0.00     0.038 C 
HETATM   19  C21 UNL     1      79.823  61.619  14.304  1.00  0.00     0.011 C 
HETATM   20  C23 UNL     1      81.927  60.709  13.277  1.00  0.00     0.098 C 
BRANCH  17  21
HETATM   21  O1  UNL     1      76.031  63.882  17.077  1.00  0.00    -0.299 OA
BRANCH  21  22
HETATM   22  C15 UNL     1      74.784  64.343  17.493  1.00  0.00     0.360 C 
HETATM   23  O2  UNL     1      74.764  65.537  17.894  1.00  0.00    -0.239 OA
HETATM   24  N1  UNL     1      73.626  63.532  17.466  1.00  0.00    -0.335 N 
ATOM     25  H1  UNL     1      73.708  62.571  17.132  1.00  0.00     0.164 HD
BRANCH  24  26
HETATM   26  C16 UNL     1      72.355  64.004  17.886  1.00  0.00     0.152 C 
BRANCH  26  27
HETATM   27  C17 UNL     1      71.648  64.836  16.847  1.00  0.00     0.249 C 
BRANCH  27  28
HETATM   28  N2  UNL     1      71.759  66.249  17.171  1.00  0.00    -0.078 N 
ATOM     29  H23 UNL     1      71.122  66.519  17.920  1.00  0.00     0.274 HD
ATOM     30  H22 UNL     1      72.640  66.463  17.638  1.00  0.00     0.274 HD
ATOM     31  H21 UNL     1      71.625  66.816  16.334  1.00  0.00     0.274 HD
ENDBRANCH  27  28
ENDBRANCH  26  27
ENDBRANCH  24  26
ENDBRANCH  21  22
ENDBRANCH  17  21
BRANCH  20  32
HETATM   32  C24 UNL     1      83.365  61.069  13.248  1.00  0.00     0.226 C 
HETATM   33  O3  UNL     1      83.735  62.189  13.786  1.00  0.00    -0.273 OA
HETATM   34  N3  UNL     1      84.427  60.321  12.685  1.00  0.00    -0.344 N 
BRANCH  34  35
HETATM   35  C25 UNL     1      84.141  59.068  12.102  1.00  0.00     0.079 C 
HETATM   36  C26 UNL     1      84.704  58.873  10.692  1.00  0.00     0.032 C 
HETATM   37  C27 UNL     1      84.649  57.876  12.889  1.00  0.00     0.032 C 
ENDBRANCH  34  35
BRANCH  34  38
HETATM   38  C28 UNL     1      85.769  60.898  12.748  1.00  0.00     0.079 C 
HETATM   39  C29 UNL     1      86.348  61.217  11.400  1.00  0.00     0.032 C 
HETATM   40  C30 UNL     1      86.714  60.121  13.627  1.00  0.00     0.032 C 
ENDBRANCH  34  38
ENDBRANCH  20  32
ENDBRANCH   3   4
TORSDOF 9
ENDMDL
MODEL 3
REMARK VINA RESULT: -6.528501823      3.684      9.885
REMARK  9 active torsions:
REMARK  status: ('A' for Active; 'I' for Inactive)
REMARK    1  A    between atoms: C3_3  and  C4_4 
REMARK    2  A    between atoms: C14_14  and  O1_15 
REMARK    3  A    between atoms: O1_15  and  C15_16 
REMARK       I    between atoms: C15_16  and  N1_18 
REMARK    4  A    between atoms: N1_18  and  C16_20 
REMARK    5  A    between atoms: C16_20  and  C17_21 
REMARK    6  A    between atoms: C17_21  and  N2_22 
REMARK    7  A    between atoms: C23_31  and  C24_32 
REMARK       I    between atoms: C24_32  and  N3_34 
REMARK    8  A    between atoms: N3_34  and  C25_35 
REMARK    9  A    between atoms: N3_34  and  C28_38 
ROOT
HETATM    1  C1  UNL     1      79.651  66.141   7.574  1.00  0.00     0.112 C 
HETATM    2  C2  UNL     1      78.835  66.267   8.782  1.00  0.00    -0.111 C 
HETATM    3  C3  UNL     1      78.148  66.351   9.785  1.00  0.00    -0.101 C 
ENDROOT
BRANCH   3   4
HETATM    4  C4  UNL     1      77.291  66.475  10.994  1.00  0.00     0.078 C 
HETATM    5  C5  UNL     1      76.553  65.194  11.151  1.00  0.00     0.018 C 
HETATM    6  C6  UNL     1      76.530  64.569  12.482  1.00  0.00     0.007 C 
HETATM    7  C7  UNL     1      77.706  64.724  13.369  1.00  0.00    -0.005 C 
HETATM    8  C8  UNL     1      78.590  63.535  13.466  1.00  0.00    -0.006 C 
HETATM    9  C22 UNL     1      78.684  65.797  12.993  1.00  0.00     0.005 C 
HETATM   10  C9  UNL     1      77.964  62.196  13.405  1.00  0.00     0.006 C 
HETATM   11  C20 UNL     1      79.455  63.687  12.230  1.00  0.00    -0.005 C 
HETATM   12  C10 UNL     1      79.107  61.203  13.670  1.00  0.00     0.010 C 
HETATM   13  C11 UNL     1      80.249  61.355  12.759  1.00  0.00    -0.038 C 
HETATM   14  C12 UNL     1      80.093  60.330  11.627  1.00  0.00     0.015 C 
HETATM   15  C13 UNL     1      81.510  60.905  13.514  1.00  0.00     0.042 C 
HETATM   16  C19 UNL     1      80.545  62.695  12.218  1.00  0.00     0.001 C 
HETATM   17  C14 UNL     1      82.570  61.834  12.959  1.00  0.00     0.135 C 
HETATM   18  C18 UNL     1      81.810  63.156  12.944  1.00  0.00     0.038 C 
HETATM   19  C21 UNL     1      79.874  65.122  12.393  1.00  0.00     0.011 C 
HETATM   20  C23 UNL     1      78.119  66.902  12.142  1.00  0.00     0.098 C 
BRANCH  17  21
HETATM   21  O1  UNL     1      83.728  61.867  13.716  1.00  0.00    -0.299 OA
BRANCH  21  22
HETATM   22  C15 UNL     1      84.773  60.980  13.474  1.00  0.00     0.360 C 
HETATM   23  O2  UNL     1      85.060  60.219  14.436  1.00  0.00    -0.239 OA
HETATM   24  N1  UNL     1      85.463  60.936  12.241  1.00  0.00    -0.335 N 
ATOM     25  H1  UNL     1      85.185  61.581  11.500  1.00  0.00     0.164 HD
BRANCH  24  26
HETATM   26  C16 UNL     1      86.525  60.029  11.993  1.00  0.00     0.152 C 
BRANCH  26  27
HETATM   27  C17 UNL     1      87.886  60.591  12.319  1.00  0.00     0.249 C 
BRANCH  27  28
HETATM   28  N2  UNL     1      88.220  60.327  13.709  1.00  0.00    -0.078 N 
ATOM     29  H23 UNL     1      89.226  60.224  13.845  1.00  0.00     0.274 HD
ATOM     30  H22 UNL     1      88.072  61.147  14.297  1.00  0.00     0.274 HD
ATOM     31  H21 UNL     1      87.705  59.516  14.050  1.00  0.00     0.274 HD
ENDBRANCH  27  28
ENDBRANCH  26  27
ENDBRANCH  24  26
ENDBRANCH  21  22
ENDBRANCH  17  21
BRANCH  20  32
HETATM   32  C24 UNL     1      77.337  67.789  13.036  1.00  0.00     0.226 C 
HETATM   33  O3  UNL     1      77.098  67.395  14.248  1.00  0.00    -0.273 OA
HETATM   34  N3  UNL     1      76.795  69.060  12.726  1.00  0.00    -0.344 N 
BRANCH  34  35
HETATM   35  C25 UNL     1      77.024  69.601  11.443  1.00  0.00     0.079 C 
HETATM   36  C26 UNL     1      75.796  70.237  10.787  1.00  0.00     0.032 C 
HETATM   37  C27 UNL     1      78.089  70.678  11.395  1.00  0.00     0.032 C 
ENDBRANCH  34  35
BRANCH  34  38
HETATM   38  C28 UNL     1      76.027  69.741  13.767  1.00  0.00     0.079 C 
HETATM   39  C29 UNL     1      74.547  69.743  13.515  1.00  0.00     0.032 C 
HETATM   40  C30 UNL     1      76.568  71.102  14.117  1.00  0.00     0.032 C 
ENDBRANCH  34  38
ENDBRANCH  20  32
ENDBRANCH   3   4
TORSDOF 9
ENDMDL
MODEL 4
REMARK VINA RESULT: -6.498178864      2.021      8.974
REMARK  9 active torsions:
REMARK  status: ('A' for Active; 'I' for Inactive)
REMARK    1  A    between atoms: C3_3  and  C4_4 
REMARK    2  A    between atoms: C14_14  and  O1_15 
REMARK    3  A    between atoms: O1_15  and  C15_16 
REMARK       I    between atoms: C15_16  and  N1_18 
REMARK    4  A    between atoms: N1_18  and  C16_20 
REMARK    5  A    between atoms: C16_20  and  C17_21 
REMARK    6  A    between atoms: C17_21  and  N2_22 
REMARK    7  A    between atoms: C23_31  and  C24_32 
REMARK       I    between atoms: C24_32  and  N3_34 
REMARK    8  A    between atoms: N3_34  and  C25_35 
REMARK    9  A    between atoms: N3_34  and  C28_38 
ROOT
HETATM    1  C1  UNL     1      79.628  66.885  11.850  1.00  0.00     0.112 C 
HETATM    2  C2  UNL     1      78.686  65.964  12.487  1.00  0.00    -0.111 C 
HETATM    3  C3  UNL     1      77.919  65.184  13.023  1.00  0.00    -0.101 C 
ENDROOT
BRANCH   3   4
HETATM    4  C4  UNL     1      76.971  64.223  13.649  1.00  0.00     0.078 C 
HETATM    5  C5  UNL     1      76.459  63.335  12.572  1.00  0.00     0.018 C 
HETATM    6  C6  UNL     1      76.453  61.885  12.818  1.00  0.00     0.007 C 
HETATM    7  C7  UNL     1      77.520  61.294  13.660  1.00  0.00    -0.005 C 
HETATM    8  C8  UNL     1      78.589  60.578  12.920  1.00  0.00    -0.006 C 
HETATM    9  C22 UNL     1      78.318  62.255  14.489  1.00  0.00     0.005 C 
HETATM   10  C9  UNL     1      78.213  59.840  11.694  1.00  0.00     0.006 C 
HETATM   11  C20 UNL     1      79.498  61.716  12.502  1.00  0.00    -0.005 C 
HETATM   12  C10 UNL     1      79.491  59.107  11.254  1.00  0.00     0.010 C 
HETATM   13  C11 UNL     1      80.649  59.992  11.070  1.00  0.00    -0.038 C 
HETATM   14  C12 UNL     1      80.753  60.334   9.577  1.00  0.00     0.015 C 
HETATM   15  C13 UNL     1      81.913  59.169  11.367  1.00  0.00     0.042 C 
HETATM   16  C19 UNL     1      80.743  61.210  11.897  1.00  0.00     0.001 C 
HETATM   17  C14 UNL     1      82.831  60.199  11.994  1.00  0.00     0.135 C 
HETATM   18  C18 UNL     1      81.854  60.929  12.910  1.00  0.00     0.038 C 
HETATM   19  C21 UNL     1      79.648  62.416  13.825  1.00  0.00     0.011 C 
HETATM   20  C23 UNL     1      77.630  63.557  14.793  1.00  0.00     0.098 C 
BRANCH  17  21
HETATM   21  O1  UNL     1      83.909  59.645  12.661  1.00  0.00    -0.299 OA
BRANCH  21  22
HETATM   22  C15 UNL     1      84.598  60.359  13.638  1.00  0.00     0.360 C 
HETATM   23  O2  UNL     1      85.209  61.379  13.222  1.00  0.00    -0.239 OA
HETATM   24  N1  UNL     1      84.609  59.971  14.997  1.00  0.00    -0.335 N 
ATOM     25  H1  UNL     1      84.095  59.133  15.272  1.00  0.00     0.164 HD
BRANCH  24  26
HETATM   26  C16 UNL     1      85.307  60.702  15.994  1.00  0.00     0.152 C 
BRANCH  26  27
HETATM   27  C17 UNL     1      84.553  61.907  16.496  1.00  0.00     0.249 C 
BRANCH  27  28
HETATM   28  N2  UNL     1      84.961  63.096  15.766  1.00  0.00    -0.078 N 
ATOM     29  H23 UNL     1      84.811  62.997  14.762  1.00  0.00     0.274 HD
ATOM     30  H22 UNL     1      84.332  63.881  15.936  1.00  0.00     0.274 HD
ATOM     31  H21 UNL     1      85.930  63.332  15.985  1.00  0.00     0.274 HD
ENDBRANCH  27  28
ENDBRANCH  26  27
ENDBRANCH  24  26
ENDBRANCH  21  22
ENDBRANCH  17  21
BRANCH  20  32
HETATM   32  C24 UNL     1      76.645  63.293  15.869  1.00  0.00     0.226 C 
HETATM   33  O3  UNL     1      76.871  62.316  16.692  1.00  0.00    -0.273 OA
HETATM   34  N3  UNL     1      75.441  63.993  16.123  1.00  0.00    -0.344 N 
BRANCH  34  35
HETATM   35  C25 UNL     1      75.112  65.097  15.308  1.00  0.00     0.079 C 
HETATM   36  C26 UNL     1      73.704  65.054  14.707  1.00  0.00     0.032 C 
HETATM   37  C27 UNL     1      75.195  66.441  16.002  1.00  0.00     0.032 C 
ENDBRANCH  34  35
BRANCH  34  38
HETATM   38  C28 UNL     1      74.607  63.527  17.230  1.00  0.00     0.079 C 
HETATM   39  C29 UNL     1      75.226  63.746  18.580  1.00  0.00     0.032 C 
HETATM   40  C30 UNL     1      74.089  62.125  17.040  1.00  0.00     0.032 C 
ENDBRANCH  34  38
ENDBRANCH  20  32
ENDBRANCH   3   4
TORSDOF 9
ENDMDL
MODEL 5
REMARK VINA RESULT: -6.497291119      2.058      9.887
REMARK  9 active torsions:
REMARK  status: ('A' for Active; 'I' for Inactive)
REMARK    1  A    between atoms: C3_3  and  C4_4 
REMARK    2  A    between atoms: C14_14  and  O1_15 
REMARK    3  A    between atoms: O1_15  and  C15_16 
REMARK       I    between atoms: C15_16  and  N1_18 
REMARK    4  A    between atoms: N1_18  and  C16_20 
REMARK    5  A    between atoms: C16_20  and  C17_21 
REMARK    6  A    between atoms: C17_21  and  N2_22 
REMARK    7  A    between atoms: C23_31  and  C24_32 
REMARK       I    between atoms: C24_32  and  N3_34 
REMARK    8  A    between atoms: N3_34  and  C25_35 
REMARK    9  A    between atoms: N3_34  and  C28_38 
ROOT
HETATM    1  C1  UNL     1      79.595  67.068  11.615  1.00  0.00     0.112 C 
HETATM    2  C2  UNL     1      78.739  66.004  12.140  1.00  0.00    -0.111 C 
HETATM    3  C3  UNL     1      78.011  65.132  12.581  1.00  0.00    -0.101 C 
ENDROOT
BRANCH   3   4
HETATM    4  C4  UNL     1      77.141  64.066  13.144  1.00  0.00     0.078 C 
HETATM    5  C5  UNL     1      77.057  62.978  12.134  1.00  0.00     0.018 C 
HETATM    6  C6  UNL     1      77.262  61.595  12.591  1.00  0.00     0.007 C 
HETATM    7  C7  UNL     1      78.201  61.339  13.708  1.00  0.00    -0.005 C 
HETATM    8  C8  UNL     1      79.524  60.790  13.313  1.00  0.00    -0.006 C 
HETATM    9  C22 UNL     1      78.602  62.532  14.524  1.00  0.00     0.005 C 
HETATM   10  C9  UNL     1      79.576  59.860  12.163  1.00  0.00     0.006 C 
HETATM   11  C20 UNL     1      80.277  62.044  12.916  1.00  0.00    -0.005 C 
HETATM   12  C10 UNL     1      81.032  59.373  12.102  1.00  0.00     0.010 C 
HETATM   13  C11 UNL     1      82.018  60.458  12.021  1.00  0.00    -0.038 C 
HETATM   14  C12 UNL     1      82.392  60.650  10.544  1.00  0.00     0.015 C 
HETATM   15  C13 UNL     1      83.313  59.960  12.684  1.00  0.00     0.042 C 
HETATM   16  C19 UNL     1      81.698  61.750  12.655  1.00  0.00     0.001 C 
HETATM   17  C14 UNL     1      83.860  61.223  13.318  1.00  0.00     0.135 C 
HETATM   18  C18 UNL     1      82.585  61.823  13.899  1.00  0.00     0.038 C 
HETATM   19  C21 UNL     1      79.994  62.898  14.121  1.00  0.00     0.011 C 
HETATM   20  C23 UNL     1      77.635  63.683  14.484  1.00  0.00     0.098 C 
BRANCH  17  21
HETATM   21  O1  UNL     1      84.843  60.986  14.261  1.00  0.00    -0.299 OA
BRANCH  21  22
HETATM   22  C15 UNL     1      85.964  60.217  13.958  1.00  0.00     0.360 C 
HETATM   23  O2  UNL     1      85.972  59.064  14.465  1.00  0.00    -0.239 OA
HETATM   24  N1  UNL     1      87.015  60.694  13.141  1.00  0.00    -0.335 N 
ATOM     25  H1  UNL     1      86.951  61.639  12.762  1.00  0.00     0.164 HD
BRANCH  24  26
HETATM   26  C16 UNL     1      88.155  59.908  12.829  1.00  0.00     0.152 C 
BRANCH  26  27
HETATM   27  C17 UNL     1      89.273  60.695  12.194  1.00  0.00     0.249 C 
BRANCH  27  28
HETATM   28  N2  UNL     1      90.443  60.695  13.056  1.00  0.00    -0.078 N 
ATOM     29  H23 UNL     1      90.622  59.773  13.454  1.00  0.00     0.274 HD
ATOM     30  H22 UNL     1      91.307  60.800  12.524  1.00  0.00     0.274 HD
ATOM     31  H21 UNL     1      90.351  61.410  13.778  1.00  0.00     0.274 HD
ENDBRANCH  27  28
ENDBRANCH  26  27
ENDBRANCH  24  26
ENDBRANCH  21  22
ENDBRANCH  17  21
BRANCH  20  32
HETATM   32  C24 UNL     1      76.499  63.334  15.370  1.00  0.00     0.226 C 
HETATM   33  O3  UNL     1      76.524  62.197  15.993  1.00  0.00    -0.273 OA
HETATM   34  N3  UNL     1      75.345  64.110  15.633  1.00  0.00    -0.344 N 
BRANCH  34  35
HETATM   35  C25 UNL     1      75.230  65.382  15.033  1.00  0.00     0.079 C 
HETATM   36  C26 UNL     1      74.040  65.538  14.082  1.00  0.00     0.032 C 
HETATM   37  C27 UNL     1      75.095  66.531  16.012  1.00  0.00     0.032 C 
ENDBRANCH  34  35
BRANCH  34  38
HETATM   38  C28 UNL     1      74.334  63.540  16.524  1.00  0.00     0.079 C 
HETATM   39  C29 UNL     1      74.820  63.341  17.930  1.00  0.00     0.032 C 
HETATM   40  C30 UNL     1      73.655  62.322  15.956  1.00  0.00     0.032 C 
ENDBRANCH  34  38
ENDBRANCH  20  32
ENDBRANCH   3   4
TORSDOF 9
ENDMDL
