MODEL 1
REMARK VINA RESULT: -8.230259718      0.000      0.000
REMARK  7 active torsions:
REMARK  status: ('A' for Active; 'I' for Inactive)
REMARK    1  A    between atoms: C9_10  and  C10_11 
REMARK    2  A    between atoms: C10_11  and  N1_12 
REMARK       I    between atoms: N1_12  and  C11_14 
REMARK    3  A    between atoms: C11_14  and  C12_16 
REMARK    4  A    between atoms: C12_16  and  C13_17 
REMARK    5  A    between atoms: C13_17  and  C14_18 
REMARK    6  A    between atoms: C17_21  and  C18_22 
REMARK    7  A    between atoms: C18_22  and  N2_23 
ROOT
HETATM    1  C14 UNL     1      81.106  62.838  12.192  1.00  0.00    -0.058 A 
HETATM    2  C15 UNL     1      81.114  61.701  11.411  1.00  0.00     0.007 A 
HETATM    3  C16 UNL     1      81.888  60.591  11.767  1.00  0.00     0.009 A 
HETATM    4  C17 UNL     1      82.672  60.591  12.906  1.00  0.00    -0.040 A 
HETATM    5  C27 UNL     1      82.648  61.752  13.678  1.00  0.00     0.009 A 
HETATM    6  C28 UNL     1      81.884  62.845  13.328  1.00  0.00     0.007 A 
ENDROOT
BRANCH   1   7
HETATM    7  C13 UNL     1      80.287  64.026  11.839  1.00  0.00     0.047 C 
BRANCH   7   8
HETATM    8  C12 UNL     1      79.574  64.435  13.121  1.00  0.00     0.107 C 
BRANCH   8   9
HETATM    9  C11 UNL     1      78.330  63.625  13.246  1.00  0.00     0.218 C 
HETATM   10  N1  UNL     1      77.976  63.187  14.574  1.00  0.00    -0.357 N 
ATOM     11  H1  UNL     1      78.555  63.425  15.379  1.00  0.00     0.162 HD
HETATM   12  O2  UNL     1      77.631  63.340  12.254  1.00  0.00    -0.274 OA
BRANCH  10  13
HETATM   13  C10 UNL     1      76.790  62.411  14.727  1.00  0.00     0.161 C 
BRANCH  13  14
HETATM   14  C9  UNL     1      76.215  62.521  16.097  1.00  0.00    -0.040 A 
HETATM   15  C8  UNL     1      77.010  62.702  17.208  1.00  0.00     0.009 A 
HETATM   16  C7  UNL     1      76.401  62.797  18.459  1.00  0.00     0.009 A 
HETATM   17  C6  UNL     1      75.024  62.714  18.599  1.00  0.00    -0.044 A 
HETATM   18  C5  UNL     1      74.203  62.788  19.830  1.00  0.00     0.118 C 
HETATM   19  C30 UNL     1      74.212  62.534  17.498  1.00  0.00    -0.036 A 
HETATM   20  C4  UNL     1      72.846  63.063  19.295  1.00  0.00     0.143 C 
HETATM   21  C2  UNL     1      72.793  62.487  17.940  1.00  0.00     0.041 C 
HETATM   22  O1  UNL     1      71.943  63.655  19.870  1.00  0.00    -0.296 OA
HETATM   23  C1  UNL     1      71.947  63.321  16.998  1.00  0.00     0.028 C 
HETATM   24  C3  UNL     1      72.229  61.097  17.988  1.00  0.00     0.028 C 
HETATM   25  C29 UNL     1      74.848  62.443  16.275  1.00  0.00     0.017 A 
ENDBRANCH  13  14
ENDBRANCH  10  13
ENDBRANCH   8   9
ENDBRANCH   7   8
ENDBRANCH   1   7
BRANCH   4  26
HETATM   26  C18 UNL     1      83.499  59.469  13.346  1.00  0.00     0.175 C 
BRANCH  26  27
HETATM   27  N2  UNL     1      84.891  59.711  13.131  1.00  0.00    -0.265 N 
HETATM   28  C19 UNL     1      85.726  60.145  14.223  1.00  0.00     0.326 C 
HETATM   29  O3  UNL     1      85.241  60.312  15.352  1.00  0.00    -0.247 OA
HETATM   30  N3  UNL     1      87.099  60.359  13.933  1.00  0.00    -0.333 N 
HETATM   31  C20 UNL     1      87.654  59.750  12.744  1.00  0.00     0.043 C 
ATOM     32  H3  UNL     1      87.679  60.930  14.548  1.00  0.00     0.165 HD
HETATM   33  C21 UNL     1      87.632  58.253  12.971  1.00  0.00     0.039 C 
HETATM   34  C22 UNL     1      89.071  60.192  12.583  1.00  0.00     0.039 C 
HETATM   35  C23 UNL     1      86.782  60.152  11.571  1.00  0.00     0.059 C 
HETATM   36  C24 UNL     1      86.652  61.649  11.604  1.00  0.00     0.027 C 
HETATM   37  C25 UNL     1      87.341  59.731  10.252  1.00  0.00     0.027 C 
HETATM   38  C26 UNL     1      85.456  59.518  11.837  1.00  0.00     0.238 C 
HETATM   39  O4  UNL     1      84.851  58.845  10.982  1.00  0.00    -0.272 OA
ENDBRANCH  26  27
ENDBRANCH   4  26
TORSDOF 7
ENDMDL
MODEL 2
REMARK VINA RESULT: -8.069276303      1.730      2.439
REMARK  7 active torsions:
REMARK  status: ('A' for Active; 'I' for Inactive)
REMARK    1  A    between atoms: C9_10  and  C10_11 
REMARK    2  A    between atoms: C10_11  and  N1_12 
REMARK       I    between atoms: N1_12  and  C11_14 
REMARK    3  A    between atoms: C11_14  and  C12_16 
REMARK    4  A    between atoms: C12_16  and  C13_17 
REMARK    5  A    between atoms: C13_17  and  C14_18 
REMARK    6  A    between atoms: C17_21  and  C18_22 
REMARK    7  A    between atoms: C18_22  and  N2_23 
ROOT
HETATM    1  C14 UNL     1      81.041  62.699  11.920  1.00  0.00    -0.058 A 
HETATM    2  C15 UNL     1      81.807  62.891  13.051  1.00  0.00     0.007 A 
HETATM    3  C16 UNL     1      82.612  61.862  13.554  1.00  0.00     0.009 A 
HETATM    4  C17 UNL     1      82.669  60.623  12.943  1.00  0.00    -0.040 A 
HETATM    5  C27 UNL     1      81.886  60.455  11.803  1.00  0.00     0.009 A 
HETATM    6  C28 UNL     1      81.094  61.468  11.305  1.00  0.00     0.007 A 
ENDROOT
BRANCH   1   7
HETATM    7  C13 UNL     1      80.184  63.778  11.361  1.00  0.00     0.047 C 
BRANCH   7   8
HETATM    8  C12 UNL     1      80.029  64.804  12.475  1.00  0.00     0.107 C 
BRANCH   8   9
HETATM    9  C11 UNL     1      78.629  65.311  12.456  1.00  0.00     0.218 C 
HETATM   10  N1  UNL     1      78.252  66.205  13.524  1.00  0.00    -0.357 N 
ATOM     11  H1  UNL     1      78.919  66.469  14.250  1.00  0.00     0.162 HD
HETATM   12  O2  UNL     1      77.823  64.980  11.564  1.00  0.00    -0.274 OA
BRANCH  10  13
HETATM   13  C10 UNL     1      76.918  66.708  13.534  1.00  0.00     0.161 C 
BRANCH  13  14
HETATM   14  C9  UNL     1      76.112  66.151  14.656  1.00  0.00    -0.040 A 
HETATM   15  C8  UNL     1      75.176  66.910  15.327  1.00  0.00     0.009 A 
HETATM   16  C7  UNL     1      74.458  66.322  16.367  1.00  0.00     0.009 A 
HETATM   17  C6  UNL     1      74.669  65.001  16.732  1.00  0.00    -0.044 A 
HETATM   18  C5  UNL     1      74.014  64.209  17.801  1.00  0.00     0.118 C 
HETATM   19  C30 UNL     1      75.600  64.226  16.073  1.00  0.00    -0.036 A 
HETATM   20  C4  UNL     1      74.342  62.814  17.414  1.00  0.00     0.143 C 
HETATM   21  C2  UNL     1      75.610  62.863  16.666  1.00  0.00     0.041 C 
HETATM   22  O1  UNL     1      73.685  61.815  17.669  1.00  0.00    -0.296 OA
HETATM   23  C1  UNL     1      75.656  61.833  15.554  1.00  0.00     0.028 C 
HETATM   24  C3  UNL     1      76.769  62.623  17.589  1.00  0.00     0.028 C 
HETATM   25  C29 UNL     1      76.294  64.840  15.048  1.00  0.00     0.017 A 
ENDBRANCH  13  14
ENDBRANCH  10  13
ENDBRANCH   8   9
ENDBRANCH   7   8
ENDBRANCH   1   7
BRANCH   4  26
HETATM   26  C18 UNL     1      83.492  59.506  13.405  1.00  0.00     0.175 C 
BRANCH  26  27
HETATM   27  N2  UNL     1      84.884  59.738  13.181  1.00  0.00    -0.265 N 
HETATM   28  C19 UNL     1      85.721  60.205  14.259  1.00  0.00     0.326 C 
HETATM   29  O3  UNL     1      85.236  60.411  15.381  1.00  0.00    -0.247 OA
HETATM   30  N3  UNL     1      87.094  60.406  13.961  1.00  0.00    -0.333 N 
HETATM   31  C20 UNL     1      87.648  59.756  12.793  1.00  0.00     0.043 C 
ATOM     32  H3  UNL     1      87.676  60.995  14.556  1.00  0.00     0.165 HD
HETATM   33  C21 UNL     1      87.621  58.267  13.071  1.00  0.00     0.039 C 
HETATM   34  C22 UNL     1      89.066  60.189  12.618  1.00  0.00     0.039 C 
HETATM   35  C23 UNL     1      86.777  60.120  11.608  1.00  0.00     0.059 C 
HETATM   36  C24 UNL     1      86.651  61.619  11.590  1.00  0.00     0.027 C 
HETATM   37  C25 UNL     1      87.334  59.654  10.303  1.00  0.00     0.027 C 
HETATM   38  C26 UNL     1      85.448  59.500  11.895  1.00  0.00     0.238 C 
HETATM   39  O4  UNL     1      84.841  58.800  11.063  1.00  0.00    -0.272 OA
ENDBRANCH  26  27
ENDBRANCH   4  26
TORSDOF 7
ENDMDL
MODEL 3
REMARK VINA RESULT: -7.994373617      1.233      1.727
REMARK  7 active torsions:
REMARK  status: ('A' for Active; 'I' for Inactive)
REMARK    1  A    between atoms: C9_10  and  C10_11 
REMARK    2  A    between atoms: C10_11  and  N1_12 
REMARK       I    between atoms: N1_12  and  C11_14 
REMARK    3  A    between atoms: C11_14  and  C12_16 
REMARK    4  A    between atoms: C12_16  and  C13_17 
REMARK    5  A    between atoms: C13_17  and  C14_18 
REMARK    6  A    between atoms: C17_21  and  C18_22 
REMARK    7  A    between atoms: C18_22  and  N2_23 
ROOT
HETATM    1  C14 UNL     1      81.100  62.588  11.841  1.00  0.00    -0.058 A 
HETATM    2  C15 UNL     1      81.237  61.427  11.109  1.00  0.00     0.007 A 
HETATM    3  C16 UNL     1      82.040  60.378  11.570  1.00  0.00     0.009 A 
HETATM    4  C17 UNL     1      82.724  60.464  12.769  1.00  0.00    -0.040 A 
HETATM    5  C27 UNL     1      82.569  61.647  13.490  1.00  0.00     0.009 A 
HETATM    6  C28 UNL     1      81.778  62.680  13.037  1.00  0.00     0.007 A 
ENDROOT
BRANCH   1   7
HETATM    7  C13 UNL     1      80.247  63.713  11.376  1.00  0.00     0.047 C 
BRANCH   7   8
HETATM    8  C12 UNL     1      79.276  63.110  10.371  1.00  0.00     0.107 C 
BRANCH   8   9
HETATM    9  C11 UNL     1      77.978  62.865  11.059  1.00  0.00     0.218 C 
HETATM   10  N1  UNL     1      77.512  63.905  11.945  1.00  0.00    -0.357 N 
ATOM     11  H1  UNL     1      78.052  64.759  12.085  1.00  0.00     0.162 HD
HETATM   12  O2  UNL     1      77.328  61.817  10.880  1.00  0.00    -0.274 OA
BRANCH  10  13
HETATM   13  C10 UNL     1      76.272  63.701  12.618  1.00  0.00     0.161 C 
BRANCH  13  14
HETATM   14  C9  UNL     1      76.458  63.389  14.063  1.00  0.00    -0.040 A 
HETATM   15  C8  UNL     1      77.633  62.854  14.547  1.00  0.00     0.009 A 
HETATM   16  C7  UNL     1      77.736  62.588  15.912  1.00  0.00     0.009 A 
HETATM   17  C6  UNL     1      76.686  62.851  16.779  1.00  0.00    -0.044 A 
HETATM   18  C5  UNL     1      76.606  62.636  18.243  1.00  0.00     0.118 C 
HETATM   19  C30 UNL     1      75.504  63.387  16.313  1.00  0.00    -0.036 A 
HETATM   20  C4  UNL     1      75.450  63.484  18.629  1.00  0.00     0.143 C 
HETATM   21  C2  UNL     1      74.566  63.567  17.453  1.00  0.00     0.041 C 
HETATM   22  O1  UNL     1      75.267  64.012  19.717  1.00  0.00    -0.296 OA
HETATM   23  C1  UNL     1      73.893  64.921  17.340  1.00  0.00     0.028 C 
HETATM   24  C3  UNL     1      73.504  62.509  17.526  1.00  0.00     0.028 C 
HETATM   25  C29 UNL     1      75.435  63.638  14.956  1.00  0.00     0.017 A 
ENDBRANCH  13  14
ENDBRANCH  10  13
ENDBRANCH   8   9
ENDBRANCH   7   8
ENDBRANCH   1   7
BRANCH   4  26
HETATM   26  C18 UNL     1      83.572  59.408  13.319  1.00  0.00     0.175 C 
BRANCH  26  27
HETATM   27  N2  UNL     1      84.961  59.674  13.112  1.00  0.00    -0.265 N 
HETATM   28  C19 UNL     1      85.768  60.180  14.195  1.00  0.00     0.326 C 
HETATM   29  O3  UNL     1      85.261  60.390  15.307  1.00  0.00    -0.247 OA
HETATM   30  N3  UNL     1      87.140  60.415  13.915  1.00  0.00    -0.333 N 
HETATM   31  C20 UNL     1      87.729  59.763  12.765  1.00  0.00     0.043 C 
ATOM     32  H3  UNL     1      87.697  61.028  14.510  1.00  0.00     0.165 HD
HETATM   33  C21 UNL     1      87.739  58.278  13.065  1.00  0.00     0.039 C 
HETATM   34  C22 UNL     1      89.137  60.232  12.604  1.00  0.00     0.039 C 
HETATM   35  C23 UNL     1      86.866  60.086  11.562  1.00  0.00     0.059 C 
HETATM   36  C24 UNL     1      86.700  61.580  11.519  1.00  0.00     0.027 C 
HETATM   37  C25 UNL     1      87.455  59.616  10.273  1.00  0.00     0.027 C 
HETATM   38  C26 UNL     1      85.551  59.434  11.838  1.00  0.00     0.238 C 
HETATM   39  O4  UNL     1      84.976  58.705  11.008  1.00  0.00    -0.272 OA
ENDBRANCH  26  27
ENDBRANCH   4  26
TORSDOF 7
ENDMDL
MODEL 4
REMARK VINA RESULT: -7.915423011      0.917      1.795
REMARK  7 active torsions:
REMARK  status: ('A' for Active; 'I' for Inactive)
REMARK    1  A    between atoms: C9_10  and  C10_11 
REMARK    2  A    between atoms: C10_11  and  N1_12 
REMARK       I    between atoms: N1_12  and  C11_14 
REMARK    3  A    between atoms: C11_14  and  C12_16 
REMARK    4  A    between atoms: C12_16  and  C13_17 
REMARK    5  A    between atoms: C13_17  and  C14_18 
REMARK    6  A    between atoms: C17_21  and  C18_22 
REMARK    7  A    between atoms: C18_22  and  N2_23 
ROOT
HETATM    1  C14 UNL     1      81.121  62.837  12.157  1.00  0.00    -0.058 A 
HETATM    2  C15 UNL     1      81.168  61.723  11.346  1.00  0.00     0.007 A 
HETATM    3  C16 UNL     1      81.942  60.611  11.697  1.00  0.00     0.009 A 
HETATM    4  C17 UNL     1      82.686  60.587  12.862  1.00  0.00    -0.040 A 
HETATM    5  C27 UNL     1      82.623  61.725  13.665  1.00  0.00     0.009 A 
HETATM    6  C28 UNL     1      81.860  62.820  13.320  1.00  0.00     0.007 A 
ENDROOT
BRANCH   1   7
HETATM    7  C13 UNL     1      80.301  64.027  11.810  1.00  0.00     0.047 C 
BRANCH   7   8
HETATM    8  C12 UNL     1      79.307  64.194  12.951  1.00  0.00     0.107 C 
BRANCH   8   9
HETATM    9  C11 UNL     1      78.204  63.213  12.761  1.00  0.00     0.218 C 
HETATM   10  N1  UNL     1      78.097  62.162  13.745  1.00  0.00    -0.357 N 
ATOM     11  H1  UNL     1      78.750  62.105  14.526  1.00  0.00     0.162 HD
HETATM   12  O2  UNL     1      77.412  63.293  11.801  1.00  0.00    -0.274 OA
BRANCH  10  13
HETATM   13  C10 UNL     1      77.050  61.208  13.591  1.00  0.00     0.161 C 
BRANCH  13  14
HETATM   14  C9  UNL     1      75.977  61.375  14.611  1.00  0.00    -0.040 A 
HETATM   15  C8  UNL     1      74.766  60.727  14.506  1.00  0.00     0.009 A 
HETATM   16  C7  UNL     1      73.809  60.930  15.499  1.00  0.00     0.009 A 
HETATM   17  C6  UNL     1      74.056  61.766  16.578  1.00  0.00    -0.044 A 
HETATM   18  C5  UNL     1      73.173  62.108  17.718  1.00  0.00     0.118 C 
HETATM   19  C30 UNL     1      75.263  62.423  16.700  1.00  0.00    -0.036 A 
HETATM   20  C4  UNL     1      74.128  62.669  18.707  1.00  0.00     0.143 C 
HETATM   21  C2  UNL     1      75.252  63.238  17.944  1.00  0.00     0.041 C 
HETATM   22  O1  UNL     1      74.004  62.660  19.924  1.00  0.00    -0.296 OA
HETATM   23  C1  UNL     1      76.575  63.069  18.665  1.00  0.00     0.028 C 
HETATM   24  C3  UNL     1      75.025  64.701  17.696  1.00  0.00     0.028 C 
HETATM   25  C29 UNL     1      76.188  62.199  15.699  1.00  0.00     0.017 A 
ENDBRANCH  13  14
ENDBRANCH  10  13
ENDBRANCH   8   9
ENDBRANCH   7   8
ENDBRANCH   1   7
BRANCH   4  26
HETATM   26  C18 UNL     1      83.510  59.461  13.299  1.00  0.00     0.175 C 
BRANCH  26  27
HETATM   27  N2  UNL     1      84.903  59.703  13.091  1.00  0.00    -0.265 N 
HETATM   28  C19 UNL     1      85.733  60.132  14.189  1.00  0.00     0.326 C 
HETATM   29  O3  UNL     1      85.243  60.295  15.316  1.00  0.00    -0.247 OA
HETATM   30  N3  UNL     1      87.107  60.347  13.907  1.00  0.00    -0.333 N 
HETATM   31  C20 UNL     1      87.668  59.741  12.718  1.00  0.00     0.043 C 
ATOM     32  H3  UNL     1      87.685  60.914  14.526  1.00  0.00     0.165 HD
HETATM   33  C21 UNL     1      87.644  58.243  12.940  1.00  0.00     0.039 C 
HETATM   34  C22 UNL     1      89.087  60.183  12.566  1.00  0.00     0.039 C 
HETATM   35  C23 UNL     1      86.803  60.148  11.543  1.00  0.00     0.059 C 
HETATM   36  C24 UNL     1      86.673  61.646  11.580  1.00  0.00     0.027 C 
HETATM   37  C25 UNL     1      87.367  59.732  10.224  1.00  0.00     0.027 C 
HETATM   38  C26 UNL     1      85.474  59.515  11.799  1.00  0.00     0.238 C 
HETATM   39  O4  UNL     1      84.873  58.846  10.938  1.00  0.00    -0.272 OA
ENDBRANCH  26  27
ENDBRANCH   4  26
TORSDOF 7
ENDMDL
MODEL 5
REMARK VINA RESULT: -7.884950633      4.128      8.576
REMARK  7 active torsions:
REMARK  status: ('A' for Active; 'I' for Inactive)
REMARK    1  A    between atoms: C9_10  and  C10_11 
REMARK    2  A    between atoms: C10_11  and  N1_12 
REMARK       I    between atoms: N1_12  and  C11_14 
REMARK    3  A    between atoms: C11_14  and  C12_16 
REMARK    4  A    between atoms: C12_16  and  C13_17 
REMARK    5  A    between atoms: C13_17  and  C14_18 
REMARK    6  A    between atoms: C17_21  and  C18_22 
REMARK    7  A    between atoms: C18_22  and  N2_23 
ROOT
HETATM    1  C14 UNL     1      80.563  63.987  12.049  1.00  0.00    -0.058 A 
HETATM    2  C15 UNL     1      80.300  65.188  12.672  1.00  0.00     0.007 A 
HETATM    3  C16 UNL     1      79.455  66.135  12.081  1.00  0.00     0.009 A 
HETATM    4  C17 UNL     1      78.856  65.904  10.857  1.00  0.00    -0.040 A 
HETATM    5  C27 UNL     1      79.138  64.682  10.247  1.00  0.00     0.009 A 
HETATM    6  C28 UNL     1      79.969  63.750  10.829  1.00  0.00     0.007 A 
ENDROOT
BRANCH   1   7
HETATM    7  C13 UNL     1      81.451  62.963  12.660  1.00  0.00     0.047 C 
BRANCH   7   8
HETATM    8  C12 UNL     1      80.862  61.615  12.267  1.00  0.00     0.107 C 
BRANCH   8   9
HETATM    9  C11 UNL     1      79.729  61.311  13.185  1.00  0.00     0.218 C 
HETATM   10  N1  UNL     1      78.446  61.073  12.569  1.00  0.00    -0.357 N 
ATOM     11  H1  UNL     1      78.332  61.114  11.556  1.00  0.00     0.162 HD
HETATM   12  O2  UNL     1      79.880  61.266  14.421  1.00  0.00    -0.274 OA
BRANCH  10  13
HETATM   13  C10 UNL     1      77.341  60.779  13.420  1.00  0.00     0.161 C 
BRANCH  13  14
HETATM   14  C9  UNL     1      76.819  61.993  14.109  1.00  0.00    -0.040 A 
HETATM   15  C8  UNL     1      76.772  63.221  13.484  1.00  0.00     0.009 A 
HETATM   16  C7  UNL     1      76.270  64.313  14.190  1.00  0.00     0.009 A 
HETATM   17  C6  UNL     1      75.824  64.183  15.497  1.00  0.00    -0.044 A 
HETATM   18  C5  UNL     1      75.267  65.216  16.402  1.00  0.00     0.118 C 
HETATM   19  C30 UNL     1      75.863  62.963  16.139  1.00  0.00    -0.036 A 
HETATM   20  C4  UNL     1      74.603  64.401  17.450  1.00  0.00     0.143 C 
HETATM   21  C2  UNL     1      75.322  63.116  17.515  1.00  0.00     0.041 C 
HETATM   22  O1  UNL     1      73.642  64.732  18.130  1.00  0.00    -0.296 OA
HETATM   23  C1  UNL     1      74.393  61.957  17.820  1.00  0.00     0.028 C 
HETATM   24  C3  UNL     1      76.386  63.169  18.572  1.00  0.00     0.028 C 
HETATM   25  C29 UNL     1      76.366  61.902  15.410  1.00  0.00     0.017 A 
ENDBRANCH  13  14
ENDBRANCH  10  13
ENDBRANCH   8   9
ENDBRANCH   7   8
ENDBRANCH   1   7
BRANCH   4  26
HETATM   26  C18 UNL     1      77.957  66.839  10.182  1.00  0.00     0.175 C 
BRANCH  26  27
HETATM   27  N2  UNL     1      77.283  67.695  11.107  1.00  0.00    -0.265 N 
HETATM   28  C19 UNL     1      77.768  69.034  11.337  1.00  0.00     0.326 C 
HETATM   29  O3  UNL     1      78.772  69.445  10.737  1.00  0.00    -0.247 OA
HETATM   30  N3  UNL     1      77.043  69.826  12.264  1.00  0.00    -0.333 N 
HETATM   31  C20 UNL     1      75.685  69.442  12.584  1.00  0.00     0.043 C 
ATOM     32  H3  UNL     1      77.469  70.647  12.695  1.00  0.00     0.165 HD
HETATM   33  C21 UNL     1      74.868  69.642  11.324  1.00  0.00     0.039 C 
HETATM   34  C22 UNL     1      75.158  70.347  13.649  1.00  0.00     0.039 C 
HETATM   35  C23 UNL     1      75.707  67.989  13.013  1.00  0.00     0.059 C 
HETATM   36  C24 UNL     1      76.751  67.856  14.087  1.00  0.00     0.027 C 
HETATM   37  C25 UNL     1      74.393  67.510  13.537  1.00  0.00     0.027 C 
HETATM   38  C26 UNL     1      76.126  67.230  11.797  1.00  0.00     0.238 C 
HETATM   39  O4  UNL     1      75.508  66.231  11.384  1.00  0.00    -0.272 OA
ENDBRANCH  26  27
ENDBRANCH   4  26
TORSDOF 7
ENDMDL
