MODEL 1
REMARK VINA RESULT: -6.502320809      0.000      0.000
REMARK  11 active torsions:
REMARK  status: ('A' for Active; 'I' for Inactive)
REMARK    1  A    between atoms: C2_2  and  N1_3 
REMARK    2  A    between atoms: N1_3  and  C3_4 
REMARK    3  A    between atoms: N1_3  and  C12_19 
REMARK    4  A    between atoms: C3_4  and  C4_5 
REMARK    5  A    between atoms: C6_7  and  S1_8 
REMARK    6  A    between atoms: S1_8  and  N2_9 
REMARK    7  A    between atoms: C12_19  and  O3_20 
REMARK    8  A    between atoms: C12_19  and  C13_22 
REMARK    9  A    between atoms: C13_22  and  N3_23 
REMARK   10  A    between atoms: C13_22  and  C24_36 
REMARK       I    between atoms: N3_23  and  C14_25 
REMARK   11  A    between atoms: C14_25  and  C15_27 
ROOT
HETATM    1  C12 UNL     1      78.031  63.269  14.041  1.00  0.00     0.141 C 
ENDROOT
BRANCH   1   2
HETATM    2  N1  UNL     1      78.607  64.338  13.357  1.00  0.00    -0.339 N 
BRANCH   2   3
HETATM    3  C2  UNL     1      77.729  65.482  13.058  1.00  0.00     0.126 C 
HETATM    4  C1  UNL     1      78.430  66.702  12.572  1.00  0.00     0.027 C 
ENDBRANCH   2   3
BRANCH   2   5
HETATM    5  C3  UNL     1      79.920  64.387  12.869  1.00  0.00     0.104 C 
BRANCH   5   6
HETATM    6  C4  UNL     1      80.710  63.252  12.487  1.00  0.00    -0.013 A 
HETATM    7  C5  UNL     1      81.716  62.635  13.156  1.00  0.00     0.039 A 
HETATM    8  C6  UNL     1      82.439  61.547  12.662  1.00  0.00     0.086 A 
HETATM    9  C7  UNL     1      82.147  61.042  11.435  1.00  0.00    -0.038 A 
HETATM   10  C8  UNL     1      82.902  59.873  10.897  1.00  0.00     0.050 C 
HETATM   11  C9  UNL     1      81.114  61.648  10.703  1.00  0.00     0.015 A 
HETATM   12  C10 UNL     1      80.417  62.717  11.207  1.00  0.00    -0.050 A 
HETATM   13  C11 UNL     1      79.360  63.307  10.395  1.00  0.00     0.049 C 
BRANCH   8  14
HETATM   14  S1  UNL     1      83.707  60.820  13.628  1.00  0.00     0.257 S 
HETATM   15  O1  UNL     1      83.963  61.538  14.898  1.00  0.00    -0.201 OA
HETATM   16  O2  UNL     1      84.973  60.792  12.810  1.00  0.00    -0.201 OA
BRANCH  14  17
HETATM   17  N2  UNL     1      83.314  59.167  14.002  1.00  0.00    -0.324 N 
ATOM     18  H22 UNL     1      82.419  58.868  14.388  1.00  0.00     0.169 HD
ATOM     19  H21 UNL     1      84.099  58.555  13.780  1.00  0.00     0.169 HD
ENDBRANCH  14  17
ENDBRANCH   8  14
ENDBRANCH   5   6
ENDBRANCH   2   5
ENDBRANCH   1   2
BRANCH   1  20
HETATM   20  O3  UNL     1      78.667  62.923  15.129  1.00  0.00    -0.348 OA
ATOM     21  H3  UNL     1      78.112  62.835  15.894  1.00  0.00     0.219 HD
ENDBRANCH   1  20
BRANCH   1  22
HETATM   22  C13 UNL     1      76.788  62.489  13.725  1.00  0.00     0.167 C 
BRANCH  22  23
HETATM   23  N3  UNL     1      76.171  62.151  15.046  1.00  0.00    -0.344 N 
HETATM   24  C14 UNL     1      75.341  63.085  15.692  1.00  0.00     0.253 C 
HETATM   25  O4  UNL     1      75.114  64.235  15.134  1.00  0.00    -0.268 OA
ATOM     26  H3  UNL     1      76.351  61.244  15.478  1.00  0.00     0.163 HD
BRANCH  24  27
HETATM   27  C15 UNL     1      74.685  62.926  16.961  1.00  0.00     0.043 A 
HETATM   28  C16 UNL     1      75.392  62.905  18.130  1.00  0.00    -0.045 A 
HETATM   29  C17 UNL     1      76.889  62.878  18.216  1.00  0.00     0.049 C 
HETATM   30  C18 UNL     1      74.763  62.837  19.374  1.00  0.00     0.014 A 
HETATM   31  C19 UNL     1      73.396  62.789  19.461  1.00  0.00    -0.061 A 
HETATM   32  C20 UNL     1      72.701  62.703  20.786  1.00  0.00     0.048 C 
HETATM   33  C21 UNL     1      72.683  62.808  18.270  1.00  0.00     0.014 A 
HETATM   34  C22 UNL     1      73.289  62.876  17.043  1.00  0.00    -0.045 A 
HETATM   35  C23 UNL     1      72.411  62.913  15.842  1.00  0.00     0.049 C 
ENDBRANCH  24  27
ENDBRANCH  22  23
BRANCH  22  36
HETATM   36  C24 UNL     1      76.954  61.270  12.931  1.00  0.00    -0.023 C 
HETATM   37  C25 UNL     1      78.243  60.519  13.204  1.00  0.00     0.017 C 
HETATM   38  C26 UNL     1      76.844  61.430  11.460  1.00  0.00     0.017 C 
HETATM   39  C27 UNL     1      75.817  60.306  13.327  1.00  0.00     0.017 C 
ENDBRANCH  22  36
ENDBRANCH   1  22
TORSDOF 11
ENDMDL
MODEL 2
REMARK VINA RESULT: -6.381579917      3.427      5.564
REMARK  11 active torsions:
REMARK  status: ('A' for Active; 'I' for Inactive)
REMARK    1  A    between atoms: C2_2  and  N1_3 
REMARK    2  A    between atoms: N1_3  and  C3_4 
REMARK    3  A    between atoms: N1_3  and  C12_19 
REMARK    4  A    between atoms: C3_4  and  C4_5 
REMARK    5  A    between atoms: C6_7  and  S1_8 
REMARK    6  A    between atoms: S1_8  and  N2_9 
REMARK    7  A    between atoms: C12_19  and  O3_20 
REMARK    8  A    between atoms: C12_19  and  C13_22 
REMARK    9  A    between atoms: C13_22  and  N3_23 
REMARK   10  A    between atoms: C13_22  and  C24_36 
REMARK       I    between atoms: N3_23  and  C14_25 
REMARK   11  A    between atoms: C14_25  and  C15_27 
ROOT
HETATM    1  C12 UNL     1      78.136  63.644  13.337  1.00  0.00     0.141 C 
ENDROOT
BRANCH   1   2
HETATM    2  N1  UNL     1      79.072  64.411  12.644  1.00  0.00    -0.339 N 
BRANCH   2   3
HETATM    3  C2  UNL     1      79.159  65.836  13.009  1.00  0.00     0.126 C 
HETATM    4  C1  UNL     1      79.595  66.739  11.910  1.00  0.00     0.027 C 
ENDBRANCH   2   3
BRANCH   2   5
HETATM    5  C3  UNL     1      79.880  63.965  11.590  1.00  0.00     0.104 C 
BRANCH   5   6
HETATM    6  C4  UNL     1      80.782  62.850  11.646  1.00  0.00    -0.013 A 
HETATM    7  C5  UNL     1      81.728  62.550  12.571  1.00  0.00     0.039 A 
HETATM    8  C6  UNL     1      82.576  61.443  12.499  1.00  0.00     0.086 A 
HETATM    9  C7  UNL     1      82.479  60.584  11.451  1.00  0.00    -0.038 A 
HETATM   10  C8  UNL     1      83.368  59.388  11.365  1.00  0.00     0.050 C 
HETATM   11  C9  UNL     1      81.514  60.852  10.467  1.00  0.00     0.015 A 
HETATM   12  C10 UNL     1      80.692  61.947  10.557  1.00  0.00    -0.050 A 
HETATM   13  C11 UNL     1      79.716  62.176   9.499  1.00  0.00     0.049 C 
BRANCH   8  14
HETATM   14  S1  UNL     1      83.750  61.149  13.765  1.00  0.00     0.257 S 
HETATM   15  O1  UNL     1      83.571  62.022  14.948  1.00  0.00    -0.201 OA
HETATM   16  O2  UNL     1      85.130  61.361  13.196  1.00  0.00    -0.201 OA
BRANCH  14  17
HETATM   17  N2  UNL     1      83.674  59.491  14.291  1.00  0.00    -0.324 N 
ATOM     18  H22 UNL     1      82.827  59.043  14.640  1.00  0.00     0.169 HD
ATOM     19  H21 UNL     1      84.587  59.046  14.198  1.00  0.00     0.169 HD
ENDBRANCH  14  17
ENDBRANCH   8  14
ENDBRANCH   5   6
ENDBRANCH   2   5
ENDBRANCH   1   2
BRANCH   1  20
HETATM   20  O3  UNL     1      78.280  63.667  14.635  1.00  0.00    -0.348 OA
ATOM     21  H3  UNL     1      77.475  63.826  15.114  1.00  0.00     0.219 HD
ENDBRANCH   1  20
BRANCH   1  22
HETATM   22  C13 UNL     1      76.990  62.830  12.812  1.00  0.00     0.167 C 
BRANCH  22  23
HETATM   23  N3  UNL     1      77.608  61.702  12.045  1.00  0.00    -0.344 N 
HETATM   24  C14 UNL     1      77.456  60.379  12.498  1.00  0.00     0.253 C 
HETATM   25  O4  UNL     1      76.776  60.146  13.580  1.00  0.00    -0.268 OA
ATOM     26  H3  UNL     1      78.138  61.893  11.195  1.00  0.00     0.163 HD
BRANCH  24  27
HETATM   27  C15 UNL     1      77.992  59.191  11.892  1.00  0.00     0.043 A 
HETATM   28  C16 UNL     1      77.407  58.626  10.795  1.00  0.00    -0.045 A 
HETATM   29  C17 UNL     1      76.094  59.060  10.215  1.00  0.00     0.049 C 
HETATM   30  C18 UNL     1      77.964  57.523  10.145  1.00  0.00     0.014 A 
HETATM   31  C19 UNL     1      79.132  56.967  10.596  1.00  0.00    -0.061 A 
HETATM   32  C20 UNL     1      79.741  55.775   9.921  1.00  0.00     0.048 C 
HETATM   33  C21 UNL     1      79.722  57.545  11.712  1.00  0.00     0.014 A 
HETATM   34  C22 UNL     1      79.185  58.628  12.358  1.00  0.00    -0.045 A 
HETATM   35  C23 UNL     1      79.926  59.167  13.530  1.00  0.00     0.049 C 
ENDBRANCH  24  27
ENDBRANCH  22  23
BRANCH  22  36
HETATM   36  C24 UNL     1      76.014  63.523  11.969  1.00  0.00    -0.023 C 
HETATM   37  C25 UNL     1      76.388  63.581  10.501  1.00  0.00     0.017 C 
HETATM   38  C26 UNL     1      75.659  64.903  12.384  1.00  0.00     0.017 C 
HETATM   39  C27 UNL     1      74.699  62.721  12.035  1.00  0.00     0.017 C 
ENDBRANCH  22  36
ENDBRANCH   1  22
TORSDOF 11
ENDMDL
MODEL 3
REMARK VINA RESULT: -6.330688850      0.154      1.614
REMARK  11 active torsions:
REMARK  status: ('A' for Active; 'I' for Inactive)
REMARK    1  A    between atoms: C2_2  and  N1_3 
REMARK    2  A    between atoms: N1_3  and  C3_4 
REMARK    3  A    between atoms: N1_3  and  C12_19 
REMARK    4  A    between atoms: C3_4  and  C4_5 
REMARK    5  A    between atoms: C6_7  and  S1_8 
REMARK    6  A    between atoms: S1_8  and  N2_9 
REMARK    7  A    between atoms: C12_19  and  O3_20 
REMARK    8  A    between atoms: C12_19  and  C13_22 
REMARK    9  A    between atoms: C13_22  and  N3_23 
REMARK   10  A    between atoms: C13_22  and  C24_36 
REMARK       I    between atoms: N3_23  and  C14_25 
REMARK   11  A    between atoms: C14_25  and  C15_27 
ROOT
HETATM    1  C12 UNL     1      78.045  63.290  13.989  1.00  0.00     0.141 C 
ENDROOT
BRANCH   1   2
HETATM    2  N1  UNL     1      78.625  64.352  13.295  1.00  0.00    -0.339 N 
BRANCH   2   3
HETATM    3  C2  UNL     1      77.753  65.499  12.993  1.00  0.00     0.126 C 
HETATM    4  C1  UNL     1      78.458  66.709  12.490  1.00  0.00     0.027 C 
ENDBRANCH   2   3
BRANCH   2   5
HETATM    5  C3  UNL     1      79.935  64.390  12.801  1.00  0.00     0.104 C 
BRANCH   5   6
HETATM    6  C4  UNL     1      80.721  63.246  12.435  1.00  0.00    -0.013 A 
HETATM    7  C5  UNL     1      81.720  62.630  13.115  1.00  0.00     0.039 A 
HETATM    8  C6  UNL     1      82.440  61.534  12.635  1.00  0.00     0.086 A 
HETATM    9  C7  UNL     1      82.152  61.019  11.411  1.00  0.00    -0.038 A 
HETATM   10  C8  UNL     1      82.902  59.839  10.889  1.00  0.00     0.050 C 
HETATM   11  C9  UNL     1      81.125  61.623  10.668  1.00  0.00     0.015 A 
HETATM   12  C10 UNL     1      80.432  62.700  11.159  1.00  0.00    -0.050 A 
HETATM   13  C11 UNL     1      79.383  63.288  10.335  1.00  0.00     0.049 C 
BRANCH   8  14
HETATM   14  S1  UNL     1      83.699  60.810  13.614  1.00  0.00     0.257 S 
HETATM   15  O1  UNL     1      83.946  61.532  14.884  1.00  0.00    -0.201 OA
HETATM   16  O2  UNL     1      84.971  60.775  12.807  1.00  0.00    -0.201 OA
BRANCH  14  17
HETATM   17  N2  UNL     1      83.300  59.159  13.993  1.00  0.00    -0.324 N 
ATOM     18  H22 UNL     1      82.394  58.860  14.353  1.00  0.00     0.169 HD
ATOM     19  H21 UNL     1      84.095  58.548  13.804  1.00  0.00     0.169 HD
ENDBRANCH  14  17
ENDBRANCH   8  14
ENDBRANCH   5   6
ENDBRANCH   2   5
ENDBRANCH   1   2
BRANCH   1  20
HETATM   20  O3  UNL     1      78.700  62.928  15.060  1.00  0.00    -0.348 OA
ATOM     21  H3  UNL     1      78.212  63.027  15.868  1.00  0.00     0.219 HD
ENDBRANCH   1  20
BRANCH   1  22
HETATM   22  C13 UNL     1      76.781  62.535  13.699  1.00  0.00     0.167 C 
BRANCH  22  23
HETATM   23  N3  UNL     1      76.149  62.271  15.031  1.00  0.00    -0.344 N 
HETATM   24  C14 UNL     1      75.337  63.252  15.629  1.00  0.00     0.253 C 
HETATM   25  O4  UNL     1      75.139  64.381  15.018  1.00  0.00    -0.268 OA
ATOM     26  H3  UNL     1      76.306  61.381  15.504  1.00  0.00     0.163 HD
BRANCH  24  27
HETATM   27  C15 UNL     1      74.671  63.166  16.900  1.00  0.00     0.043 A 
HETATM   28  C16 UNL     1      73.309  63.203  16.993  1.00  0.00    -0.045 A 
HETATM   29  C17 UNL     1      72.387  63.497  15.847  1.00  0.00     0.049 C 
HETATM   30  C18 UNL     1      72.645  63.035  18.210  1.00  0.00     0.014 A 
HETATM   31  C19 UNL     1      73.353  62.823  19.364  1.00  0.00    -0.061 A 
HETATM   32  C20 UNL     1      72.662  62.652  20.683  1.00  0.00     0.048 C 
HETATM   33  C21 UNL     1      74.737  62.787  19.264  1.00  0.00     0.014 A 
HETATM   34  C22 UNL     1      75.399  62.951  18.074  1.00  0.00    -0.045 A 
HETATM   35  C23 UNL     1      76.885  62.868  18.097  1.00  0.00     0.049 C 
ENDBRANCH  24  27
ENDBRANCH  22  23
BRANCH  22  36
HETATM   36  C24 UNL     1      76.913  61.280  12.958  1.00  0.00    -0.023 C 
HETATM   37  C25 UNL     1      75.824  60.265  13.252  1.00  0.00     0.017 C 
HETATM   38  C26 UNL     1      78.213  60.577  13.093  1.00  0.00     0.017 C 
HETATM   39  C27 UNL     1      76.778  61.615  11.460  1.00  0.00     0.017 C 
ENDBRANCH  22  36
ENDBRANCH   1  22
TORSDOF 11
ENDMDL
MODEL 4
REMARK VINA RESULT: -6.285886830      3.726      7.795
REMARK  11 active torsions:
REMARK  status: ('A' for Active; 'I' for Inactive)
REMARK    1  A    between atoms: C2_2  and  N1_3 
REMARK    2  A    between atoms: N1_3  and  C3_4 
REMARK    3  A    between atoms: N1_3  and  C12_19 
REMARK    4  A    between atoms: C3_4  and  C4_5 
REMARK    5  A    between atoms: C6_7  and  S1_8 
REMARK    6  A    between atoms: S1_8  and  N2_9 
REMARK    7  A    between atoms: C12_19  and  O3_20 
REMARK    8  A    between atoms: C12_19  and  C13_22 
REMARK    9  A    between atoms: C13_22  and  N3_23 
REMARK   10  A    between atoms: C13_22  and  C24_36 
REMARK       I    between atoms: N3_23  and  C14_25 
REMARK   11  A    between atoms: C14_25  and  C15_27 
ROOT
HETATM    1  C12 UNL     1      76.144  67.528  14.420  1.00  0.00     0.141 C 
ENDROOT
BRANCH   1   2
HETATM    2  N1  UNL     1      74.969  67.887  15.078  1.00  0.00    -0.339 N 
BRANCH   2   3
HETATM    3  C2  UNL     1      74.836  69.301  15.469  1.00  0.00     0.126 C 
HETATM    4  C1  UNL     1      73.573  69.641  16.178  1.00  0.00     0.027 C 
ENDBRANCH   2   3
BRANCH   2   5
HETATM    5  C3  UNL     1      73.944  67.013  15.462  1.00  0.00     0.104 C 
BRANCH   5   6
HETATM    6  C4  UNL     1      74.129  65.684  15.971  1.00  0.00    -0.013 A 
HETATM    7  C5  UNL     1      74.675  65.276  17.144  1.00  0.00     0.039 A 
HETATM    8  C6  UNL     1      74.832  63.940  17.517  1.00  0.00     0.086 A 
HETATM    9  C7  UNL     1      74.423  62.952  16.679  1.00  0.00    -0.038 A 
HETATM   10  C8  UNL     1      74.572  61.518  17.067  1.00  0.00     0.050 C 
HETATM   11  C9  UNL     1      73.852  63.324  15.451  1.00  0.00     0.015 A 
HETATM   12  C10 UNL     1      73.709  64.643  15.105  1.00  0.00    -0.050 A 
HETATM   13  C11 UNL     1      73.116  64.965  13.813  1.00  0.00     0.049 C 
BRANCH   8  14
HETATM   14  S1  UNL     1      75.535  63.535  19.069  1.00  0.00     0.257 S 
HETATM   15  O1  UNL     1      74.638  62.730  19.930  1.00  0.00    -0.201 OA
HETATM   16  O2  UNL     1      75.889  64.816  19.781  1.00  0.00    -0.201 OA
BRANCH  14  17
HETATM   17  N2  UNL     1      77.021  62.655  18.852  1.00  0.00    -0.324 N 
ATOM     18  H22 UNL     1      77.721  62.886  18.147  1.00  0.00     0.169 HD
ATOM     19  H21 UNL     1      77.084  61.890  19.523  1.00  0.00     0.169 HD
ENDBRANCH  14  17
ENDBRANCH   8  14
ENDBRANCH   5   6
ENDBRANCH   2   5
ENDBRANCH   1   2
BRANCH   1  20
HETATM   20  O3  UNL     1      77.237  67.913  15.024  1.00  0.00    -0.348 OA
ATOM     21  H3  UNL     1      77.165  68.754  15.460  1.00  0.00     0.219 HD
ENDBRANCH   1  20
BRANCH   1  22
HETATM   22  C13 UNL     1      76.330  66.750  13.150  1.00  0.00     0.167 C 
BRANCH  22  23
HETATM   23  N3  UNL     1      77.621  66.009  13.309  1.00  0.00    -0.344 N 
HETATM   24  C14 UNL     1      77.658  64.616  13.121  1.00  0.00     0.253 C 
HETATM   25  O4  UNL     1      76.569  63.981  12.807  1.00  0.00    -0.268 OA
ATOM     26  H3  UNL     1      78.473  66.515  13.553  1.00  0.00     0.163 HD
BRANCH  24  27
HETATM   27  C15 UNL     1      78.804  63.757  13.248  1.00  0.00     0.043 A 
HETATM   28  C16 UNL     1      78.907  62.854  14.267  1.00  0.00    -0.045 A 
HETATM   29  C17 UNL     1      77.957  62.768  15.425  1.00  0.00     0.049 C 
HETATM   30  C18 UNL     1      79.971  61.955  14.356  1.00  0.00     0.014 A 
HETATM   31  C19 UNL     1      80.960  61.954  13.407  1.00  0.00    -0.061 A 
HETATM   32  C20 UNL     1      82.119  61.007  13.490  1.00  0.00     0.048 C 
HETATM   33  C21 UNL     1      80.852  62.875  12.374  1.00  0.00     0.014 A 
HETATM   34  C22 UNL     1      79.811  63.761  12.277  1.00  0.00    -0.045 A 
HETATM   35  C23 UNL     1      79.798  64.683  11.109  1.00  0.00     0.049 C 
ENDBRANCH  24  27
ENDBRANCH  22  23
BRANCH  22  36
HETATM   36  C24 UNL     1      76.349  67.514  11.901  1.00  0.00    -0.023 C 
HETATM   37  C25 UNL     1      77.740  67.862  11.405  1.00  0.00     0.017 C 
HETATM   38  C26 UNL     1      75.555  68.767  11.891  1.00  0.00     0.017 C 
HETATM   39  C27 UNL     1      75.727  66.622  10.808  1.00  0.00     0.017 C 
ENDBRANCH  22  36
ENDBRANCH   1  22
TORSDOF 11
ENDMDL
MODEL 5
REMARK VINA RESULT: -6.213522678      5.329      7.352
REMARK  11 active torsions:
REMARK  status: ('A' for Active; 'I' for Inactive)
REMARK    1  A    between atoms: C2_2  and  N1_3 
REMARK    2  A    between atoms: N1_3  and  C3_4 
REMARK    3  A    between atoms: N1_3  and  C12_19 
REMARK    4  A    between atoms: C3_4  and  C4_5 
REMARK    5  A    between atoms: C6_7  and  S1_8 
REMARK    6  A    between atoms: S1_8  and  N2_9 
REMARK    7  A    between atoms: C12_19  and  O3_20 
REMARK    8  A    between atoms: C12_19  and  C13_22 
REMARK    9  A    between atoms: C13_22  and  N3_23 
REMARK   10  A    between atoms: C13_22  and  C24_36 
REMARK       I    between atoms: N3_23  and  C14_25 
REMARK   11  A    between atoms: C14_25  and  C15_27 
ROOT
HETATM    1  C12 UNL     1      80.328  57.457  12.000  1.00  0.00     0.141 C 
ENDROOT
BRANCH   1   2
HETATM    2  N1  UNL     1      81.062  56.289  12.209  1.00  0.00    -0.339 N 
BRANCH   2   3
HETATM    3  C2  UNL     1      80.294  55.076  12.539  1.00  0.00     0.126 C 
HETATM    4  C1  UNL     1      80.279  54.035  11.476  1.00  0.00     0.027 C 
ENDBRANCH   2   3
BRANCH   2   5
HETATM    5  C3  UNL     1      82.459  56.187  12.204  1.00  0.00     0.104 C 
BRANCH   5   6
HETATM    6  C4  UNL     1      83.373  57.270  11.973  1.00  0.00    -0.013 A 
HETATM    7  C5  UNL     1      83.816  58.224  12.829  1.00  0.00     0.039 A 
HETATM    8  C6  UNL     1      84.688  59.256  12.474  1.00  0.00     0.086 A 
HETATM    9  C7  UNL     1      85.147  59.345  11.199  1.00  0.00    -0.038 A 
HETATM   10  C8  UNL     1      86.089  60.434  10.806  1.00  0.00     0.050 C 
HETATM   11  C9  UNL     1      84.715  58.380  10.275  1.00  0.00     0.015 A 
HETATM   12  C10 UNL     1      83.856  57.376  10.645  1.00  0.00    -0.050 A 
HETATM   13  C11 UNL     1      83.438  56.409   9.637  1.00  0.00     0.049 C 
BRANCH   8  14
HETATM   14  S1  UNL     1      85.207  60.421  13.674  1.00  0.00     0.257 S 
HETATM   15  O1  UNL     1      84.845  61.817  13.334  1.00  0.00    -0.201 OA
HETATM   16  O2  UNL     1      86.704  60.320  13.823  1.00  0.00    -0.201 OA
BRANCH  14  17
HETATM   17  N2  UNL     1      84.521  60.041  15.228  1.00  0.00    -0.324 N 
ATOM     18  H22 UNL     1      84.255  59.100  15.518  1.00  0.00     0.169 HD
ATOM     19  H21 UNL     1      84.428  60.885  15.793  1.00  0.00     0.169 HD
ENDBRANCH  14  17
ENDBRANCH   8  14
ENDBRANCH   5   6
ENDBRANCH   2   5
ENDBRANCH   1   2
BRANCH   1  20
HETATM   20  O3  UNL     1      79.764  57.936  13.077  1.00  0.00    -0.348 OA
ATOM     21  H3  UNL     1      80.155  58.741  13.396  1.00  0.00     0.219 HD
ENDBRANCH   1  20
BRANCH   1  22
HETATM   22  C13 UNL     1      80.119  58.242  10.738  1.00  0.00     0.167 C 
BRANCH  22  23
HETATM   23  N3  UNL     1      79.767  59.630  11.174  1.00  0.00    -0.344 N 
HETATM   24  C14 UNL     1      80.690  60.676  10.998  1.00  0.00     0.253 C 
HETATM   25  O4  UNL     1      81.844  60.429  10.455  1.00  0.00    -0.268 OA
ATOM     26  H3  UNL     1      78.858  59.817  11.598  1.00  0.00     0.163 HD
BRANCH  24  27
HETATM   27  C15 UNL     1      80.517  62.053  11.371  1.00  0.00     0.043 A 
HETATM   28  C16 UNL     1      79.920  62.948  10.530  1.00  0.00    -0.045 A 
HETATM   29  C17 UNL     1      79.542  62.655   9.108  1.00  0.00     0.049 C 
HETATM   30  C18 UNL     1      79.668  64.268  10.910  1.00  0.00     0.014 A 
HETATM   31  C19 UNL     1      80.017  64.710  12.160  1.00  0.00    -0.061 A 
HETATM   32  C20 UNL     1      79.767  66.125  12.584  1.00  0.00     0.048 C 
HETATM   33  C21 UNL     1      80.624  63.796  13.011  1.00  0.00     0.014 A 
HETATM   34  C22 UNL     1      80.876  62.498  12.648  1.00  0.00    -0.045 A 
HETATM   35  C23 UNL     1      81.512  61.612  13.660  1.00  0.00     0.049 C 
ENDBRANCH  24  27
ENDBRANCH  22  23
BRANCH  22  36
HETATM   36  C24 UNL     1      79.105  57.744   9.807  1.00  0.00    -0.023 C 
HETATM   37  C25 UNL     1      78.523  58.806   8.893  1.00  0.00     0.017 C 
HETATM   38  C26 UNL     1      77.963  57.018  10.415  1.00  0.00     0.017 C 
HETATM   39  C27 UNL     1      79.794  56.725   8.878  1.00  0.00     0.017 C 
ENDBRANCH  22  36
ENDBRANCH   1  22
TORSDOF 11
ENDMDL
