MODEL 1
REMARK VINA RESULT: -7.272930765      0.000      0.000
REMARK  8 active torsions:
REMARK  status: ('A' for Active; 'I' for Inactive)
REMARK    1  A    between atoms: C3_3  and  C4_4 
REMARK    2  A    between atoms: C7_7  and  C8_8 
REMARK    3  A    between atoms: C11_11  and  S1_12 
REMARK    4  A    between atoms: S1_12  and  N1_15 
REMARK    5  A    between atoms: C16_20  and  C17_21 
REMARK       I    between atoms: C17_21  and  N2_23 
REMARK    6  A    between atoms: N2_23  and  C18_25 
REMARK    7  A    between atoms: C18_25  and  C19_26 
REMARK    8  A    between atoms: N4_36  and  O4_37 
ROOT
HETATM    1  C4  UNL     1      77.935  67.336  12.206  1.00  0.00    -0.035 A 
HETATM    2  C5  UNL     1      79.212  67.337  11.734  1.00  0.00     0.012 A 
HETATM    3  C6  UNL     1      79.937  66.172  11.768  1.00  0.00     0.014 A 
HETATM    4  C7  UNL     1      79.423  64.957  12.273  1.00  0.00    -0.010 A 
HETATM    5  C16 UNL     1      78.164  64.989  12.734  1.00  0.00     0.044 A 
HETATM    6  C27 UNL     1      77.405  66.189  12.702  1.00  0.00     0.029 A 
ENDROOT
BRANCH   5   7
HETATM    7  C17 UNL     1      77.515  63.877  13.401  1.00  0.00     0.256 C 
HETATM    8  O3  UNL     1      76.815  63.144  12.647  1.00  0.00    -0.267 OA
HETATM    9  N2  UNL     1      77.605  63.606  14.755  1.00  0.00    -0.332 N 
ATOM     10  H2  UNL     1      78.194  64.255  15.278  1.00  0.00     0.168 HD
BRANCH   9  11
HETATM   11  C18 UNL     1      77.014  62.577  15.544  1.00  0.00     0.119 C 
BRANCH  11  12
HETATM   12  C19 UNL     1      75.587  62.369  15.698  1.00  0.00     0.156 C 
HETATM   13  C20 UNL     1      75.141  61.122  14.877  1.00  0.00     0.071 C 
HETATM   14  N3  UNL     1      75.353  61.915  17.085  1.00  0.00    -0.383 N 
HETATM   15  C21 UNL     1      75.413  62.928  18.066  1.00  0.00     0.026 C 
ATOM     16  H3  UNL     1      75.162  60.940  17.317  1.00  0.00     0.157 HD
HETATM   17  C22 UNL     1      74.301  62.602  19.088  1.00  0.00     0.038 C 
HETATM   18  C23 UNL     1      76.762  62.911  18.810  1.00  0.00     0.038 C 
HETATM   19  C24 UNL     1      75.142  64.320  17.584  1.00  0.00     0.084 C 
HETATM   20  C25 UNL     1      74.487  64.340  16.288  1.00  0.00     0.014 C 
HETATM   21  C26 UNL     1      73.536  65.432  15.937  1.00  0.00     0.066 C 
HETATM   22  N4  UNL     1      74.698  63.427  15.410  1.00  0.00    -0.235 N 
BRANCH  22  23
HETATM   23  O4  UNL     1      74.004  63.474  14.197  1.00  0.00    -0.285 OA
ATOM     24  H4  UNL     1      73.203  62.978  14.073  1.00  0.00     0.245 HD
ENDBRANCH  22  23
ENDBRANCH  11  12
ENDBRANCH   9  11
ENDBRANCH   5   7
BRANCH   4  25
HETATM   25  C8  UNL     1      80.275  63.783  12.138  1.00  0.00    -0.025 A 
HETATM   26  C9  UNL     1      80.211  62.911  11.059  1.00  0.00     0.014 A 
HETATM   27  C10 UNL     1      80.957  61.754  10.994  1.00  0.00     0.026 A 
HETATM   28  C11 UNL     1      81.815  61.402  12.014  1.00  0.00     0.079 A 
HETATM   29  C14 UNL     1      81.898  62.251  13.098  1.00  0.00     0.026 A 
HETATM   30  C15 UNL     1      81.138  63.419  13.147  1.00  0.00     0.014 A 
BRANCH  28  31
HETATM   31  S1  UNL     1      82.776  59.919  11.960  1.00  0.00     0.260 S 
HETATM   32  O1  UNL     1      82.094  58.902  12.823  1.00  0.00    -0.200 OA
HETATM   33  O2  UNL     1      82.809  59.367  10.561  1.00  0.00    -0.200 OA
BRANCH  31  34
HETATM   34  N1  UNL     1      84.350  60.146  12.496  1.00  0.00    -0.315 N 
HETATM   35  C12 UNL     1      85.369  60.382  11.560  1.00  0.00     0.162 C 
HETATM   36  C13 UNL     1      84.672  59.834  13.827  1.00  0.00     0.162 C 
ENDBRANCH  31  34
ENDBRANCH  28  31
ENDBRANCH   4  25
BRANCH   1  37
HETATM   37  C3  UNL     1      77.100  68.546  12.203  1.00  0.00     0.007 C 
HETATM   38  C2  UNL     1      76.651  69.058  13.316  1.00  0.00    -0.030 C 
HETATM   39  C1  UNL     1      75.799  70.303  13.232  1.00  0.00     0.036 C 
ENDBRANCH   1  37
TORSDOF 8
ENDMDL
MODEL 2
REMARK VINA RESULT: -6.671308757      4.627      7.047
REMARK  8 active torsions:
REMARK  status: ('A' for Active; 'I' for Inactive)
REMARK    1  A    between atoms: C3_3  and  C4_4 
REMARK    2  A    between atoms: C7_7  and  C8_8 
REMARK    3  A    between atoms: C11_11  and  S1_12 
REMARK    4  A    between atoms: S1_12  and  N1_15 
REMARK    5  A    between atoms: C16_20  and  C17_21 
REMARK       I    between atoms: C17_21  and  N2_23 
REMARK    6  A    between atoms: N2_23  and  C18_25 
REMARK    7  A    between atoms: C18_25  and  C19_26 
REMARK    8  A    between atoms: N4_36  and  O4_37 
ROOT
HETATM    1  C4  UNL     1      79.621  65.511  11.260  1.00  0.00    -0.035 A 
HETATM    2  C5  UNL     1      79.276  64.962  10.063  1.00  0.00     0.012 A 
HETATM    3  C6  UNL     1      79.441  63.613   9.872  1.00  0.00     0.014 A 
HETATM    4  C7  UNL     1      79.957  62.752  10.865  1.00  0.00    -0.010 A 
HETATM    5  C16 UNL     1      80.292  63.321  12.033  1.00  0.00     0.044 A 
HETATM    6  C27 UNL     1      80.124  64.716  12.240  1.00  0.00     0.029 A 
ENDROOT
BRANCH   5   7
HETATM    7  C17 UNL     1      80.950  62.621  13.119  1.00  0.00     0.256 C 
HETATM    8  O3  UNL     1      80.206  62.354  14.104  1.00  0.00    -0.267 OA
HETATM    9  N2  UNL     1      82.288  62.268  13.135  1.00  0.00    -0.332 N 
ATOM     10  H2  UNL     1      82.805  62.526  12.293  1.00  0.00     0.168 HD
BRANCH   9  11
HETATM   11  C18 UNL     1      83.068  61.606  14.126  1.00  0.00     0.119 C 
BRANCH  11  12
HETATM   12  C19 UNL     1      84.228  60.780  13.850  1.00  0.00     0.156 C 
HETATM   13  C20 UNL     1      85.286  60.956  14.980  1.00  0.00     0.071 C 
HETATM   14  N3  UNL     1      83.822  59.370  14.035  1.00  0.00    -0.383 N 
HETATM   15  C21 UNL     1      83.057  58.824  12.982  1.00  0.00     0.026 C 
ATOM     16  H3  UNL     1      84.077  58.832  14.863  1.00  0.00     0.157 HD
HETATM   17  C22 UNL     1      83.541  57.366  12.813  1.00  0.00     0.038 C 
HETATM   18  C23 UNL     1      81.558  58.788  13.337  1.00  0.00     0.038 C 
HETATM   19  C24 UNL     1      83.224  59.477  11.646  1.00  0.00     0.084 C 
HETATM   20  C25 UNL     1      84.422  60.296  11.576  1.00  0.00     0.014 C 
HETATM   21  C26 UNL     1      85.156  60.456  10.289  1.00  0.00     0.066 C 
HETATM   22  N4  UNL     1      84.887  60.903  12.608  1.00  0.00    -0.235 N 
BRANCH  22  23
HETATM   23  O4  UNL     1      86.069  61.642  12.490  1.00  0.00    -0.285 OA
ATOM     24  H4  UNL     1      86.688  61.463  11.792  1.00  0.00     0.245 HD
ENDBRANCH  22  23
ENDBRANCH  11  12
ENDBRANCH   9  11
ENDBRANCH   5   7
BRANCH   4  25
HETATM   25  C8  UNL     1      79.967  61.329  10.552  1.00  0.00    -0.025 A 
HETATM   26  C9  UNL     1      80.800  60.761   9.596  1.00  0.00     0.014 A 
HETATM   27  C10 UNL     1      80.729  59.431   9.246  1.00  0.00     0.026 A 
HETATM   28  C11 UNL     1      79.813  58.586   9.837  1.00  0.00     0.079 A 
HETATM   29  C14 UNL     1      78.974  59.125  10.791  1.00  0.00     0.026 A 
HETATM   30  C15 UNL     1      79.060  60.473  11.135  1.00  0.00     0.014 A 
BRANCH  28  31
HETATM   31  S1  UNL     1      79.696  56.878   9.399  1.00  0.00     0.260 S 
HETATM   32  O1  UNL     1      78.286  56.438   9.651  1.00  0.00    -0.200 OA
HETATM   33  O2  UNL     1      79.965  56.693   7.932  1.00  0.00    -0.200 OA
BRANCH  31  34
HETATM   34  N1  UNL     1      80.751  55.910  10.275  1.00  0.00    -0.315 N 
HETATM   35  C12 UNL     1      80.450  55.594  11.609  1.00  0.00     0.162 C 
HETATM   36  C13 UNL     1      82.033  55.656   9.762  1.00  0.00     0.162 C 
ENDBRANCH  31  34
ENDBRANCH  28  31
ENDBRANCH   4  25
BRANCH   1  37
HETATM   37  C3  UNL     1      79.474  66.947  11.533  1.00  0.00     0.007 C 
HETATM   38  C2  UNL     1      79.312  67.804  10.562  1.00  0.00    -0.030 C 
HETATM   39  C1  UNL     1      79.167  69.265  10.923  1.00  0.00     0.036 C 
ENDBRANCH   1  37
TORSDOF 8
ENDMDL
MODEL 3
REMARK VINA RESULT: -6.521060531      4.496      7.955
REMARK  8 active torsions:
REMARK  status: ('A' for Active; 'I' for Inactive)
REMARK    1  A    between atoms: C3_3  and  C4_4 
REMARK    2  A    between atoms: C7_7  and  C8_8 
REMARK    3  A    between atoms: C11_11  and  S1_12 
REMARK    4  A    between atoms: S1_12  and  N1_15 
REMARK    5  A    between atoms: C16_20  and  C17_21 
REMARK       I    between atoms: C17_21  and  N2_23 
REMARK    6  A    between atoms: N2_23  and  C18_25 
REMARK    7  A    between atoms: C18_25  and  C19_26 
REMARK    8  A    between atoms: N4_36  and  O4_37 
ROOT
HETATM    1  C4  UNL     1      79.886  64.297  11.918  1.00  0.00    -0.035 A 
HETATM    2  C5  UNL     1      79.473  63.844  10.702  1.00  0.00     0.012 A 
HETATM    3  C6  UNL     1      79.965  62.653  10.230  1.00  0.00     0.014 A 
HETATM    4  C7  UNL     1      80.888  61.861  10.948  1.00  0.00    -0.010 A 
HETATM    5  C16 UNL     1      81.279  62.334  12.141  1.00  0.00     0.044 A 
HETATM    6  C27 UNL     1      80.775  63.565  12.638  1.00  0.00     0.029 A 
ENDROOT
BRANCH   5   7
HETATM    7  C17 UNL     1      82.309  61.725  12.958  1.00  0.00     0.256 C 
HETATM    8  O3  UNL     1      83.059  62.543  13.561  1.00  0.00    -0.267 OA
HETATM    9  N2  UNL     1      82.512  60.362  13.088  1.00  0.00    -0.332 N 
ATOM     10  H2  UNL     1      81.854  59.784  12.564  1.00  0.00     0.168 HD
BRANCH   9  11
HETATM   11  C18 UNL     1      83.483  59.627  13.829  1.00  0.00     0.119 C 
BRANCH  11  12
HETATM   12  C19 UNL     1      84.915  59.710  13.622  1.00  0.00     0.156 C 
HETATM   13  C20 UNL     1      85.600  60.313  14.885  1.00  0.00     0.071 C 
HETATM   14  N3  UNL     1      85.443  58.329  13.625  1.00  0.00    -0.383 N 
HETATM   15  C21 UNL     1      85.214  57.597  12.441  1.00  0.00     0.026 C 
ATOM     16  H3  UNL     1      85.938  57.934  14.425  1.00  0.00     0.157 HD
HETATM   17  C22 UNL     1      86.491  56.761  12.198  1.00  0.00     0.038 C 
HETATM   18  C23 UNL     1      84.033  56.620  12.603  1.00  0.00     0.038 C 
HETATM   19  C24 UNL     1      85.005  58.409  11.200  1.00  0.00     0.084 C 
HETATM   20  C25 UNL     1      85.459  59.780  11.355  1.00  0.00     0.014 C 
HETATM   21  C26 UNL     1      85.997  60.535  10.188  1.00  0.00     0.066 C 
HETATM   22  N4  UNL     1      85.415  60.384  12.487  1.00  0.00    -0.235 N 
BRANCH  22  23
HETATM   23  O4  UNL     1      85.908  61.689  12.584  1.00  0.00    -0.285 OA
ATOM     24  H4  UNL     1      85.737  62.328  11.902  1.00  0.00     0.245 HD
ENDBRANCH  22  23
ENDBRANCH  11  12
ENDBRANCH   9  11
ENDBRANCH   5   7
BRANCH   4  25
HETATM   25  C8  UNL     1      81.230  60.570  10.366  1.00  0.00    -0.025 A 
HETATM   26  C9  UNL     1      82.249  60.394   9.438  1.00  0.00     0.014 A 
HETATM   27  C10 UNL     1      82.496  59.184   8.827  1.00  0.00     0.026 A 
HETATM   28  C11 UNL     1      81.730  58.073   9.111  1.00  0.00     0.079 A 
HETATM   29  C14 UNL     1      80.712  58.220  10.030  1.00  0.00     0.026 A 
HETATM   30  C15 UNL     1      80.476  59.451  10.641  1.00  0.00     0.014 A 
BRANCH  28  31
HETATM   31  S1  UNL     1      82.020  56.512   8.334  1.00  0.00     0.260 S 
HETATM   32  O1  UNL     1      80.688  55.903   8.022  1.00  0.00    -0.200 OA
HETATM   33  O2  UNL     1      82.741  56.702   7.028  1.00  0.00    -0.200 OA
BRANCH  31  34
HETATM   34  N1  UNL     1      82.906  55.462   9.300  1.00  0.00    -0.315 N 
HETATM   35  C12 UNL     1      84.292  55.355   9.109  1.00  0.00     0.162 C 
HETATM   36  C13 UNL     1      82.226  54.518  10.087  1.00  0.00     0.162 C 
ENDBRANCH  31  34
ENDBRANCH  28  31
ENDBRANCH   4  25
BRANCH   1  37
HETATM   37  C3  UNL     1      79.403  65.564  12.485  1.00  0.00     0.007 C 
HETATM   38  C2  UNL     1      78.138  65.746  12.747  1.00  0.00    -0.030 C 
HETATM   39  C1  UNL     1      77.718  67.076  13.329  1.00  0.00     0.036 C 
ENDBRANCH   1  37
TORSDOF 8
ENDMDL
MODEL 4
REMARK VINA RESULT: -6.506763993      1.447      1.958
REMARK  8 active torsions:
REMARK  status: ('A' for Active; 'I' for Inactive)
REMARK    1  A    between atoms: C3_3  and  C4_4 
REMARK    2  A    between atoms: C7_7  and  C8_8 
REMARK    3  A    between atoms: C11_11  and  S1_12 
REMARK    4  A    between atoms: S1_12  and  N1_15 
REMARK    5  A    between atoms: C16_20  and  C17_21 
REMARK       I    between atoms: C17_21  and  N2_23 
REMARK    6  A    between atoms: N2_23  and  C18_25 
REMARK    7  A    between atoms: C18_25  and  C19_26 
REMARK    8  A    between atoms: N4_36  and  O4_37 
ROOT
HETATM    1  C4  UNL     1      78.085  68.462  11.299  1.00  0.00    -0.035 A 
HETATM    2  C5  UNL     1      79.405  68.284  11.021  1.00  0.00     0.012 A 
HETATM    3  C6  UNL     1      79.972  67.051  11.227  1.00  0.00     0.014 A 
HETATM    4  C7  UNL     1      79.249  65.942  11.718  1.00  0.00    -0.010 A 
HETATM    5  C16 UNL     1      77.950  66.149  11.986  1.00  0.00     0.044 A 
HETATM    6  C27 UNL     1      77.355  67.421  11.776  1.00  0.00     0.029 A 
ENDROOT
BRANCH   5   7
HETATM    7  C17 UNL     1      77.084  65.169  12.611  1.00  0.00     0.256 C 
HETATM    8  O3  UNL     1      76.443  64.438  11.805  1.00  0.00    -0.267 OA
HETATM    9  N2  UNL     1      76.919  65.017  13.977  1.00  0.00    -0.332 N 
ATOM     10  H2  UNL     1      77.481  65.652  14.545  1.00  0.00     0.168 HD
BRANCH   9  11
HETATM   11  C18 UNL     1      76.099  64.124  14.726  1.00  0.00     0.119 C 
BRANCH  11  12
HETATM   12  C19 UNL     1      76.538  62.848  15.259  1.00  0.00     0.156 C 
HETATM   13  C20 UNL     1      78.002  62.562  14.810  1.00  0.00     0.071 C 
HETATM   14  N3  UNL     1      76.698  63.009  16.720  1.00  0.00    -0.383 N 
HETATM   15  C21 UNL     1      75.495  63.017  17.457  1.00  0.00     0.026 C 
ATOM     16  H3  UNL     1      77.612  63.108  17.162  1.00  0.00     0.157 HD
HETATM   17  C22 UNL     1      75.788  62.241  18.761  1.00  0.00     0.038 C 
HETATM   18  C23 UNL     1      75.080  64.450  17.841  1.00  0.00     0.038 C 
HETATM   19  C24 UNL     1      74.331  62.329  16.814  1.00  0.00     0.084 C 
HETATM   20  C25 UNL     1      74.737  61.445  15.736  1.00  0.00     0.014 C 
HETATM   21  C26 UNL     1      73.959  60.210  15.436  1.00  0.00     0.066 C 
HETATM   22  N4  UNL     1      75.768  61.692  15.011  1.00  0.00    -0.235 N 
BRANCH  22  23
HETATM   23  O4  UNL     1      76.136  60.781  14.016  1.00  0.00    -0.285 OA
ATOM     24  H4  UNL     1      75.615  60.681  13.228  1.00  0.00     0.245 HD
ENDBRANCH  22  23
ENDBRANCH  11  12
ENDBRANCH   9  11
ENDBRANCH   5   7
BRANCH   4  25
HETATM   25  C8  UNL     1      79.961  64.673  11.776  1.00  0.00    -0.025 A 
HETATM   26  C9  UNL     1      79.861  63.693  10.798  1.00  0.00     0.014 A 
HETATM   27  C10 UNL     1      80.466  62.461  10.915  1.00  0.00     0.026 A 
HETATM   28  C11 UNL     1      81.213  62.137  12.029  1.00  0.00     0.079 A 
HETATM   29  C14 UNL     1      81.329  63.094  13.016  1.00  0.00     0.026 A 
HETATM   30  C15 UNL     1      80.711  64.336  12.881  1.00  0.00     0.014 A 
BRANCH  28  31
HETATM   31  S1  UNL     1      81.992  60.561  12.209  1.00  0.00     0.260 S 
HETATM   32  O1  UNL     1      81.322  59.848  13.343  1.00  0.00    -0.200 OA
HETATM   33  O2  UNL     1      81.783  59.729  10.974  1.00  0.00    -0.200 OA
BRANCH  31  34
HETATM   34  N1  UNL     1      83.638  60.683  12.515  1.00  0.00    -0.315 N 
HETATM   35  C12 UNL     1      84.546  60.040  11.660  1.00  0.00     0.162 C 
HETATM   36  C13 UNL     1      84.068  61.188  13.753  1.00  0.00     0.162 C 
ENDBRANCH  31  34
ENDBRANCH  28  31
ENDBRANCH   4  25
BRANCH   1  37
HETATM   37  C3  UNL     1      77.413  69.755  11.105  1.00  0.00     0.007 C 
HETATM   38  C2  UNL     1      76.261  69.830  10.496  1.00  0.00    -0.030 C 
HETATM   39  C1  UNL     1      75.632  71.194  10.334  1.00  0.00     0.036 C 
ENDBRANCH   1  37
TORSDOF 8
ENDMDL
MODEL 5
REMARK VINA RESULT: -6.458165878      1.335      2.074
REMARK  8 active torsions:
REMARK  status: ('A' for Active; 'I' for Inactive)
REMARK    1  A    between atoms: C3_3  and  C4_4 
REMARK    2  A    between atoms: C7_7  and  C8_8 
REMARK    3  A    between atoms: C11_11  and  S1_12 
REMARK    4  A    between atoms: S1_12  and  N1_15 
REMARK    5  A    between atoms: C16_20  and  C17_21 
REMARK       I    between atoms: C17_21  and  N2_23 
REMARK    6  A    between atoms: N2_23  and  C18_25 
REMARK    7  A    between atoms: C18_25  and  C19_26 
REMARK    8  A    between atoms: N4_36  and  O4_37 
ROOT
HETATM    1  C4  UNL     1      78.073  68.132  11.727  1.00  0.00    -0.035 A 
HETATM    2  C5  UNL     1      79.345  67.975  11.271  1.00  0.00     0.012 A 
HETATM    3  C6  UNL     1      79.937  66.739  11.350  1.00  0.00     0.014 A 
HETATM    4  C7  UNL     1      79.287  65.606  11.887  1.00  0.00    -0.010 A 
HETATM    5  C16 UNL     1      78.035  65.793  12.332  1.00  0.00     0.044 A 
HETATM    6  C27 UNL     1      77.414  67.067  12.253  1.00  0.00     0.029 A 
ENDROOT
BRANCH   5   7
HETATM    7  C17 UNL     1      77.261  64.782  13.026  1.00  0.00     0.256 C 
HETATM    8  O3  UNL     1      76.791  63.874  12.284  1.00  0.00    -0.267 OA
HETATM    9  N2  UNL     1      77.009  64.775  14.387  1.00  0.00    -0.332 N 
ATOM     10  H2  UNL     1      77.433  65.549  14.900  1.00  0.00     0.168 HD
BRANCH   9  11
HETATM   11  C18 UNL     1      76.259  63.872  15.195  1.00  0.00     0.119 C 
BRANCH  11  12
HETATM   12  C19 UNL     1      74.992  64.186  15.826  1.00  0.00     0.156 C 
HETATM   13  C20 UNL     1      74.472  65.564  15.317  1.00  0.00     0.071 C 
HETATM   14  N3  UNL     1      73.980  63.260  15.272  1.00  0.00    -0.383 N 
HETATM   15  C21 UNL     1      74.025  61.947  15.784  1.00  0.00     0.026 C 
ATOM     16  H3  UNL     1      73.299  63.551  14.570  1.00  0.00     0.157 HD
HETATM   17  C22 UNL     1      72.555  61.492  15.928  1.00  0.00     0.038 C 
HETATM   18  C23 UNL     1      74.725  60.985  14.805  1.00  0.00     0.038 C 
HETATM   19  C24 UNL     1      74.643  61.795  17.140  1.00  0.00     0.084 C 
HETATM   20  C25 UNL     1      74.733  63.058  17.851  1.00  0.00     0.014 C 
HETATM   21  C26 UNL     1      74.635  63.098  19.338  1.00  0.00     0.066 C 
HETATM   22  N4  UNL     1      74.896  64.172  17.234  1.00  0.00    -0.235 N 
BRANCH  22  23
HETATM   23  O4  UNL     1      74.930  65.361  17.969  1.00  0.00    -0.285 OA
ATOM     24  H4  UNL     1      75.173  65.361  18.887  1.00  0.00     0.245 HD
ENDBRANCH  22  23
ENDBRANCH  11  12
ENDBRANCH   9  11
ENDBRANCH   5   7
BRANCH   4  25
HETATM   25  C8  UNL     1      80.004  64.341  11.800  1.00  0.00    -0.025 A 
HETATM   26  C9  UNL     1      79.844  63.441  10.755  1.00  0.00     0.014 A 
HETATM   27  C10 UNL     1      80.457  62.207  10.737  1.00  0.00     0.026 A 
HETATM   28  C11 UNL     1      81.273  61.802  11.772  1.00  0.00     0.079 A 
HETATM   29  C14 UNL     1      81.450  62.678  12.823  1.00  0.00     0.026 A 
HETATM   30  C15 UNL     1      80.823  63.924  12.825  1.00  0.00     0.014 A 
BRANCH  28  31
HETATM   31  S1  UNL     1      82.065  60.222  11.777  1.00  0.00     0.260 S 
HETATM   32  O1  UNL     1      81.749  59.558  13.083  1.00  0.00    -0.200 OA
HETATM   33  O2  UNL     1      81.504  59.351  10.687  1.00  0.00    -0.200 OA
BRANCH  31  34
HETATM   34  N1  UNL     1      83.729  60.330  11.590  1.00  0.00    -0.315 N 
HETATM   35  C12 UNL     1      84.341  59.707  10.492  1.00  0.00     0.162 C 
HETATM   36  C13 UNL     1      84.509  60.801  12.660  1.00  0.00     0.162 C 
ENDBRANCH  31  34
ENDBRANCH  28  31
ENDBRANCH   4  25
BRANCH   1  37
HETATM   37  C3  UNL     1      77.378  69.426  11.675  1.00  0.00     0.007 C 
HETATM   38  C2  UNL     1      76.629  69.829  12.666  1.00  0.00    -0.030 C 
HETATM   39  C1  UNL     1      75.947  71.171  12.538  1.00  0.00     0.036 C 
ENDBRANCH   1  37
TORSDOF 8
ENDMDL
