MODEL 1
REMARK VINA RESULT: -6.829254103      0.000      0.000
REMARK  8 active torsions:
REMARK  status: ('A' for Active; 'I' for Inactive)
REMARK    1  A    between atoms: C1_2  and  C2_3 
REMARK       I    between atoms: C1_2  and  N2_25 
REMARK    2  A    between atoms: C2_3  and  C3_4 
REMARK    3  A    between atoms: C3_4  and  O2_5 
REMARK    4  A    between atoms: N1_15  and  C12_16 
REMARK    5  A    between atoms: C12_16  and  C13_17 
REMARK    6  A    between atoms: N2_25  and  C19_27 
REMARK    7  A    between atoms: C19_27  and  C20_28 
REMARK    8  A    between atoms: C20_28  and  C21_29 
ROOT
HETATM    1  C3  UNL     1      79.762  61.635  13.598  1.00  0.00     0.146 C 
HETATM    2  C4  UNL     1      80.665  62.541  12.811  1.00  0.00     0.049 C 
HETATM    3  C5  UNL     1      79.944  63.116  11.603  1.00  0.00     0.014 C 
HETATM    4  C6  UNL     1      79.197  64.379  11.971  1.00  0.00    -0.024 C 
HETATM    5  C7  UNL     1      79.008  65.207  10.724  1.00  0.00     0.011 C 
HETATM    6  C8  UNL     1      78.603  66.550  11.303  1.00  0.00     0.001 C 
HETATM    7  C9  UNL     1      79.365  66.669  12.587  1.00  0.00     0.001 C 
HETATM    8  C10 UNL     1      79.961  65.289  12.869  1.00  0.00     0.011 C 
HETATM    9  C11 UNL     1      77.848  63.987  12.480  1.00  0.00     0.135 C 
HETATM   10  N1  UNL     1      77.857  63.425  13.818  1.00  0.00    -0.348 N 
HETATM   11  C18 UNL     1      78.802  62.519  14.359  1.00  0.00     0.255 C 
HETATM   12  O4  UNL     1      78.863  62.427  15.620  1.00  0.00    -0.270 OA
ENDROOT
BRANCH   1  13
HETATM   13  C2  UNL     1      80.452  60.669  14.488  1.00  0.00     0.150 C 
BRANCH  13  14
HETATM   14  C1  UNL     1      81.610  59.968  13.957  1.00  0.00     0.221 C 
HETATM   15  O1  UNL     1      81.560  59.123  13.049  1.00  0.00    -0.273 OA
HETATM   16  N2  UNL     1      82.901  60.250  14.492  1.00  0.00    -0.361 N 
ATOM     17  H2  UNL     1      82.985  60.939  15.239  1.00  0.00     0.162 HD
BRANCH  16  18
HETATM   18  C19 UNL     1      84.097  59.590  14.010  1.00  0.00     0.123 C 
BRANCH  18  19
HETATM   19  C20 UNL     1      84.839  60.510  13.075  1.00  0.00     0.029 C 
BRANCH  19  20
HETATM   20  C21 UNL     1      86.157  59.956  12.635  1.00  0.00    -0.038 C 
HETATM   21  C22 UNL     1      85.958  58.686  11.865  1.00  0.00     0.014 C 
HETATM   22  C23 UNL     1      87.289  58.082  11.460  1.00  0.00    -0.013 C 
HETATM   23  C24 UNL     1      88.043  57.719  12.709  1.00  0.00     0.009 C 
HETATM   24  C28 UNL     1      88.003  59.092  10.613  1.00  0.00     0.009 C 
HETATM   25  C25 UNL     1      88.238  58.991  13.511  1.00  0.00    -0.013 C 
HETATM   26  C26 UNL     1      89.074  59.930  12.680  1.00  0.00     0.009 C 
HETATM   27  C30 UNL     1      86.927  59.588  13.907  1.00  0.00     0.014 C 
HETATM   28  C27 UNL     1      88.274  60.316  11.446  1.00  0.00    -0.013 C 
HETATM   29  C29 UNL     1      86.996  60.964  11.889  1.00  0.00     0.014 C 
ENDBRANCH  19  20
ENDBRANCH  18  19
ENDBRANCH  16  18
ENDBRANCH  13  14
ENDBRANCH   1  13
BRANCH   1  30
HETATM   30  O2  UNL     1      78.964  60.872  12.708  1.00  0.00    -0.380 OA
ATOM     31  H2  UNL     1      78.067  60.952  13.010  1.00  0.00     0.211 HD
ENDBRANCH   1  30
BRANCH  10  32
HETATM   32  C12 UNL     1      76.765  63.849  14.654  1.00  0.00     0.130 C 
BRANCH  32  33
HETATM   33  C13 UNL     1      75.992  65.019  14.156  1.00  0.00     0.008 C 
HETATM   34  C14 UNL     1      76.269  66.280  14.942  1.00  0.00     0.032 C 
HETATM   35  C15 UNL     1      75.319  66.515  16.081  1.00  0.00     0.168 C 
HETATM   36  O3  UNL     1      73.990  66.461  15.641  1.00  0.00    -0.391 OA
HETATM   37  C16 UNL     1      73.768  65.127  15.311  1.00  0.00     0.168 C 
HETATM   38  C17 UNL     1      74.513  64.837  14.030  1.00  0.00     0.032 C 
ENDBRANCH  32  33
ENDBRANCH  10  32
TORSDOF 8
ENDMDL
MODEL 2
REMARK VINA RESULT: -6.673965553      5.247      8.089
REMARK  8 active torsions:
REMARK  status: ('A' for Active; 'I' for Inactive)
REMARK    1  A    between atoms: C1_2  and  C2_3 
REMARK       I    between atoms: C1_2  and  N2_25 
REMARK    2  A    between atoms: C2_3  and  C3_4 
REMARK    3  A    between atoms: C3_4  and  O2_5 
REMARK    4  A    between atoms: N1_15  and  C12_16 
REMARK    5  A    between atoms: C12_16  and  C13_17 
REMARK    6  A    between atoms: N2_25  and  C19_27 
REMARK    7  A    between atoms: C19_27  and  C20_28 
REMARK    8  A    between atoms: C20_28  and  C21_29 
ROOT
HETATM    1  C3  UNL     1      76.757  62.386  16.083  1.00  0.00     0.146 C 
HETATM    2  C4  UNL     1      75.663  61.495  16.596  1.00  0.00     0.049 C 
HETATM    3  C5  UNL     1      75.273  61.871  18.015  1.00  0.00     0.014 C 
HETATM    4  C6  UNL     1      74.222  62.961  18.016  1.00  0.00    -0.024 C 
HETATM    5  C7  UNL     1      73.461  62.894  19.317  1.00  0.00     0.011 C 
HETATM    6  C8  UNL     1      72.253  63.759  19.013  1.00  0.00     0.001 C 
HETATM    7  C9  UNL     1      71.959  63.525  17.563  1.00  0.00     0.001 C 
HETATM    8  C10 UNL     1      73.159  62.769  16.991  1.00  0.00     0.011 C 
HETATM    9  C11 UNL     1      74.923  64.278  17.952  1.00  0.00     0.135 C 
HETATM   10  N1  UNL     1      75.469  64.599  16.646  1.00  0.00    -0.348 N 
HETATM   11  C18 UNL     1      76.126  63.718  15.753  1.00  0.00     0.255 C 
HETATM   12  O4  UNL     1      76.202  64.070  14.540  1.00  0.00    -0.270 OA
ENDROOT
BRANCH   1  13
HETATM   13  C2  UNL     1      77.534  61.842  14.941  1.00  0.00     0.150 C 
BRANCH  13  14
HETATM   14  C1  UNL     1      78.792  62.493  14.608  1.00  0.00     0.221 C 
HETATM   15  O1  UNL     1      79.835  62.377  15.270  1.00  0.00    -0.273 OA
HETATM   16  N2  UNL     1      78.862  63.324  13.453  1.00  0.00    -0.361 N 
ATOM     17  H2  UNL     1      78.026  63.446  12.881  1.00  0.00     0.162 HD
BRANCH  16  18
HETATM   18  C19 UNL     1      80.081  64.003  13.062  1.00  0.00     0.123 C 
BRANCH  18  19
HETATM   19  C20 UNL     1      79.968  65.470  13.386  1.00  0.00     0.029 C 
BRANCH  19  20
HETATM   20  C21 UNL     1      79.182  66.233  12.368  1.00  0.00    -0.038 C 
HETATM   21  C22 UNL     1      79.027  65.426  11.116  1.00  0.00     0.014 C 
HETATM   22  C23 UNL     1      78.279  66.209  10.054  1.00  0.00    -0.013 C 
HETATM   23  C24 UNL     1      79.098  67.417   9.693  1.00  0.00     0.009 C 
HETATM   24  C28 UNL     1      76.933  66.555  10.614  1.00  0.00     0.009 C 
HETATM   25  C25 UNL     1      79.281  68.238  10.954  1.00  0.00    -0.013 C 
HETATM   26  C26 UNL     1      77.915  68.681  11.412  1.00  0.00     0.009 C 
HETATM   27  C30 UNL     1      80.013  67.466  12.002  1.00  0.00     0.014 C 
HETATM   28  C27 UNL     1      77.121  67.446  11.811  1.00  0.00    -0.013 C 
HETATM   29  C29 UNL     1      77.864  66.736  12.904  1.00  0.00     0.014 C 
ENDBRANCH  19  20
ENDBRANCH  18  19
ENDBRANCH  16  18
ENDBRANCH  13  14
ENDBRANCH   1  13
BRANCH   1  30
HETATM   30  O2  UNL     1      77.686  62.642  17.122  1.00  0.00    -0.380 OA
ATOM     31  H2  UNL     1      77.733  61.852  17.647  1.00  0.00     0.211 HD
ENDBRANCH   1  30
BRANCH  10  32
HETATM   32  C12 UNL     1      75.315  65.976  16.254  1.00  0.00     0.130 C 
BRANCH  32  33
HETATM   33  C13 UNL     1      73.988  66.338  15.687  1.00  0.00     0.008 C 
HETATM   34  C14 UNL     1      74.088  66.935  14.302  1.00  0.00     0.032 C 
HETATM   35  C15 UNL     1      74.173  68.434  14.284  1.00  0.00     0.168 C 
HETATM   36  O3  UNL     1      73.122  69.001  15.017  1.00  0.00    -0.391 OA
HETATM   37  C16 UNL     1      73.390  68.683  16.346  1.00  0.00     0.168 C 
HETATM   38  C17 UNL     1      73.117  67.210  16.532  1.00  0.00     0.032 C 
ENDBRANCH  32  33
ENDBRANCH  10  32
TORSDOF 8
ENDMDL
MODEL 3
REMARK VINA RESULT: -6.616157719      1.527      2.179
REMARK  8 active torsions:
REMARK  status: ('A' for Active; 'I' for Inactive)
REMARK    1  A    between atoms: C1_2  and  C2_3 
REMARK       I    between atoms: C1_2  and  N2_25 
REMARK    2  A    between atoms: C2_3  and  C3_4 
REMARK    3  A    between atoms: C3_4  and  O2_5 
REMARK    4  A    between atoms: N1_15  and  C12_16 
REMARK    5  A    between atoms: C12_16  and  C13_17 
REMARK    6  A    between atoms: N2_25  and  C19_27 
REMARK    7  A    between atoms: C19_27  and  C20_28 
REMARK    8  A    between atoms: C20_28  and  C21_29 
ROOT
HETATM    1  C3  UNL     1      80.215  60.856  12.917  1.00  0.00     0.146 C 
HETATM    2  C4  UNL     1      80.798  61.930  12.046  1.00  0.00     0.049 C 
HETATM    3  C5  UNL     1      79.705  62.725  11.352  1.00  0.00     0.014 C 
HETATM    4  C6  UNL     1      79.225  63.863  12.229  1.00  0.00    -0.024 C 
HETATM    5  C7  UNL     1      78.622  64.928  11.347  1.00  0.00     0.011 C 
HETATM    6  C8  UNL     1      78.544  66.108  12.297  1.00  0.00     0.001 C 
HETATM    7  C9  UNL     1      79.744  65.976  13.184  1.00  0.00     0.001 C 
HETATM    8  C10 UNL     1      80.324  64.585  12.929  1.00  0.00     0.011 C 
HETATM    9  C11 UNL     1      78.154  63.335  13.125  1.00  0.00     0.135 C 
HETATM   10  N1  UNL     1      78.641  62.506  14.212  1.00  0.00    -0.348 N 
HETATM   11  C18 UNL     1      79.669  61.534  14.151  1.00  0.00     0.255 C 
HETATM   12  O4  UNL     1      80.202  61.182  15.245  1.00  0.00    -0.270 OA
ENDROOT
BRANCH   1  13
HETATM   13  C2  UNL     1      81.137  59.744  13.256  1.00  0.00     0.150 C 
BRANCH  13  14
HETATM   14  C1  UNL     1      82.565  59.981  13.111  1.00  0.00     0.221 C 
HETATM   15  O1  UNL     1      83.199  59.802  12.059  1.00  0.00    -0.273 OA
HETATM   16  N2  UNL     1      83.310  60.450  14.231  1.00  0.00    -0.361 N 
ATOM     17  H2  UNL     1      82.826  60.610  15.114  1.00  0.00     0.162 HD
BRANCH  16  18
HETATM   18  C19 UNL     1      84.735  60.708  14.157  1.00  0.00     0.123 C 
BRANCH  18  19
HETATM   19  C20 UNL     1      85.493  59.451  14.496  1.00  0.00     0.029 C 
BRANCH  19  20
HETATM   20  C21 UNL     1      86.447  59.038  13.420  1.00  0.00    -0.038 C 
HETATM   21  C22 UNL     1      87.818  58.833  13.989  1.00  0.00     0.014 C 
HETATM   22  C23 UNL     1      88.809  58.468  12.900  1.00  0.00    -0.013 C 
HETATM   23  C24 UNL     1      88.904  59.623  11.941  1.00  0.00     0.009 C 
HETATM   24  C28 UNL     1      88.324  57.205  12.255  1.00  0.00     0.009 C 
HETATM   25  C25 UNL     1      87.520  59.857  11.369  1.00  0.00    -0.013 C 
HETATM   26  C26 UNL     1      87.123  58.614  10.613  1.00  0.00     0.009 C 
HETATM   27  C30 UNL     1      86.543  60.212  12.442  1.00  0.00     0.014 C 
HETATM   28  C27 UNL     1      86.991  57.472  11.609  1.00  0.00    -0.013 C 
HETATM   29  C29 UNL     1      85.960  57.847  12.632  1.00  0.00     0.014 C 
ENDBRANCH  19  20
ENDBRANCH  18  19
ENDBRANCH  16  18
ENDBRANCH  13  14
ENDBRANCH   1  13
BRANCH   1  30
HETATM   30  O2  UNL     1      79.097  60.274  12.267  1.00  0.00    -0.380 OA
ATOM     31  H2  UNL     1      78.912  60.813  11.508  1.00  0.00     0.211 HD
ENDBRANCH   1  30
BRANCH  10  32
HETATM   32  C12 UNL     1      77.976  62.716  15.472  1.00  0.00     0.130 C 
BRANCH  32  33
HETATM   33  C13 UNL     1      76.489  62.758  15.414  1.00  0.00     0.008 C 
HETATM   34  C14 UNL     1      75.920  64.046  15.961  1.00  0.00     0.032 C 
HETATM   35  C15 UNL     1      75.565  63.989  17.419  1.00  0.00     0.168 C 
HETATM   36  O3  UNL     1      74.727  62.898  17.686  1.00  0.00    -0.391 OA
HETATM   37  C16 UNL     1      75.526  61.772  17.509  1.00  0.00     0.168 C 
HETATM   38  C17 UNL     1      75.765  61.603  16.028  1.00  0.00     0.032 C 
ENDBRANCH  32  33
ENDBRANCH  10  32
TORSDOF 8
ENDMDL
MODEL 4
REMARK VINA RESULT: -6.610938433      1.310      2.001
REMARK  8 active torsions:
REMARK  status: ('A' for Active; 'I' for Inactive)
REMARK    1  A    between atoms: C1_2  and  C2_3 
REMARK       I    between atoms: C1_2  and  N2_25 
REMARK    2  A    between atoms: C2_3  and  C3_4 
REMARK    3  A    between atoms: C3_4  and  O2_5 
REMARK    4  A    between atoms: N1_15  and  C12_16 
REMARK    5  A    between atoms: C12_16  and  C13_17 
REMARK    6  A    between atoms: N2_25  and  C19_27 
REMARK    7  A    between atoms: C19_27  and  C20_28 
REMARK    8  A    between atoms: C20_28  and  C21_29 
ROOT
HETATM    1  C3  UNL     1      79.725  62.386  13.710  1.00  0.00     0.146 C 
HETATM    2  C4  UNL     1      80.301  63.659  13.159  1.00  0.00     0.049 C 
HETATM    3  C5  UNL     1      79.555  64.101  11.911  1.00  0.00     0.014 C 
HETATM    4  C6  UNL     1      78.350  64.943  12.272  1.00  0.00    -0.024 C 
HETATM    5  C7  UNL     1      78.002  65.815  11.092  1.00  0.00     0.011 C 
HETATM    6  C8  UNL     1      77.059  66.824  11.720  1.00  0.00     0.001 C 
HETATM    7  C9  UNL     1      77.573  67.026  13.113  1.00  0.00     0.001 C 
HETATM    8  C10 UNL     1      78.610  65.930  13.358  1.00  0.00     0.011 C 
HETATM    9  C11 UNL     1      77.202  64.022  12.527  1.00  0.00     0.135 C 
HETATM   10  N1  UNL     1      77.274  63.316  13.793  1.00  0.00    -0.348 N 
HETATM   11  C18 UNL     1      78.425  62.746  14.390  1.00  0.00     0.255 C 
HETATM   12  O4  UNL     1      78.377  62.504  15.632  1.00  0.00    -0.270 OA
ENDROOT
BRANCH   1  13
HETATM   13  C2  UNL     1      80.626  61.618  14.605  1.00  0.00     0.150 C 
BRANCH  13  14
HETATM   14  C1  UNL     1      82.023  61.498  14.217  1.00  0.00     0.221 C 
HETATM   15  O1  UNL     1      82.411  61.316  13.052  1.00  0.00    -0.273 OA
HETATM   16  N2  UNL     1      83.034  61.591  15.216  1.00  0.00    -0.361 N 
ATOM     17  H2  UNL     1      82.757  61.740  16.186  1.00  0.00     0.162 HD
BRANCH  16  18
HETATM   18  C19 UNL     1      84.444  61.480  14.900  1.00  0.00     0.123 C 
BRANCH  18  19
HETATM   19  C20 UNL     1      84.917  60.078  15.188  1.00  0.00     0.029 C 
BRANCH  19  20
HETATM   20  C21 UNL     1      85.368  59.352  13.961  1.00  0.00    -0.038 C 
HETATM   21  C22 UNL     1      86.673  58.662  14.213  1.00  0.00     0.014 C 
HETATM   22  C23 UNL     1      87.171  57.967  12.960  1.00  0.00    -0.013 C 
HETATM   23  C24 UNL     1      87.427  59.012  11.909  1.00  0.00     0.009 C 
HETATM   24  C28 UNL     1      86.130  56.967  12.555  1.00  0.00     0.009 C 
HETATM   25  C25 UNL     1      86.119  59.734  11.655  1.00  0.00    -0.013 C 
HETATM   26  C26 UNL     1      85.137  58.722  11.121  1.00  0.00     0.009 C 
HETATM   27  C30 UNL     1      85.626  60.415  12.889  1.00  0.00     0.014 C 
HETATM   28  C27 UNL     1      84.861  57.702  12.215  1.00  0.00    -0.013 C 
HETATM   29  C29 UNL     1      84.314  58.422  13.412  1.00  0.00     0.014 C 
ENDBRANCH  19  20
ENDBRANCH  18  19
ENDBRANCH  16  18
ENDBRANCH  13  14
ENDBRANCH   1  13
BRANCH   1  30
HETATM   30  O2  UNL     1      79.378  61.522  12.641  1.00  0.00    -0.380 OA
ATOM     31  H2  UNL     1      78.566  61.096  12.888  1.00  0.00     0.211 HD
ENDBRANCH   1  30
BRANCH  10  32
HETATM   32  C12 UNL     1      76.017  63.194  14.485  1.00  0.00     0.130 C 
BRANCH  32  33
HETATM   33  C13 UNL     1      75.272  64.465  14.691  1.00  0.00     0.008 C 
HETATM   34  C14 UNL     1      75.755  65.235  15.898  1.00  0.00     0.032 C 
HETATM   35  C15 UNL     1      75.000  64.934  17.161  1.00  0.00     0.168 C 
HETATM   36  O3  UNL     1      73.621  65.089  16.966  1.00  0.00    -0.391 OA
HETATM   37  C16 UNL     1      73.253  64.047  16.120  1.00  0.00     0.168 C 
HETATM   38  C17 UNL     1      73.781  64.363  14.741  1.00  0.00     0.032 C 
ENDBRANCH  32  33
ENDBRANCH  10  32
TORSDOF 8
ENDMDL
MODEL 5
REMARK VINA RESULT: -6.605201352      1.305      1.745
REMARK  8 active torsions:
REMARK  status: ('A' for Active; 'I' for Inactive)
REMARK    1  A    between atoms: C1_2  and  C2_3 
REMARK       I    between atoms: C1_2  and  N2_25 
REMARK    2  A    between atoms: C2_3  and  C3_4 
REMARK    3  A    between atoms: C3_4  and  O2_5 
REMARK    4  A    between atoms: N1_15  and  C12_16 
REMARK    5  A    between atoms: C12_16  and  C13_17 
REMARK    6  A    between atoms: N2_25  and  C19_27 
REMARK    7  A    between atoms: C19_27  and  C20_28 
REMARK    8  A    between atoms: C20_28  and  C21_29 
ROOT
HETATM    1  C3  UNL     1      80.227  62.290  13.639  1.00  0.00     0.146 C 
HETATM    2  C4  UNL     1      80.657  63.569  12.982  1.00  0.00     0.049 C 
HETATM    3  C5  UNL     1      79.750  63.915  11.814  1.00  0.00     0.014 C 
HETATM    4  C6  UNL     1      78.543  64.701  12.280  1.00  0.00    -0.024 C 
HETATM    5  C7  UNL     1      78.012  65.502  11.118  1.00  0.00     0.011 C 
HETATM    6  C8  UNL     1      77.085  66.480  11.815  1.00  0.00     0.001 C 
HETATM    7  C9  UNL     1      77.739  66.769  13.131  1.00  0.00     0.001 C 
HETATM    8  C10 UNL     1      78.863  65.745  13.294  1.00  0.00     0.011 C 
HETATM    9  C11 UNL     1      77.491  63.727  12.697  1.00  0.00     0.135 C 
HETATM   10  N1  UNL     1      77.749  63.080  13.971  1.00  0.00    -0.348 N 
HETATM   11  C18 UNL     1      78.992  62.602  14.451  1.00  0.00     0.255 C 
HETATM   12  O4  UNL     1      79.099  62.410  15.698  1.00  0.00    -0.270 OA
ENDROOT
BRANCH   1  13
HETATM   13  C2  UNL     1      81.269  61.613  14.452  1.00  0.00     0.150 C 
BRANCH  13  14
HETATM   14  C1  UNL     1      82.549  61.338  13.817  1.00  0.00     0.221 C 
HETATM   15  O1  UNL     1      83.611  61.909  14.112  1.00  0.00    -0.273 OA
HETATM   16  N2  UNL     1      82.620  60.356  12.788  1.00  0.00    -0.361 N 
ATOM     17  H2  UNL     1      81.769  59.865  12.515  1.00  0.00     0.162 HD
BRANCH  16  18
HETATM   18  C19 UNL     1      83.862  60.033  12.114  1.00  0.00     0.123 C 
BRANCH  18  19
HETATM   19  C20 UNL     1      84.567  58.930  12.860  1.00  0.00     0.029 C 
BRANCH  19  20
HETATM   20  C21 UNL     1      86.043  58.913  12.616  1.00  0.00    -0.038 C 
HETATM   21  C22 UNL     1      86.777  58.583  13.879  1.00  0.00     0.014 C 
HETATM   22  C23 UNL     1      88.278  58.617  13.660  1.00  0.00    -0.013 C 
HETATM   23  C24 UNL     1      88.669  60.020  13.284  1.00  0.00     0.009 C 
HETATM   24  C28 UNL     1      88.601  57.610  12.598  1.00  0.00     0.009 C 
HETATM   25  C25 UNL     1      87.920  60.378  12.016  1.00  0.00    -0.013 C 
HETATM   26  C26 UNL     1      88.372  59.429  10.936  1.00  0.00     0.009 C 
HETATM   27  C30 UNL     1      86.442  60.340  12.229  1.00  0.00     0.014 C 
HETATM   28  C27 UNL     1      87.928  58.025  11.317  1.00  0.00    -0.013 C 
HETATM   29  C29 UNL     1      86.435  58.021  11.464  1.00  0.00     0.014 C 
ENDBRANCH  19  20
ENDBRANCH  18  19
ENDBRANCH  16  18
ENDBRANCH  13  14
ENDBRANCH   1  13
BRANCH   1  30
HETATM   30  O2  UNL     1      79.817  61.363  12.649  1.00  0.00    -0.380 OA
ATOM     31  H2  UNL     1      79.813  61.831  11.822  1.00  0.00     0.211 HD
ENDBRANCH   1  30
BRANCH  10  32
HETATM   32  C12 UNL     1      76.587  62.914  14.806  1.00  0.00     0.130 C 
BRANCH  32  33
HETATM   33  C13 UNL     1      75.591  64.018  14.746  1.00  0.00     0.008 C 
HETATM   34  C14 UNL     1      75.820  65.069  15.807  1.00  0.00     0.032 C 
HETATM   35  C15 UNL     1      75.048  64.840  17.075  1.00  0.00     0.168 C 
HETATM   36  O3  UNL     1      73.684  64.668  16.803  1.00  0.00    -0.391 OA
HETATM   37  C16 UNL     1      73.594  63.442  16.149  1.00  0.00     0.168 C 
HETATM   38  C17 UNL     1      74.151  63.618  14.757  1.00  0.00     0.032 C 
ENDBRANCH  32  33
ENDBRANCH  10  32
TORSDOF 8
ENDMDL
