MODEL 1
REMARK VINA RESULT: -6.219863196      0.000      0.000
REMARK  7 active torsions:
REMARK  status: ('A' for Active; 'I' for Inactive)
REMARK    1  A    between atoms: C3_3  and  C5_5 
REMARK    2  A    between atoms: C10_12  and  C11_13 
REMARK    3  A    between atoms: C11_13  and  N2_14 
REMARK       I    between atoms: N2_14  and  C13_16 
REMARK    4  A    between atoms: C13_16  and  C14_18 
REMARK    5  A    between atoms: C14_18  and  C15_19 
REMARK    6  A    between atoms: C18_22  and  N3_23 
REMARK    7  A    between atoms: C25_30  and  C26_31 
ROOT
HETATM    1  C1  UNL     1      85.702  56.616  12.674  1.00  0.00     0.012 C 
HETATM    2  C2  UNL     1      85.909  57.577  13.381  1.00  0.00    -0.108 C 
HETATM    3  C3  UNL     1      86.150  58.732  14.257  1.00  0.00     0.093 C 
HETATM    4  C4  UNL     1      87.460  59.331  13.872  1.00  0.00     0.028 C 
ENDROOT
BRANCH   3   5
HETATM    5  C5  UNL     1      85.015  59.668  14.032  1.00  0.00    -0.042 A 
HETATM    6  C6  UNL     1      84.786  60.661  14.945  1.00  0.00     0.011 A 
HETATM    7  C7  UNL     1      83.727  61.548  14.751  1.00  0.00     0.031 A 
HETATM    8  C8  UNL     1      82.908  61.418  13.629  1.00  0.00     0.046 A 
HETATM    9  N1  UNL     1      81.880  62.255  13.412  1.00  0.00    -0.354 N 
HETATM   10  C29 UNL     1      83.136  60.417  12.704  1.00  0.00     0.042 A 
HETATM   11  C9  UNL     1      81.050  62.187  12.352  1.00  0.00     0.056 A 
ATOM     12  H1  UNL     1      81.715  62.994  14.097  1.00  0.00     0.166 HD
HETATM   13  C10 UNL     1      80.011  63.098  12.208  1.00  0.00    -0.013 A 
HETATM   14  C27 UNL     1      81.253  61.185  11.394  1.00  0.00     0.055 A 
HETATM   15  C23 UNL     1      79.199  62.983  11.113  1.00  0.00     0.012 A 
HETATM   16  C24 UNL     1      79.402  61.998  10.177  1.00  0.00     0.016 A 
HETATM   17  C25 UNL     1      80.439  61.065  10.290  1.00  0.00     0.016 A 
HETATM   18  C28 UNL     1      82.304  60.323  11.610  1.00  0.00     0.197 A 
HETATM   19  O2  UNL     1      82.530  59.414  10.791  1.00  0.00    -0.286 OA
HETATM   20  C30 UNL     1      84.195  59.566  12.941  1.00  0.00     0.026 A 
BRANCH  13  21
HETATM   21  C11 UNL     1      79.845  64.144  13.260  1.00  0.00     0.166 C 
BRANCH  21  22
HETATM   22  N2  UNL     1      78.459  64.276  13.662  1.00  0.00    -0.352 N 
HETATM   23  C12 UNL     1      77.675  65.356  13.056  1.00  0.00     0.152 C 
HETATM   24  C13 UNL     1      77.880  63.398  14.608  1.00  0.00     0.223 C 
HETATM   25  O1  UNL     1      76.674  63.555  14.921  1.00  0.00    -0.273 OA
BRANCH  24  26
HETATM   26  C14 UNL     1      78.706  62.317  15.206  1.00  0.00     0.141 C 
BRANCH  26  27
HETATM   27  C15 UNL     1      78.576  61.053  14.418  1.00  0.00    -0.049 A 
HETATM   28  C16 UNL     1      77.517  60.807  13.573  1.00  0.00     0.010 A 
HETATM   29  C17 UNL     1      77.426  59.615  12.853  1.00  0.00     0.030 A 
HETATM   30  C18 UNL     1      78.398  58.654  12.972  1.00  0.00     0.029 A 
HETATM   31  C21 UNL     1      79.457  58.916  13.826  1.00  0.00     0.030 A 
HETATM   32  C22 UNL     1      79.551  60.088  14.538  1.00  0.00     0.010 A 
BRANCH  30  33
HETATM   33  N3  UNL     1      78.380  57.432  12.283  1.00  0.00    -0.390 N 
HETATM   34  C19 UNL     1      77.325  57.131  11.344  1.00  0.00     0.149 C 
HETATM   35  C20 UNL     1      79.421  56.449  12.502  1.00  0.00     0.149 C 
ENDBRANCH  30  33
ENDBRANCH  26  27
ENDBRANCH  24  26
ENDBRANCH  21  22
ENDBRANCH  13  21
BRANCH  17  36
HETATM   36  C26 UNL     1      80.629  60.033   9.284  1.00  0.00     0.124 C 
HETATM   37  N4  UNL     1      80.046  58.742   9.427  1.00  0.00    -0.089 NA
HETATM   38  S1  UNL     1      81.532  60.299   7.947  1.00  0.00    -0.063 SA
ENDBRANCH  17  36
ENDBRANCH   3   5
TORSDOF 7
ENDMDL
MODEL 2
REMARK VINA RESULT: -6.055393313      4.746      9.329
REMARK  7 active torsions:
REMARK  status: ('A' for Active; 'I' for Inactive)
REMARK    1  A    between atoms: C3_3  and  C5_5 
REMARK    2  A    between atoms: C10_12  and  C11_13 
REMARK    3  A    between atoms: C11_13  and  N2_14 
REMARK       I    between atoms: N2_14  and  C13_16 
REMARK    4  A    between atoms: C13_16  and  C14_18 
REMARK    5  A    between atoms: C14_18  and  C15_19 
REMARK    6  A    between atoms: C18_22  and  N3_23 
REMARK    7  A    between atoms: C25_30  and  C26_31 
ROOT
HETATM    1  C1  UNL     1      73.562  62.984  22.403  1.00  0.00     0.012 C 
HETATM    2  C2  UNL     1      72.971  62.748  21.373  1.00  0.00    -0.108 C 
HETATM    3  C3  UNL     1      72.258  62.438  20.126  1.00  0.00     0.093 C 
HETATM    4  C4  UNL     1      71.090  63.359  20.027  1.00  0.00     0.028 C 
ENDROOT
BRANCH   3   5
HETATM    5  C5  UNL     1      73.236  62.650  19.024  1.00  0.00    -0.042 A 
HETATM    6  C6  UNL     1      73.973  61.586  18.581  1.00  0.00     0.011 A 
HETATM    7  C7  UNL     1      74.896  61.765  17.550  1.00  0.00     0.031 A 
HETATM    8  C8  UNL     1      75.061  63.027  16.976  1.00  0.00     0.046 A 
HETATM    9  N1  UNL     1      75.940  63.234  15.981  1.00  0.00    -0.354 N 
HETATM   10  C29 UNL     1      74.316  64.104  17.420  1.00  0.00     0.042 A 
HETATM   11  C9  UNL     1      76.149  64.423  15.384  1.00  0.00     0.056 A 
ATOM     12  H1  UNL     1      76.486  62.436  15.656  1.00  0.00     0.166 HD
HETATM   13  C10 UNL     1      77.081  64.545  14.360  1.00  0.00    -0.013 A 
HETATM   14  C27 UNL     1      75.412  65.536  15.808  1.00  0.00     0.055 A 
HETATM   15  C23 UNL     1      77.254  65.775  13.787  1.00  0.00     0.012 A 
HETATM   16  C24 UNL     1      76.528  66.864  14.208  1.00  0.00     0.016 A 
HETATM   17  C25 UNL     1      75.582  66.777  15.236  1.00  0.00     0.016 A 
HETATM   18  C28 UNL     1      74.510  65.332  16.827  1.00  0.00     0.197 A 
HETATM   19  O2  UNL     1      73.829  66.286  17.244  1.00  0.00    -0.286 OA
HETATM   20  C30 UNL     1      73.419  63.875  18.442  1.00  0.00     0.026 A 
BRANCH  13  21
HETATM   21  C11 UNL     1      77.835  63.324  13.949  1.00  0.00     0.166 C 
BRANCH  21  22
HETATM   22  N2  UNL     1      77.496  62.920  12.600  1.00  0.00    -0.352 N 
HETATM   23  C12 UNL     1      76.167  62.343  12.376  1.00  0.00     0.152 C 
HETATM   24  C13 UNL     1      78.414  63.072  11.533  1.00  0.00     0.223 C 
HETATM   25  O1  UNL     1      78.069  62.707  10.382  1.00  0.00    -0.273 OA
BRANCH  24  26
HETATM   26  C14 UNL     1      79.754  63.655  11.797  1.00  0.00     0.141 C 
BRANCH  26  27
HETATM   27  C15 UNL     1      80.711  62.600  12.254  1.00  0.00    -0.049 A 
HETATM   28  C16 UNL     1      80.898  61.419  11.572  1.00  0.00     0.010 A 
HETATM   29  C17 UNL     1      81.799  60.455  12.027  1.00  0.00     0.030 A 
HETATM   30  C18 UNL     1      82.525  60.666  13.173  1.00  0.00     0.029 A 
HETATM   31  C21 UNL     1      82.326  61.859  13.847  1.00  0.00     0.030 A 
HETATM   32  C22 UNL     1      81.439  62.812  13.403  1.00  0.00     0.010 A 
BRANCH  30  33
HETATM   33  N3  UNL     1      83.449  59.748  13.695  1.00  0.00    -0.390 N 
HETATM   34  C19 UNL     1      83.333  58.339  13.403  1.00  0.00     0.149 C 
HETATM   35  C20 UNL     1      84.537  60.200  14.536  1.00  0.00     0.149 C 
ENDBRANCH  30  33
ENDBRANCH  26  27
ENDBRANCH  24  26
ENDBRANCH  21  22
ENDBRANCH  13  21
BRANCH  17  36
HETATM   36  C26 UNL     1      74.830  67.947  15.660  1.00  0.00     0.124 C 
HETATM   37  N4  UNL     1      75.241  68.726  16.778  1.00  0.00    -0.089 NA
HETATM   38  S1  UNL     1      73.470  68.415  14.883  1.00  0.00    -0.063 SA
ENDBRANCH  17  36
ENDBRANCH   3   5
TORSDOF 7
ENDMDL
MODEL 3
REMARK VINA RESULT: -6.049907277      4.476      6.747
REMARK  7 active torsions:
REMARK  status: ('A' for Active; 'I' for Inactive)
REMARK    1  A    between atoms: C3_3  and  C5_5 
REMARK    2  A    between atoms: C10_12  and  C11_13 
REMARK    3  A    between atoms: C11_13  and  N2_14 
REMARK       I    between atoms: N2_14  and  C13_16 
REMARK    4  A    between atoms: C13_16  and  C14_18 
REMARK    5  A    between atoms: C14_18  and  C15_19 
REMARK    6  A    between atoms: C18_22  and  N3_23 
REMARK    7  A    between atoms: C25_30  and  C26_31 
ROOT
HETATM    1  C1  UNL     1      84.426  61.862  15.805  1.00  0.00     0.012 C 
HETATM    2  C2  UNL     1      83.765  61.683  14.806  1.00  0.00    -0.108 C 
HETATM    3  C3  UNL     1      82.971  61.487  13.585  1.00  0.00     0.093 C 
HETATM    4  C4  UNL     1      82.959  60.028  13.278  1.00  0.00     0.028 C 
ENDROOT
BRANCH   3   5
HETATM    5  C5  UNL     1      81.610  62.009  13.886  1.00  0.00    -0.042 A 
HETATM    6  C6  UNL     1      80.883  61.423  14.885  1.00  0.00     0.011 A 
HETATM    7  C7  UNL     1      79.605  61.897  15.181  1.00  0.00     0.031 A 
HETATM    8  C8  UNL     1      79.076  62.967  14.458  1.00  0.00     0.046 A 
HETATM    9  N1  UNL     1      77.849  63.450  14.718  1.00  0.00    -0.354 N 
HETATM   10  C29 UNL     1      79.808  63.564  13.448  1.00  0.00     0.042 A 
HETATM   11  C9  UNL     1      77.278  64.478  14.060  1.00  0.00     0.056 A 
ATOM     12  H1  UNL     1      77.313  63.007  15.465  1.00  0.00     0.166 HD
HETATM   13  C10 UNL     1      76.001  64.911  14.398  1.00  0.00    -0.013 A 
HETATM   14  C27 UNL     1      77.991  65.106  13.031  1.00  0.00     0.055 A 
HETATM   15  C23 UNL     1      75.469  65.959  13.698  1.00  0.00     0.012 A 
HETATM   16  C24 UNL     1      76.173  66.571  12.689  1.00  0.00     0.016 A 
HETATM   17  C25 UNL     1      77.461  66.161  12.323  1.00  0.00     0.016 A 
HETATM   18  C28 UNL     1      79.249  64.617  12.759  1.00  0.00     0.197 A 
HETATM   19  O2  UNL     1      79.926  65.137  11.854  1.00  0.00    -0.286 OA
HETATM   20  C30 UNL     1      81.065  63.057  13.194  1.00  0.00     0.026 A 
BRANCH  13  21
HETATM   21  C11 UNL     1      75.291  64.203  15.503  1.00  0.00     0.166 C 
BRANCH  21  22
HETATM   22  N2  UNL     1      74.842  62.889  15.090  1.00  0.00    -0.352 N 
HETATM   23  C12 UNL     1      74.129  62.784  13.813  1.00  0.00     0.152 C 
HETATM   24  C13 UNL     1      75.080  61.745  15.888  1.00  0.00     0.223 C 
HETATM   25  O1  UNL     1      74.672  60.629  15.483  1.00  0.00    -0.273 OA
BRANCH  24  26
HETATM   26  C14 UNL     1      75.802  61.889  17.179  1.00  0.00     0.141 C 
BRANCH  26  27
HETATM   27  C15 UNL     1      74.845  62.166  18.294  1.00  0.00    -0.049 A 
HETATM   28  C16 UNL     1      73.505  61.856  18.219  1.00  0.00     0.010 A 
HETATM   29  C17 UNL     1      72.639  62.128  19.279  1.00  0.00     0.030 A 
HETATM   30  C18 UNL     1      73.107  62.715  20.428  1.00  0.00     0.029 A 
HETATM   31  C21 UNL     1      74.456  63.021  20.487  1.00  0.00     0.030 A 
HETATM   32  C22 UNL     1      75.314  62.755  19.446  1.00  0.00     0.010 A 
BRANCH  30  33
HETATM   33  N3  UNL     1      72.301  63.021  21.535  1.00  0.00    -0.390 N 
HETATM   34  C19 UNL     1      70.946  63.484  21.356  1.00  0.00     0.149 C 
HETATM   35  C20 UNL     1      72.817  62.876  22.881  1.00  0.00     0.149 C 
ENDBRANCH  30  33
ENDBRANCH  26  27
ENDBRANCH  24  26
ENDBRANCH  21  22
ENDBRANCH  13  21
BRANCH  17  36
HETATM   36  C26 UNL     1      78.181  66.828  11.251  1.00  0.00     0.124 C 
HETATM   37  N4  UNL     1      79.075  67.903  11.516  1.00  0.00    -0.089 NA
HETATM   38  S1  UNL     1      77.987  66.388   9.688  1.00  0.00    -0.063 SA
ENDBRANCH  17  36
ENDBRANCH   3   5
TORSDOF 7
ENDMDL
MODEL 4
REMARK VINA RESULT: -6.005327500      3.550      8.134
REMARK  7 active torsions:
REMARK  status: ('A' for Active; 'I' for Inactive)
REMARK    1  A    between atoms: C3_3  and  C5_5 
REMARK    2  A    between atoms: C10_12  and  C11_13 
REMARK    3  A    between atoms: C11_13  and  N2_14 
REMARK       I    between atoms: N2_14  and  C13_16 
REMARK    4  A    between atoms: C13_16  and  C14_18 
REMARK    5  A    between atoms: C14_18  and  C15_19 
REMARK    6  A    between atoms: C18_22  and  N3_23 
REMARK    7  A    between atoms: C25_30  and  C26_31 
ROOT
HETATM    1  C1  UNL     1      75.446  63.711  20.880  1.00  0.00     0.012 C 
HETATM    2  C2  UNL     1      74.936  63.361  19.838  1.00  0.00    -0.108 C 
HETATM    3  C3  UNL     1      74.324  62.914  18.579  1.00  0.00     0.093 C 
HETATM    4  C4  UNL     1      73.089  63.719  18.361  1.00  0.00     0.028 C 
ENDROOT
BRANCH   3   5
HETATM    5  C5  UNL     1      75.342  63.145  17.518  1.00  0.00    -0.042 A 
HETATM    6  C6  UNL     1      76.356  62.240  17.366  1.00  0.00     0.011 A 
HETATM    7  C7  UNL     1      77.319  62.440  16.377  1.00  0.00     0.031 A 
HETATM    8  C8  UNL     1      77.244  63.561  15.549  1.00  0.00     0.046 A 
HETATM    9  N1  UNL     1      78.155  63.784  14.587  1.00  0.00    -0.354 N 
HETATM   10  C29 UNL     1      76.220  64.478  15.699  1.00  0.00     0.042 A 
HETATM   11  C9  UNL     1      78.142  64.844  13.755  1.00  0.00     0.056 A 
ATOM     12  H1  UNL     1      78.908  63.105  14.479  1.00  0.00     0.166 HD
HETATM   13  C10 UNL     1      79.127  64.994  12.786  1.00  0.00    -0.013 A 
HETATM   14  C27 UNL     1      77.118  65.793  13.878  1.00  0.00     0.055 A 
HETATM   15  C23 UNL     1      79.066  66.087  11.967  1.00  0.00     0.012 A 
HETATM   16  C24 UNL     1      78.060  67.016  12.093  1.00  0.00     0.016 A 
HETATM   17  C25 UNL     1      77.052  66.895  13.057  1.00  0.00     0.016 A 
HETATM   18  C28 UNL     1      76.182  65.571  14.862  1.00  0.00     0.197 A 
HETATM   19  O2  UNL     1      75.251  66.382  15.016  1.00  0.00    -0.286 OA
HETATM   20  C30 UNL     1      75.293  64.235  16.691  1.00  0.00     0.026 A 
BRANCH  13  21
HETATM   21  C11 UNL     1      80.191  63.950  12.701  1.00  0.00     0.166 C 
BRANCH  21  22
HETATM   22  N2  UNL     1      79.757  62.814  11.915  1.00  0.00    -0.352 N 
HETATM   23  C12 UNL     1      79.278  63.071  10.554  1.00  0.00     0.152 C 
HETATM   24  C13 UNL     1      79.791  61.499  12.440  1.00  0.00     0.223 C 
HETATM   25  O1  UNL     1      79.406  60.549  11.715  1.00  0.00    -0.273 OA
BRANCH  24  26
HETATM   26  C14 UNL     1      80.279  61.276  13.825  1.00  0.00     0.141 C 
BRANCH  26  27
HETATM   27  C15 UNL     1      81.660  60.702  13.815  1.00  0.00    -0.049 A 
HETATM   28  C16 UNL     1      82.792  61.484  13.840  1.00  0.00     0.010 A 
HETATM   29  C17 UNL     1      84.066  60.915  13.829  1.00  0.00     0.030 A 
HETATM   30  C18 UNL     1      84.220  59.552  13.793  1.00  0.00     0.029 A 
HETATM   31  C21 UNL     1      83.071  58.778  13.767  1.00  0.00     0.030 A 
HETATM   32  C22 UNL     1      81.814  59.334  13.778  1.00  0.00     0.010 A 
BRANCH  30  33
HETATM   33  N3  UNL     1      85.464  58.903  13.779  1.00  0.00    -0.390 N 
HETATM   34  C19 UNL     1      86.666  59.609  14.153  1.00  0.00     0.149 C 
HETATM   35  C20 UNL     1      85.564  57.512  13.390  1.00  0.00     0.149 C 
ENDBRANCH  30  33
ENDBRANCH  26  27
ENDBRANCH  24  26
ENDBRANCH  21  22
ENDBRANCH  13  21
BRANCH  17  36
HETATM   36  C26 UNL     1      76.001  67.894  13.166  1.00  0.00     0.124 C 
HETATM   37  N4  UNL     1      74.767  67.750  12.471  1.00  0.00    -0.089 NA
HETATM   38  S1  UNL     1      76.189  69.237  14.080  1.00  0.00    -0.063 SA
ENDBRANCH  17  36
ENDBRANCH   3   5
TORSDOF 7
ENDMDL
MODEL 5
REMARK VINA RESULT: -5.982731128      4.205      8.841
REMARK  7 active torsions:
REMARK  status: ('A' for Active; 'I' for Inactive)
REMARK    1  A    between atoms: C3_3  and  C5_5 
REMARK    2  A    between atoms: C10_12  and  C11_13 
REMARK    3  A    between atoms: C11_13  and  N2_14 
REMARK       I    between atoms: N2_14  and  C13_16 
REMARK    4  A    between atoms: C13_16  and  C14_18 
REMARK    5  A    between atoms: C14_18  and  C15_19 
REMARK    6  A    between atoms: C18_22  and  N3_23 
REMARK    7  A    between atoms: C25_30  and  C26_31 
ROOT
HETATM    1  C1  UNL     1      71.479  61.596  19.936  1.00  0.00     0.012 C 
HETATM    2  C2  UNL     1      72.356  62.404  20.153  1.00  0.00    -0.108 C 
HETATM    3  C3  UNL     1      73.405  63.401  20.405  1.00  0.00     0.093 C 
HETATM    4  C4  UNL     1      74.028  63.085  21.722  1.00  0.00     0.028 C 
ENDROOT
BRANCH   3   5
HETATM    5  C5  UNL     1      74.374  63.278  19.281  1.00  0.00    -0.042 A 
HETATM    6  C6  UNL     1      75.251  62.228  19.277  1.00  0.00     0.011 A 
HETATM    7  C7  UNL     1      76.167  62.096  18.233  1.00  0.00     0.031 A 
HETATM    8  C8  UNL     1      76.183  63.034  17.199  1.00  0.00     0.046 A 
HETATM    9  N1  UNL     1      77.051  62.937  16.178  1.00  0.00    -0.354 N 
HETATM   10  C29 UNL     1      75.297  64.096  17.200  1.00  0.00     0.042 A 
HETATM   11  C9  UNL     1      77.121  63.805  15.150  1.00  0.00     0.056 A 
ATOM     12  H1  UNL     1      77.702  62.151  16.182  1.00  0.00     0.166 HD
HETATM   13  C10 UNL     1      78.053  63.625  14.135  1.00  0.00    -0.013 A 
HETATM   14  C27 UNL     1      76.238  64.892  15.118  1.00  0.00     0.055 A 
HETATM   15  C23 UNL     1      78.080  64.536  13.116  1.00  0.00     0.012 A 
HETATM   16  C24 UNL     1      77.212  65.601  13.089  1.00  0.00     0.016 A 
HETATM   17  C25 UNL     1      76.262  65.812  14.095  1.00  0.00     0.016 A 
HETATM   18  C28 UNL     1      75.346  64.999  16.161  1.00  0.00     0.197 A 
HETATM   19  O2  UNL     1      74.540  65.946  16.183  1.00  0.00    -0.286 OA
HETATM   20  C30 UNL     1      74.413  64.182  18.254  1.00  0.00     0.026 A 
BRANCH  13  21
HETATM   21  C11 UNL     1      78.966  62.448  14.223  1.00  0.00     0.166 C 
BRANCH  21  22
HETATM   22  N2  UNL     1      78.634  61.444  13.232  1.00  0.00    -0.352 N 
HETATM   23  C12 UNL     1      77.428  60.641  13.454  1.00  0.00     0.152 C 
HETATM   24  C13 UNL     1      79.445  61.242  12.089  1.00  0.00     0.223 C 
HETATM   25  O1  UNL     1      79.111  60.360  11.260  1.00  0.00    -0.273 OA
BRANCH  24  26
HETATM   26  C14 UNL     1      80.663  62.070  11.899  1.00  0.00     0.141 C 
BRANCH  26  27
HETATM   27  C15 UNL     1      81.820  61.494  12.652  1.00  0.00    -0.049 A 
HETATM   28  C16 UNL     1      82.464  60.342  12.259  1.00  0.00     0.010 A 
HETATM   29  C17 UNL     1      83.541  59.831  12.986  1.00  0.00     0.030 A 
HETATM   30  C18 UNL     1      83.984  60.470  14.117  1.00  0.00     0.029 A 
HETATM   31  C21 UNL     1      83.325  61.627  14.498  1.00  0.00     0.030 A 
HETATM   32  C22 UNL     1      82.264  62.134  13.786  1.00  0.00     0.010 A 
BRANCH  30  33
HETATM   33  N3  UNL     1      85.057  60.021  14.901  1.00  0.00    -0.390 N 
HETATM   34  C19 UNL     1      86.023  59.093  14.364  1.00  0.00     0.149 C 
HETATM   35  C20 UNL     1      85.214  60.482  16.264  1.00  0.00     0.149 C 
ENDBRANCH  30  33
ENDBRANCH  26  27
ENDBRANCH  24  26
ENDBRANCH  21  22
ENDBRANCH  13  21
BRANCH  17  36
HETATM   36  C26 UNL     1      75.357  66.949  14.039  1.00  0.00     0.124 C 
HETATM   37  N4  UNL     1      74.072  66.845  13.436  1.00  0.00    -0.089 NA
HETATM   38  S1  UNL     1      75.776  68.406  14.653  1.00  0.00    -0.063 SA
ENDBRANCH  17  36
ENDBRANCH   3   5
TORSDOF 7
ENDMDL
