MODEL 1
REMARK VINA RESULT: -7.123244051      0.000      0.000
REMARK  11 active torsions:
REMARK  status: ('A' for Active; 'I' for Inactive)
REMARK    1  A    between atoms: C5_5  and  C6_6 
REMARK    2  A    between atoms: C6_6  and  C7_7 
REMARK    3  A    between atoms: C7_7  and  C8_8 
REMARK    4  A    between atoms: C8_8  and  O1_9 
REMARK    5  A    between atoms: C8_8  and  N1_11 
REMARK    6  A    between atoms: N1_11  and  C10_13 
REMARK    7  A    between atoms: C10_13  and  C11_14 
REMARK       I    between atoms: C11_14  and  N2_16 
REMARK    8  A    between atoms: N2_16  and  C12_18 
REMARK    9  A    between atoms: C22_28  and  N3_29 
REMARK       I    between atoms: N3_29  and  C23_31 
REMARK   10  A    between atoms: C23_31  and  C24_33 
REMARK   11  A    between atoms: N4_37  and  O4_38 
ROOT
HETATM    1  C6  UNL     1      79.959  65.303  13.079  1.00  0.00     0.018 C 
ENDROOT
BRANCH   1   2
HETATM    2  C5  UNL     1      78.979  66.301  12.698  1.00  0.00    -0.009 A 
HETATM    3  C4  UNL     1      79.217  66.901  11.448  1.00  0.00     0.014 A 
HETATM    4  C3  UNL     1      78.379  67.869  10.956  1.00  0.00     0.007 A 
HETATM    5  C2  UNL     1      77.280  68.288  11.660  1.00  0.00    -0.060 A 
HETATM    6  C1  UNL     1      76.365  69.337  11.144  1.00  0.00     0.048 C 
HETATM    7  C30 UNL     1      77.057  67.678  12.899  1.00  0.00     0.037 A 
HETATM    8  C22 UNL     1      77.878  66.701  13.421  1.00  0.00     0.045 A 
BRANCH   8   9
HETATM    9  N3  UNL     1      77.435  66.026  14.572  1.00  0.00    -0.322 N 
HETATM   10  C23 UNL     1      76.591  64.927  14.693  1.00  0.00     0.258 C 
HETATM   11  O3  UNL     1      76.113  64.468  13.579  1.00  0.00    -0.267 OA
ATOM     12  H3  UNL     1      77.786  66.398  15.454  1.00  0.00     0.169 HD
BRANCH  10  13
HETATM   13  C24 UNL     1      76.157  64.220  15.859  1.00  0.00     0.057 A 
HETATM   14  C25 UNL     1      76.640  62.904  16.014  1.00  0.00     0.020 A 
HETATM   15  C26 UNL     1      76.223  62.138  17.071  1.00  0.00     0.021 A 
HETATM   16  C27 UNL     1      75.332  62.606  18.009  1.00  0.00     0.123 A 
HETATM   17  N4  UNL     1      74.886  63.854  17.849  1.00  0.00    -0.240 N 
HETATM   18  C28 UNL     1      75.288  64.638  16.805  1.00  0.00     0.051 A 
HETATM   19  C29 UNL     1      74.753  66.028  16.789  1.00  0.00     0.072 C 
BRANCH  17  20
HETATM   20  O4  UNL     1      73.988  64.351  18.782  1.00  0.00    -0.283 OA
ATOM     21  H4  UNL     1      74.031  65.275  18.996  1.00  0.00     0.245 HD
ENDBRANCH  17  20
ENDBRANCH  10  13
ENDBRANCH   8   9
ENDBRANCH   1   2
BRANCH   1  22
HETATM   22  C7  UNL     1      80.080  64.074  12.683  1.00  0.00     0.056 C 
BRANCH  22  23
HETATM   23  C8  UNL     1      79.466  62.854  13.084  1.00  0.00     0.137 C 
BRANCH  23  24
HETATM   24  O1  UNL     1      78.243  62.709  12.583  1.00  0.00    -0.346 OA
ATOM     25  H1  UNL     1      77.565  62.971  13.195  1.00  0.00     0.219 HD
ENDBRANCH  23  24
BRANCH  23  26
HETATM   26  N1  UNL     1      79.853  61.788  13.876  1.00  0.00    -0.358 N 
HETATM   27  C9  UNL     1      79.104  60.511  13.652  1.00  0.00     0.152 C 
BRANCH  26  28
HETATM   28  C10 UNL     1      80.880  61.802  14.850  1.00  0.00     0.227 C 
BRANCH  28  29
HETATM   29  C11 UNL     1      82.216  61.374  14.365  1.00  0.00     0.240 C 
HETATM   30  O2  UNL     1      82.899  62.212  13.731  1.00  0.00    -0.271 OA
HETATM   31  N2  UNL     1      82.733  60.091  14.584  1.00  0.00    -0.325 N 
ATOM     32  H2  UNL     1      82.158  59.427  15.103  1.00  0.00     0.169 HD
BRANCH  31  33
HETATM   33  C12 UNL     1      84.005  59.654  14.132  1.00  0.00     0.047 A 
HETATM   34  C13 UNL     1      85.132  59.908  14.923  1.00  0.00    -0.034 A 
HETATM   35  C14 UNL     1      84.983  60.624  16.217  1.00  0.00     0.050 C 
HETATM   36  C15 UNL     1      86.395  59.512  14.538  1.00  0.00     0.016 A 
HETATM   37  C16 UNL     1      86.551  58.843  13.335  1.00  0.00    -0.055 A 
HETATM   38  C17 UNL     1      87.943  58.425  12.945  1.00  0.00     0.049 C 
HETATM   39  C18 UNL     1      85.462  58.574  12.527  1.00  0.00    -0.048 A 
HETATM   40  C19 UNL     1      85.673  57.855  11.243  1.00  0.00     0.049 C 
HETATM   41  C20 UNL     1      84.224  58.989  12.953  1.00  0.00    -0.028 A 
HETATM   42  C21 UNL     1      83.067  58.694  12.078  1.00  0.00     0.051 C 
ENDBRANCH  31  33
ENDBRANCH  28  29
ENDBRANCH  26  28
ENDBRANCH  23  26
ENDBRANCH  22  23
ENDBRANCH   1  22
TORSDOF 11
ENDMDL
MODEL 2
REMARK VINA RESULT: -7.030391614      2.579      8.527
REMARK  11 active torsions:
REMARK  status: ('A' for Active; 'I' for Inactive)
REMARK    1  A    between atoms: C5_5  and  C6_6 
REMARK    2  A    between atoms: C6_6  and  C7_7 
REMARK    3  A    between atoms: C7_7  and  C8_8 
REMARK    4  A    between atoms: C8_8  and  O1_9 
REMARK    5  A    between atoms: C8_8  and  N1_11 
REMARK    6  A    between atoms: N1_11  and  C10_13 
REMARK    7  A    between atoms: C10_13  and  C11_14 
REMARK       I    between atoms: C11_14  and  N2_16 
REMARK    8  A    between atoms: N2_16  and  C12_18 
REMARK    9  A    between atoms: C22_28  and  N3_29 
REMARK       I    between atoms: N3_29  and  C23_31 
REMARK   10  A    between atoms: C23_31  and  C24_33 
REMARK   11  A    between atoms: N4_37  and  O4_38 
ROOT
HETATM    1  C6  UNL     1      79.708  60.810  11.859  1.00  0.00     0.018 C 
ENDROOT
BRANCH   1   2
HETATM    2  C5  UNL     1      79.648  62.228  12.155  1.00  0.00    -0.009 A 
HETATM    3  C4  UNL     1      78.414  62.833  11.852  1.00  0.00     0.014 A 
HETATM    4  C3  UNL     1      78.209  64.171  12.070  1.00  0.00     0.007 A 
HETATM    5  C2  UNL     1      79.194  64.970  12.592  1.00  0.00    -0.060 A 
HETATM    6  C1  UNL     1      78.990  66.420  12.832  1.00  0.00     0.048 C 
HETATM    7  C30 UNL     1      80.413  64.350  12.891  1.00  0.00     0.037 A 
HETATM    8  C22 UNL     1      80.651  63.007  12.685  1.00  0.00     0.045 A 
BRANCH   8   9
HETATM    9  N3  UNL     1      81.838  62.469  13.214  1.00  0.00    -0.322 N 
HETATM   10  C23 UNL     1      82.070  61.856  14.440  1.00  0.00     0.258 C 
HETATM   11  O3  UNL     1      81.048  61.794  15.234  1.00  0.00    -0.267 OA
ATOM     12  H3  UNL     1      82.653  62.538  12.605  1.00  0.00     0.169 HD
BRANCH  10  13
HETATM   13  C24 UNL     1      83.269  61.284  14.973  1.00  0.00     0.057 A 
HETATM   14  C25 UNL     1      83.878  61.978  16.039  1.00  0.00     0.020 A 
HETATM   15  C26 UNL     1      85.062  61.531  16.565  1.00  0.00     0.021 A 
HETATM   16  C27 UNL     1      85.698  60.408  16.088  1.00  0.00     0.123 A 
HETATM   17  N4  UNL     1      85.107  59.761  15.080  1.00  0.00    -0.240 N 
HETATM   18  C28 UNL     1      83.927  60.187  14.540  1.00  0.00     0.051 A 
HETATM   19  C29 UNL     1      83.357  59.332  13.462  1.00  0.00     0.072 C 
BRANCH  17  20
HETATM   20  O4  UNL     1      85.727  58.626  14.581  1.00  0.00    -0.283 OA
ATOM     21  H4  UNL     1      85.599  58.413  13.664  1.00  0.00     0.245 HD
ENDBRANCH  17  20
ENDBRANCH  10  13
ENDBRANCH   8   9
ENDBRANCH   1   2
BRANCH   1  22
HETATM   22  C7  UNL     1      78.745  59.945  11.774  1.00  0.00     0.056 C 
BRANCH  22  23
HETATM   23  C8  UNL     1      77.686  59.574  12.650  1.00  0.00     0.137 C 
BRANCH  23  24
HETATM   24  O1  UNL     1      78.123  59.194  13.848  1.00  0.00    -0.346 OA
ATOM     25  H1  UNL     1      77.429  58.843  14.394  1.00  0.00     0.219 HD
ENDBRANCH  23  24
BRANCH  23  26
HETATM   26  N1  UNL     1      76.308  59.520  12.537  1.00  0.00    -0.358 N 
HETATM   27  C9  UNL     1      75.722  58.146  12.436  1.00  0.00     0.152 C 
BRANCH  26  28
HETATM   28  C10 UNL     1      75.428  60.628  12.519  1.00  0.00     0.227 C 
BRANCH  28  29
HETATM   29  C11 UNL     1      75.341  61.385  13.793  1.00  0.00     0.240 C 
HETATM   30  O2  UNL     1      74.958  62.577  13.736  1.00  0.00    -0.271 OA
HETATM   31  N2  UNL     1      75.667  60.828  15.036  1.00  0.00    -0.325 N 
ATOM     32  H2  UNL     1      75.976  59.857  15.058  1.00  0.00     0.169 HD
BRANCH  31  33
HETATM   33  C12 UNL     1      75.593  61.528  16.269  1.00  0.00     0.047 A 
HETATM   34  C13 UNL     1      76.678  62.319  16.667  1.00  0.00    -0.034 A 
HETATM   35  C14 UNL     1      77.881  62.418  15.800  1.00  0.00     0.050 C 
HETATM   36  C15 UNL     1      76.669  63.021  17.854  1.00  0.00     0.016 A 
HETATM   37  C16 UNL     1      75.554  62.940  18.673  1.00  0.00    -0.055 A 
HETATM   38  C17 UNL     1      75.577  63.719  19.961  1.00  0.00     0.049 C 
HETATM   39  C18 UNL     1      74.464  62.169  18.313  1.00  0.00    -0.048 A 
HETATM   40  C19 UNL     1      73.288  62.110  19.221  1.00  0.00     0.049 C 
HETATM   41  C20 UNL     1      74.520  61.489  17.122  1.00  0.00    -0.028 A 
HETATM   42  C21 UNL     1      73.346  60.667  16.749  1.00  0.00     0.051 C 
ENDBRANCH  31  33
ENDBRANCH  28  29
ENDBRANCH  26  28
ENDBRANCH  23  26
ENDBRANCH  22  23
ENDBRANCH   1  22
TORSDOF 11
ENDMDL
MODEL 3
REMARK VINA RESULT: -7.025324792      3.083      5.547
REMARK  11 active torsions:
REMARK  status: ('A' for Active; 'I' for Inactive)
REMARK    1  A    between atoms: C5_5  and  C6_6 
REMARK    2  A    between atoms: C6_6  and  C7_7 
REMARK    3  A    between atoms: C7_7  and  C8_8 
REMARK    4  A    between atoms: C8_8  and  O1_9 
REMARK    5  A    between atoms: C8_8  and  N1_11 
REMARK    6  A    between atoms: N1_11  and  C10_13 
REMARK    7  A    between atoms: C10_13  and  C11_14 
REMARK       I    between atoms: C11_14  and  N2_16 
REMARK    8  A    between atoms: N2_16  and  C12_18 
REMARK    9  A    between atoms: C22_28  and  N3_29 
REMARK       I    between atoms: N3_29  and  C23_31 
REMARK   10  A    between atoms: C23_31  and  C24_33 
REMARK   11  A    between atoms: N4_37  and  O4_38 
ROOT
HETATM    1  C6  UNL     1      79.472  64.752  13.417  1.00  0.00     0.018 C 
ENDROOT
BRANCH   1   2
HETATM    2  C5  UNL     1      79.934  63.394  13.626  1.00  0.00    -0.009 A 
HETATM    3  C4  UNL     1      80.937  62.978  12.731  1.00  0.00     0.014 A 
HETATM    4  C3  UNL     1      81.468  61.715  12.801  1.00  0.00     0.007 A 
HETATM    5  C2  UNL     1      81.045  60.812  13.741  1.00  0.00    -0.060 A 
HETATM    6  C1  UNL     1      81.607  59.441  13.828  1.00  0.00     0.048 C 
HETATM    7  C30 UNL     1      80.050  61.245  14.625  1.00  0.00     0.037 A 
HETATM    8  C22 UNL     1      79.496  62.507  14.584  1.00  0.00     0.045 A 
BRANCH   8   9
HETATM    9  N3  UNL     1      78.659  62.885  15.648  1.00  0.00    -0.322 N 
HETATM   10  C23 UNL     1      77.278  62.786  15.775  1.00  0.00     0.258 C 
HETATM   11  O3  UNL     1      76.658  62.299  14.746  1.00  0.00    -0.267 OA
ATOM     12  H3  UNL     1      79.138  63.294  16.450  1.00  0.00     0.169 HD
BRANCH  10  13
HETATM   13  C24 UNL     1      76.423  63.145  16.865  1.00  0.00     0.057 A 
HETATM   14  C25 UNL     1      76.329  62.218  17.924  1.00  0.00     0.020 A 
HETATM   15  C26 UNL     1      75.485  62.458  18.976  1.00  0.00     0.021 A 
HETATM   16  C27 UNL     1      74.705  63.589  19.047  1.00  0.00     0.123 A 
HETATM   17  N4  UNL     1      74.807  64.457  18.038  1.00  0.00    -0.240 N 
HETATM   18  C28 UNL     1      75.642  64.241  16.979  1.00  0.00     0.051 A 
HETATM   19  C29 UNL     1      75.694  65.325  15.958  1.00  0.00     0.072 C 
BRANCH  17  20
HETATM   20  O4  UNL     1      74.032  65.606  18.086  1.00  0.00    -0.283 OA
ATOM     21  H4  UNL     1      74.441  66.409  18.388  1.00  0.00     0.245 HD
ENDBRANCH  17  20
ENDBRANCH  10  13
ENDBRANCH   8   9
ENDBRANCH   1   2
BRANCH   1  22
HETATM   22  C7  UNL     1      78.336  65.173  12.954  1.00  0.00     0.056 C 
BRANCH  22  23
HETATM   23  C8  UNL     1      77.368  64.605  12.079  1.00  0.00     0.137 C 
BRANCH  23  24
HETATM   24  O1  UNL     1      76.202  64.384  12.682  1.00  0.00    -0.346 OA
ATOM     25  H1  UNL     1      76.296  63.885  13.485  1.00  0.00     0.219 HD
ENDBRANCH  23  24
BRANCH  23  26
HETATM   26  N1  UNL     1      77.364  64.230  10.747  1.00  0.00    -0.358 N 
HETATM   27  C9  UNL     1      78.338  64.954   9.870  1.00  0.00     0.152 C 
BRANCH  26  28
HETATM   28  C10 UNL     1      76.542  63.238  10.162  1.00  0.00     0.227 C 
BRANCH  28  29
HETATM   29  C11 UNL     1      77.093  61.860  10.199  1.00  0.00     0.240 C 
HETATM   30  O2  UNL     1      76.557  61.000   9.461  1.00  0.00    -0.271 OA
HETATM   31  N2  UNL     1      78.169  61.489  11.016  1.00  0.00    -0.325 N 
ATOM     32  H2  UNL     1      78.588  62.206  11.608  1.00  0.00     0.169 HD
BRANCH  31  33
HETATM   33  C12 UNL     1      78.715  60.181  11.072  1.00  0.00     0.047 A 
HETATM   34  C13 UNL     1      79.788  59.855  10.234  1.00  0.00    -0.034 A 
HETATM   35  C14 UNL     1      80.339  60.877   9.305  1.00  0.00     0.050 C 
HETATM   36  C15 UNL     1      80.361  58.601  10.240  1.00  0.00     0.016 A 
HETATM   37  C16 UNL     1      79.860  57.638  11.101  1.00  0.00    -0.055 A 
HETATM   38  C17 UNL     1      80.508  56.280  11.082  1.00  0.00     0.049 C 
HETATM   39  C18 UNL     1      78.801  57.923  11.943  1.00  0.00    -0.048 A 
HETATM   40  C19 UNL     1      78.293  56.861  12.851  1.00  0.00     0.049 C 
HETATM   41  C20 UNL     1      78.264  59.186  11.901  1.00  0.00    -0.028 A 
HETATM   42  C21 UNL     1      77.131  59.476  12.808  1.00  0.00     0.051 C 
ENDBRANCH  31  33
ENDBRANCH  28  29
ENDBRANCH  26  28
ENDBRANCH  23  26
ENDBRANCH  22  23
ENDBRANCH   1  22
TORSDOF 11
ENDMDL
MODEL 4
REMARK VINA RESULT: -7.009758761      2.671      8.360
REMARK  11 active torsions:
REMARK  status: ('A' for Active; 'I' for Inactive)
REMARK    1  A    between atoms: C5_5  and  C6_6 
REMARK    2  A    between atoms: C6_6  and  C7_7 
REMARK    3  A    between atoms: C7_7  and  C8_8 
REMARK    4  A    between atoms: C8_8  and  O1_9 
REMARK    5  A    between atoms: C8_8  and  N1_11 
REMARK    6  A    between atoms: N1_11  and  C10_13 
REMARK    7  A    between atoms: C10_13  and  C11_14 
REMARK       I    between atoms: C11_14  and  N2_16 
REMARK    8  A    between atoms: N2_16  and  C12_18 
REMARK    9  A    between atoms: C22_28  and  N3_29 
REMARK       I    between atoms: N3_29  and  C23_31 
REMARK   10  A    between atoms: C23_31  and  C24_33 
REMARK   11  A    between atoms: N4_37  and  O4_38 
ROOT
HETATM    1  C6  UNL     1      82.687  59.682  12.399  1.00  0.00     0.018 C 
ENDROOT
BRANCH   1   2
HETATM    2  C5  UNL     1      83.287  60.335  13.545  1.00  0.00    -0.009 A 
HETATM    3  C4  UNL     1      84.256  59.563  14.213  1.00  0.00     0.014 A 
HETATM    4  C3  UNL     1      84.906  60.046  15.319  1.00  0.00     0.007 A 
HETATM    5  C2  UNL     1      84.639  61.294  15.818  1.00  0.00    -0.060 A 
HETATM    6  C1  UNL     1      85.331  61.830  17.017  1.00  0.00     0.048 C 
HETATM    7  C30 UNL     1      83.676  62.050  15.140  1.00  0.00     0.037 A 
HETATM    8  C22 UNL     1      83.006  61.595  14.023  1.00  0.00     0.045 A 
BRANCH   8   9
HETATM    9  N3  UNL     1      82.217  62.521  13.317  1.00  0.00    -0.322 N 
HETATM   10  C23 UNL     1      80.866  62.822  13.445  1.00  0.00     0.258 C 
HETATM   11  O3  UNL     1      80.222  62.127  14.329  1.00  0.00    -0.267 OA
ATOM     12  H3  UNL     1      82.712  63.053  12.601  1.00  0.00     0.169 HD
BRANCH  10  13
HETATM   13  C24 UNL     1      80.064  63.781  12.747  1.00  0.00     0.057 A 
HETATM   14  C25 UNL     1      79.721  64.951  13.456  1.00  0.00     0.020 A 
HETATM   15  C26 UNL     1      78.905  65.889  12.882  1.00  0.00     0.021 A 
HETATM   16  C27 UNL     1      78.391  65.738  11.615  1.00  0.00     0.123 A 
HETATM   17  N4  UNL     1      78.727  64.626  10.956  1.00  0.00    -0.240 N 
HETATM   18  C28 UNL     1      79.540  63.676  11.507  1.00  0.00     0.051 A 
HETATM   19  C29 UNL     1      79.876  62.518  10.632  1.00  0.00     0.072 C 
BRANCH  17  20
HETATM   20  O4  UNL     1      78.224  64.449   9.676  1.00  0.00    -0.283 OA
ATOM     21  H4  UNL     1      78.843  64.360   8.961  1.00  0.00     0.245 HD
ENDBRANCH  17  20
ENDBRANCH  10  13
ENDBRANCH   8   9
ENDBRANCH   1   2
BRANCH   1  22
HETATM   22  C7  UNL     1      81.617  58.952  12.335  1.00  0.00     0.056 C 
BRANCH  22  23
HETATM   23  C8  UNL     1      80.355  59.009  12.990  1.00  0.00     0.137 C 
BRANCH  23  24
HETATM   24  O1  UNL     1      80.469  59.180  14.305  1.00  0.00    -0.346 OA
ATOM     25  H1  UNL     1      80.996  58.505  14.715  1.00  0.00     0.219 HD
ENDBRANCH  23  24
BRANCH  23  26
HETATM   26  N1  UNL     1      79.039  58.928  12.571  1.00  0.00    -0.358 N 
HETATM   27  C9  UNL     1      78.825  59.024  11.092  1.00  0.00     0.152 C 
BRANCH  26  28
HETATM   28  C10 UNL     1      77.907  58.757  13.404  1.00  0.00     0.227 C 
BRANCH  28  29
HETATM   29  C11 UNL     1      77.055  59.962  13.565  1.00  0.00     0.240 C 
HETATM   30  O2  UNL     1      75.836  59.785  13.795  1.00  0.00    -0.271 OA
HETATM   31  N2  UNL     1      77.553  61.268  13.469  1.00  0.00    -0.325 N 
ATOM     32  H2  UNL     1      78.548  61.387  13.280  1.00  0.00     0.169 HD
BRANCH  31  33
HETATM   33  C12 UNL     1      76.762  62.437  13.618  1.00  0.00     0.047 A 
HETATM   34  C13 UNL     1      76.723  63.078  14.862  1.00  0.00    -0.034 A 
HETATM   35  C14 UNL     1      77.506  62.532  16.001  1.00  0.00     0.050 C 
HETATM   36  C15 UNL     1      75.973  64.216  15.071  1.00  0.00     0.016 A 
HETATM   37  C16 UNL     1      75.238  64.737  14.018  1.00  0.00    -0.055 A 
HETATM   38  C17 UNL     1      74.430  65.980  14.281  1.00  0.00     0.049 C 
HETATM   39  C18 UNL     1      75.252  64.132  12.775  1.00  0.00    -0.048 A 
HETATM   40  C19 UNL     1      74.449  64.724  11.673  1.00  0.00     0.049 C 
HETATM   41  C20 UNL     1      76.014  63.001  12.616  1.00  0.00    -0.028 A 
HETATM   42  C21 UNL     1      76.020  62.364  11.280  1.00  0.00     0.051 C 
ENDBRANCH  31  33
ENDBRANCH  28  29
ENDBRANCH  26  28
ENDBRANCH  23  26
ENDBRANCH  22  23
ENDBRANCH   1  22
TORSDOF 11
ENDMDL
MODEL 5
REMARK VINA RESULT: -7.007360495      3.044      5.744
REMARK  11 active torsions:
REMARK  status: ('A' for Active; 'I' for Inactive)
REMARK    1  A    between atoms: C5_5  and  C6_6 
REMARK    2  A    between atoms: C6_6  and  C7_7 
REMARK    3  A    between atoms: C7_7  and  C8_8 
REMARK    4  A    between atoms: C8_8  and  O1_9 
REMARK    5  A    between atoms: C8_8  and  N1_11 
REMARK    6  A    between atoms: N1_11  and  C10_13 
REMARK    7  A    between atoms: C10_13  and  C11_14 
REMARK       I    between atoms: C11_14  and  N2_16 
REMARK    8  A    between atoms: N2_16  and  C12_18 
REMARK    9  A    between atoms: C22_28  and  N3_29 
REMARK       I    between atoms: N3_29  and  C23_31 
REMARK   10  A    between atoms: C23_31  and  C24_33 
REMARK   11  A    between atoms: N4_37  and  O4_38 
ROOT
HETATM    1  C6  UNL     1      79.678  64.830  13.466  1.00  0.00     0.018 C 
ENDROOT
BRANCH   1   2
HETATM    2  C5  UNL     1      80.056  63.443  13.648  1.00  0.00    -0.009 A 
HETATM    3  C4  UNL     1      81.038  62.985  12.751  1.00  0.00     0.014 A 
HETATM    4  C3  UNL     1      81.491  61.691  12.797  1.00  0.00     0.007 A 
HETATM    5  C2  UNL     1      81.008  60.796  13.716  1.00  0.00    -0.060 A 
HETATM    6  C1  UNL     1      81.486  59.392  13.777  1.00  0.00     0.048 C 
HETATM    7  C30 UNL     1      80.035  61.270  14.603  1.00  0.00     0.037 A 
HETATM    8  C22 UNL     1      79.559  62.565  14.585  1.00  0.00     0.045 A 
BRANCH   8   9
HETATM    9  N3  UNL     1      78.739  62.970  15.652  1.00  0.00    -0.322 N 
HETATM   10  C23 UNL     1      77.398  62.698  15.900  1.00  0.00     0.258 C 
HETATM   11  O3  UNL     1      76.798  61.985  14.999  1.00  0.00    -0.267 OA
ATOM     12  H3  UNL     1      79.197  63.554  16.352  1.00  0.00     0.169 HD
BRANCH  10  13
HETATM   13  C24 UNL     1      76.564  63.087  16.997  1.00  0.00     0.057 A 
HETATM   14  C25 UNL     1      76.564  62.234  18.121  1.00  0.00     0.020 A 
HETATM   15  C26 UNL     1      75.747  62.502  19.187  1.00  0.00     0.021 A 
HETATM   16  C27 UNL     1      74.906  63.591  19.212  1.00  0.00     0.123 A 
HETATM   17  N4  UNL     1      74.920  64.389  18.141  1.00  0.00    -0.240 N 
HETATM   18  C28 UNL     1      75.726  64.144  17.066  1.00  0.00     0.051 A 
HETATM   19  C29 UNL     1      75.678  65.152  15.971  1.00  0.00     0.072 C 
BRANCH  17  20
HETATM   20  O4  UNL     1      74.082  65.494  18.141  1.00  0.00    -0.283 OA
ATOM     21  H4  UNL     1      73.287  65.452  17.622  1.00  0.00     0.245 HD
ENDBRANCH  17  20
ENDBRANCH  10  13
ENDBRANCH   8   9
ENDBRANCH   1   2
BRANCH   1  22
HETATM   22  C7  UNL     1      78.496  65.360  13.403  1.00  0.00     0.056 C 
BRANCH  22  23
HETATM   23  C8  UNL     1      77.514  65.438  12.375  1.00  0.00     0.137 C 
BRANCH  23  24
HETATM   24  O1  UNL     1      78.011  65.895  11.228  1.00  0.00    -0.346 OA
ATOM     25  H1  UNL     1      77.676  66.755  11.002  1.00  0.00     0.219 HD
ENDBRANCH  23  24
BRANCH  23  26
HETATM   26  N1  UNL     1      76.164  65.148  12.298  1.00  0.00    -0.358 N 
HETATM   27  C9  UNL     1      75.254  66.332  12.188  1.00  0.00     0.152 C 
BRANCH  26  28
HETATM   28  C10 UNL     1      75.587  63.855  12.307  1.00  0.00     0.227 C 
BRANCH  28  29
HETATM   29  C11 UNL     1      76.316  62.834  11.515  1.00  0.00     0.240 C 
HETATM   30  O2  UNL     1      75.831  62.503  10.407  1.00  0.00    -0.271 OA
HETATM   31  N2  UNL     1      77.504  62.234  11.951  1.00  0.00    -0.325 N 
ATOM     32  H2  UNL     1      77.879  62.519  12.856  1.00  0.00     0.169 HD
BRANCH  31  33
HETATM   33  C12 UNL     1      78.222  61.255  11.215  1.00  0.00     0.047 A 
HETATM   34  C13 UNL     1      78.110  59.909  11.585  1.00  0.00    -0.034 A 
HETATM   35  C14 UNL     1      77.247  59.525  12.732  1.00  0.00     0.050 C 
HETATM   36  C15 UNL     1      78.783  58.912  10.911  1.00  0.00     0.016 A 
HETATM   37  C16 UNL     1      79.591  59.253   9.839  1.00  0.00    -0.055 A 
HETATM   38  C17 UNL     1      80.311  58.140   9.126  1.00  0.00     0.049 C 
HETATM   39  C18 UNL     1      79.726  60.571   9.444  1.00  0.00    -0.048 A 
HETATM   40  C19 UNL     1      80.603  60.895   8.288  1.00  0.00     0.049 C 
HETATM   41  C20 UNL     1      79.036  61.529  10.146  1.00  0.00    -0.028 A 
HETATM   42  C21 UNL     1      79.189  62.936   9.712  1.00  0.00     0.051 C 
ENDBRANCH  31  33
ENDBRANCH  28  29
ENDBRANCH  26  28
ENDBRANCH  23  26
ENDBRANCH  22  23
ENDBRANCH   1  22
TORSDOF 11
ENDMDL
