MODEL 1
REMARK VINA RESULT: -8.346301999      0.000      0.000
REMARK  7 active torsions:
REMARK  status: ('A' for Active; 'I' for Inactive)
REMARK    1  A    between atoms: N2_15  and  C11_17 
REMARK    2  A    between atoms: C11_17  and  C12_18 
REMARK    3  A    between atoms: C12_18  and  C13_19 
REMARK    4  A    between atoms: C13_19  and  C14_20 
REMARK    5  A    between atoms: C14_20  and  C15_21 
REMARK    6  A    between atoms: C15_21  and  N3_22 
REMARK    7  A    between atoms: C24_36  and  C25_37 
ROOT
HETATM    1  O1  UNL     1      84.750  55.615  11.892  1.00  0.00    -0.257 OA
HETATM    2  S1  UNL     1      85.554  57.069  11.543  1.00  0.00     0.034 S 
HETATM    3  C1  UNL     1      84.354  58.368  11.637  1.00  0.00     0.152 A 
HETATM    4  C2  UNL     1      84.674  59.032  12.921  1.00  0.00     0.005 A 
HETATM    5  C3  UNL     1      85.754  58.600  13.569  1.00  0.00     0.040 A 
HETATM    6  N1  UNL     1      86.099  59.193  14.771  1.00  0.00    -0.357 N 
ATOM      7  H1  UNL     1      86.928  58.858  15.262  1.00  0.00     0.166 HD
HETATM    8  C4  UNL     1      85.396  60.179  15.311  1.00  0.00     0.045 A 
HETATM    9  C5  UNL     1      85.778  60.757  16.532  1.00  0.00     0.030 A 
HETATM   10  C6  UNL     1      85.048  61.779  17.088  1.00  0.00     0.002 A 
HETATM   11  C7  UNL     1      83.921  62.246  16.435  1.00  0.00     0.001 A 
HETATM   12  C8  UNL     1      83.532  61.684  15.230  1.00  0.00     0.016 A 
HETATM   13  C9  UNL     1      84.290  60.645  14.682  1.00  0.00     0.018 A 
HETATM   14  C10 UNL     1      83.895  60.078  13.457  1.00  0.00     0.049 A 
HETATM   15  N2  UNL     1      82.874  60.562  12.948  1.00  0.00    -0.389 N 
ATOM     16  H2  UNL     1      82.521  61.302  13.554  1.00  0.00     0.159 HD
HETATM   17  C24 UNL     1      86.523  57.489  12.938  1.00  0.00     0.163 A 
ENDROOT
BRANCH  15  18
HETATM   18  C11 UNL     1      82.047  60.452  11.851  1.00  0.00     0.120 C 
BRANCH  18  19
HETATM   19  C12 UNL     1      80.943  61.520  11.776  1.00  0.00     0.020 C 
BRANCH  19  20
HETATM   20  C13 UNL     1      81.088  62.533  12.863  1.00  0.00     0.003 C 
BRANCH  20  21
HETATM   21  C14 UNL     1      80.212  63.728  12.686  1.00  0.00     0.020 C 
BRANCH  21  22
HETATM   22  C15 UNL     1      78.739  63.375  12.912  1.00  0.00     0.138 C 
BRANCH  22  23
HETATM   23  N3  UNL     1      78.514  62.885  14.226  1.00  0.00    -0.226 N 
HETATM   24  C16 UNL     1      77.639  63.278  15.071  1.00  0.00     0.678 A 
HETATM   25  N4  UNL     1      77.607  62.652  16.293  1.00  0.00    -0.191 N 
HETATM   26  N5  UNL     1      76.765  64.257  14.808  1.00  0.00    -0.201 N 
HETATM   27  C17 UNL     1      76.734  62.988  17.228  1.00  0.00     0.060 A 
ATOM     28  H4  UNL     1      78.277  61.907  16.485  1.00  0.00     0.184 HD
HETATM   29  C18 UNL     1      76.709  62.347  18.464  1.00  0.00     0.031 A 
HETATM   30  C22 UNL     1      75.837  63.996  16.956  1.00  0.00     0.007 A 
HETATM   31  C19 UNL     1      75.794  62.711  19.413  1.00  0.00     0.002 A 
HETATM   32  C20 UNL     1      74.896  63.714  19.152  1.00  0.00     0.001 A 
HETATM   33  C21 UNL     1      74.912  64.351  17.944  1.00  0.00     0.015 A 
HETATM   34  C23 UNL     1      75.846  64.638  15.742  1.00  0.00     0.119 A 
ATOM     35  H5  UNL     1      76.786  64.724  13.900  1.00  0.00     0.183 HD
ATOM     36  H3  UNL     1      79.125  62.127  14.532  1.00  0.00     0.177 HD
ENDBRANCH  22  23
ENDBRANCH  21  22
ENDBRANCH  20  21
ENDBRANCH  19  20
ENDBRANCH  18  19
ENDBRANCH  15  18
BRANCH  17  37
HETATM   37  C25 UNL     1      87.851  57.972  12.476  1.00  0.00    -0.036 A 
HETATM   38  C26 UNL     1      88.017  58.633  11.279  1.00  0.00     0.009 A 
HETATM   39  C27 UNL     1      89.253  59.071  10.862  1.00  0.00     0.001 A 
HETATM   40  C28 UNL     1      90.386  58.874  11.614  1.00  0.00     0.000 A 
HETATM   41  C29 UNL     1      90.219  58.212  12.811  1.00  0.00     0.001 A 
HETATM   42  C30 UNL     1      88.996  57.767  13.245  1.00  0.00     0.009 A 
ENDBRANCH  17  37
TORSDOF 7
ENDMDL
MODEL 2
REMARK VINA RESULT: -8.216005833      1.749      2.403
REMARK  7 active torsions:
REMARK  status: ('A' for Active; 'I' for Inactive)
REMARK    1  A    between atoms: N2_15  and  C11_17 
REMARK    2  A    between atoms: C11_17  and  C12_18 
REMARK    3  A    between atoms: C12_18  and  C13_19 
REMARK    4  A    between atoms: C13_19  and  C14_20 
REMARK    5  A    between atoms: C14_20  and  C15_21 
REMARK    6  A    between atoms: C15_21  and  N3_22 
REMARK    7  A    between atoms: C24_36  and  C25_37 
ROOT
HETATM    1  O1  UNL     1      81.462  56.732  11.852  1.00  0.00    -0.257 OA
HETATM    2  S1  UNL     1      82.742  57.731  11.354  1.00  0.00     0.034 S 
HETATM    3  C1  UNL     1      82.305  59.394  11.775  1.00  0.00     0.152 A 
HETATM    4  C2  UNL     1      83.149  59.678  12.958  1.00  0.00     0.005 A 
HETATM    5  C3  UNL     1      84.028  58.740  13.307  1.00  0.00     0.040 A 
HETATM    6  N1  UNL     1      84.845  58.960  14.403  1.00  0.00    -0.357 N 
ATOM      7  H1  UNL     1      85.516  58.237  14.665  1.00  0.00     0.166 HD
HETATM    8  C4  UNL     1      84.792  60.070  15.125  1.00  0.00     0.045 A 
HETATM    9  C5  UNL     1      85.638  60.259  16.229  1.00  0.00     0.030 A 
HETATM   10  C6  UNL     1      85.581  61.411  16.975  1.00  0.00     0.002 A 
HETATM   11  C7  UNL     1      84.676  62.400  16.632  1.00  0.00     0.001 A 
HETATM   12  C8  UNL     1      83.834  62.228  15.545  1.00  0.00     0.016 A 
HETATM   13  C9  UNL     1      83.910  61.046  14.800  1.00  0.00     0.018 A 
HETATM   14  C10 UNL     1      83.056  60.875  13.697  1.00  0.00     0.049 A 
HETATM   15  N2  UNL     1      82.281  61.814  13.467  1.00  0.00    -0.389 N 
ATOM     16  H2  UNL     1      82.435  62.546  14.162  1.00  0.00     0.159 HD
HETATM   17  C24 UNL     1      84.064  57.501  12.478  1.00  0.00     0.163 A 
ENDROOT
BRANCH  15  18
HETATM   18  C11 UNL     1      81.285  62.220  12.606  1.00  0.00     0.120 C 
BRANCH  18  19
HETATM   19  C12 UNL     1      80.692  63.602  12.923  1.00  0.00     0.020 C 
BRANCH  19  20
HETATM   20  C13 UNL     1      79.364  63.487  13.595  1.00  0.00     0.003 C 
BRANCH  20  21
HETATM   21  C14 UNL     1      79.386  62.635  14.820  1.00  0.00     0.020 C 
BRANCH  21  22
HETATM   22  C15 UNL     1      77.970  62.241  15.248  1.00  0.00     0.138 C 
BRANCH  22  23
HETATM   23  N3  UNL     1      77.698  62.635  16.586  1.00  0.00    -0.226 N 
HETATM   24  C16 UNL     1      76.596  62.534  17.225  1.00  0.00     0.678 A 
HETATM   25  N4  UNL     1      76.567  62.988  18.521  1.00  0.00    -0.191 N 
HETATM   26  N5  UNL     1      75.491  62.005  16.686  1.00  0.00    -0.201 N 
HETATM   27  C17 UNL     1      75.473  62.921  19.261  1.00  0.00     0.060 A 
ATOM     28  H4  UNL     1      77.414  63.390  18.924  1.00  0.00     0.184 HD
HETATM   29  C18 UNL     1      75.454  63.382  20.575  1.00  0.00     0.031 A 
HETATM   30  C22 UNL     1      74.338  62.377  18.706  1.00  0.00     0.007 A 
HETATM   31  C19 UNL     1      74.311  63.299  21.321  1.00  0.00     0.002 A 
HETATM   32  C20 UNL     1      73.174  62.759  20.776  1.00  0.00     0.001 A 
HETATM   33  C21 UNL     1      73.180  62.303  19.489  1.00  0.00     0.015 A 
HETATM   34  C23 UNL     1      74.338  61.914  17.412  1.00  0.00     0.119 A 
ATOM     35  H5  UNL     1      75.510  61.666  15.724  1.00  0.00     0.183 HD
ATOM     36  H3  UNL     1      78.477  63.050  17.097  1.00  0.00     0.177 HD
ENDBRANCH  22  23
ENDBRANCH  21  22
ENDBRANCH  20  21
ENDBRANCH  19  20
ENDBRANCH  18  19
ENDBRANCH  15  18
BRANCH  17  37
HETATM   37  C25 UNL     1      85.337  57.422  11.716  1.00  0.00    -0.036 A 
HETATM   38  C26 UNL     1      85.573  58.189  10.596  1.00  0.00     0.009 A 
HETATM   39  C27 UNL     1      86.756  58.102   9.898  1.00  0.00     0.001 A 
HETATM   40  C28 UNL     1      87.763  57.250  10.277  1.00  0.00     0.000 A 
HETATM   41  C29 UNL     1      87.527  56.482  11.398  1.00  0.00     0.001 A 
HETATM   42  C30 UNL     1      86.355  56.553  12.108  1.00  0.00     0.009 A 
ENDBRANCH  17  37
TORSDOF 7
ENDMDL
MODEL 3
REMARK VINA RESULT: -8.202353718      4.051      9.970
REMARK  7 active torsions:
REMARK  status: ('A' for Active; 'I' for Inactive)
REMARK    1  A    between atoms: N2_15  and  C11_17 
REMARK    2  A    between atoms: C11_17  and  C12_18 
REMARK    3  A    between atoms: C12_18  and  C13_19 
REMARK    4  A    between atoms: C13_19  and  C14_20 
REMARK    5  A    between atoms: C14_20  and  C15_21 
REMARK    6  A    between atoms: C15_21  and  N3_22 
REMARK    7  A    between atoms: C24_36  and  C25_37 
ROOT
HETATM    1  O1  UNL     1      73.062  61.513  14.748  1.00  0.00    -0.257 OA
HETATM    2  S1  UNL     1      74.438  61.369  15.732  1.00  0.00     0.034 S 
HETATM    3  C1  UNL     1      75.718  60.651  14.743  1.00  0.00     0.152 A 
HETATM    4  C2  UNL     1      76.608  61.799  14.454  1.00  0.00     0.005 A 
HETATM    5  C3  UNL     1      76.313  62.952  15.051  1.00  0.00     0.040 A 
HETATM    6  N1  UNL     1      77.118  64.054  14.819  1.00  0.00    -0.357 N 
ATOM      7  H1  UNL     1      76.886  64.935  15.279  1.00  0.00     0.166 HD
HETATM    8  C4  UNL     1      78.178  64.013  14.023  1.00  0.00     0.045 A 
HETATM    9  C5  UNL     1      78.972  65.151  13.812  1.00  0.00     0.030 A 
HETATM   10  C6  UNL     1      80.069  65.104  12.988  1.00  0.00     0.002 A 
HETATM   11  C7  UNL     1      80.397  63.917  12.356  1.00  0.00     0.001 A 
HETATM   12  C8  UNL     1      79.622  62.786  12.554  1.00  0.00     0.016 A 
HETATM   13  C9  UNL     1      78.509  62.857  13.398  1.00  0.00     0.018 A 
HETATM   14  C10 UNL     1      77.726  61.707  13.599  1.00  0.00     0.049 A 
HETATM   15  N2  UNL     1      78.097  60.692  12.992  1.00  0.00    -0.389 N 
ATOM     16  H2  UNL     1      78.931  60.919  12.450  1.00  0.00     0.159 HD
HETATM   17  C24 UNL     1      75.115  62.970  15.938  1.00  0.00     0.163 A 
ENDROOT
BRANCH  15  18
HETATM   18  C11 UNL     1      77.781  59.366  12.790  1.00  0.00     0.120 C 
BRANCH  18  19
HETATM   19  C12 UNL     1      78.962  58.396  12.964  1.00  0.00     0.020 C 
BRANCH  19  20
HETATM   20  C13 UNL     1      79.766  58.285  11.712  1.00  0.00     0.003 C 
BRANCH  20  21
HETATM   21  C14 UNL     1      80.894  57.313  11.811  1.00  0.00     0.020 C 
BRANCH  21  22
HETATM   22  C15 UNL     1      82.220  57.957  11.396  1.00  0.00     0.138 C 
BRANCH  22  23
HETATM   23  N3  UNL     1      83.087  58.134  12.507  1.00  0.00    -0.226 N 
HETATM   24  C16 UNL     1      83.259  59.190  13.208  1.00  0.00     0.678 A 
HETATM   25  N4  UNL     1      84.159  59.127  14.243  1.00  0.00    -0.191 N 
HETATM   26  N5  UNL     1      82.600  60.331  12.974  1.00  0.00    -0.201 N 
HETATM   27  C17 UNL     1      84.400  60.167  15.024  1.00  0.00     0.060 A 
ATOM     28  H4  UNL     1      84.657  58.253  14.414  1.00  0.00     0.184 HD
HETATM   29  C18 UNL     1      85.313  60.093  16.072  1.00  0.00     0.031 A 
HETATM   30  C22 UNL     1      83.722  61.339  14.782  1.00  0.00     0.007 A 
HETATM   31  C19 UNL     1      85.543  61.182  16.868  1.00  0.00     0.002 A 
HETATM   32  C20 UNL     1      84.872  62.356  16.635  1.00  0.00     0.001 A 
HETATM   33  C21 UNL     1      83.974  62.440  15.610  1.00  0.00     0.015 A 
HETATM   34  C23 UNL     1      82.815  61.430  13.754  1.00  0.00     0.119 A 
ATOM     35  H5  UNL     1      81.930  60.380  12.206  1.00  0.00     0.183 HD
ATOM     36  H3  UNL     1      83.639  57.320  12.779  1.00  0.00     0.177 HD
ENDBRANCH  22  23
ENDBRANCH  21  22
ENDBRANCH  20  21
ENDBRANCH  19  20
ENDBRANCH  18  19
ENDBRANCH  15  18
BRANCH  17  37
HETATM   37  C25 UNL     1      75.521  63.143  17.357  1.00  0.00    -0.036 A 
HETATM   38  C26 UNL     1      76.460  62.334  17.958  1.00  0.00     0.009 A 
HETATM   39  C27 UNL     1      76.824  62.504  19.275  1.00  0.00     0.001 A 
HETATM   40  C28 UNL     1      76.272  63.486  20.060  1.00  0.00     0.000 A 
HETATM   41  C29 UNL     1      75.332  64.296  19.458  1.00  0.00     0.001 A 
HETATM   42  C30 UNL     1      74.955  64.143  18.148  1.00  0.00     0.009 A 
ENDBRANCH  17  37
TORSDOF 7
ENDMDL
MODEL 4
REMARK VINA RESULT: -8.198684250      1.464      1.961
REMARK  7 active torsions:
REMARK  status: ('A' for Active; 'I' for Inactive)
REMARK    1  A    between atoms: N2_15  and  C11_17 
REMARK    2  A    between atoms: C11_17  and  C12_18 
REMARK    3  A    between atoms: C12_18  and  C13_19 
REMARK    4  A    between atoms: C13_19  and  C14_20 
REMARK    5  A    between atoms: C14_20  and  C15_21 
REMARK    6  A    between atoms: C15_21  and  N3_22 
REMARK    7  A    between atoms: C24_36  and  C25_37 
ROOT
HETATM    1  O1  UNL     1      81.784  56.258  11.803  1.00  0.00    -0.257 OA
HETATM    2  S1  UNL     1      83.012  57.315  11.297  1.00  0.00     0.034 S 
HETATM    3  C1  UNL     1      82.451  58.963  11.616  1.00  0.00     0.152 A 
HETATM    4  C2  UNL     1      83.232  59.362  12.810  1.00  0.00     0.005 A 
HETATM    5  C3  UNL     1      84.158  58.504  13.235  1.00  0.00     0.040 A 
HETATM    6  N1  UNL     1      84.919  58.833  14.343  1.00  0.00    -0.357 N 
ATOM      7  H1  UNL     1      85.626  58.172  14.664  1.00  0.00     0.166 HD
HETATM    8  C4  UNL     1      84.767  59.971  15.006  1.00  0.00     0.045 A 
HETATM    9  C5  UNL     1      85.558  60.271  16.125  1.00  0.00     0.030 A 
HETATM   10  C6  UNL     1      85.399  61.452  16.808  1.00  0.00     0.002 A 
HETATM   11  C7  UNL     1      84.443  62.359  16.385  1.00  0.00     0.001 A 
HETATM   12  C8  UNL     1      83.654  62.077  15.283  1.00  0.00     0.016 A 
HETATM   13  C9  UNL     1      83.834  60.868  14.602  1.00  0.00     0.018 A 
HETATM   14  C10 UNL     1      83.034  60.585  13.482  1.00  0.00     0.049 A 
HETATM   15  N2  UNL     1      82.207  61.457  13.179  1.00  0.00    -0.389 N 
ATOM     16  H2  UNL     1      82.287  62.231  13.840  1.00  0.00     0.159 HD
HETATM   17  C24 UNL     1      84.305  57.231  12.472  1.00  0.00     0.163 A 
ENDROOT
BRANCH  15  18
HETATM   18  C11 UNL     1      81.217  61.751  12.266  1.00  0.00     0.120 C 
BRANCH  18  19
HETATM   19  C12 UNL     1      80.128  62.701  12.791  1.00  0.00     0.020 C 
BRANCH  19  20
HETATM   20  C13 UNL     1      80.672  64.067  13.050  1.00  0.00     0.003 C 
BRANCH  20  21
HETATM   21  C14 UNL     1      79.618  65.093  13.302  1.00  0.00     0.020 C 
BRANCH  21  22
HETATM   22  C15 UNL     1      78.222  64.537  13.009  1.00  0.00     0.138 C 
BRANCH  22  23
HETATM   23  N3  UNL     1      77.310  64.834  14.057  1.00  0.00    -0.226 N 
HETATM   24  C16 UNL     1      77.069  64.144  15.106  1.00  0.00     0.678 A 
HETATM   25  N4  UNL     1      76.137  64.632  15.988  1.00  0.00    -0.191 N 
HETATM   26  N5  UNL     1      77.687  62.987  15.371  1.00  0.00    -0.201 N 
HETATM   27  C17 UNL     1      75.825  63.990  17.102  1.00  0.00     0.060 A 
ATOM     28  H4  UNL     1      75.670  65.515  15.779  1.00  0.00     0.184 HD
HETATM   29  C18 UNL     1      74.879  64.493  17.992  1.00  0.00     0.031 A 
HETATM   30  C22 UNL     1      76.461  62.800  17.373  1.00  0.00     0.007 A 
HETATM   31  C19 UNL     1      74.576  63.812  19.138  1.00  0.00     0.002 A 
HETATM   32  C20 UNL     1      75.205  62.625  19.417  1.00  0.00     0.001 A 
HETATM   33  C21 UNL     1      76.134  62.121  18.552  1.00  0.00     0.015 A 
HETATM   34  C23 UNL     1      77.398  62.289  16.509  1.00  0.00     0.119 A 
ATOM     35  H5  UNL     1      78.380  62.622  14.717  1.00  0.00     0.183 HD
ATOM     36  H3  UNL     1      76.784  65.702  13.960  1.00  0.00     0.177 HD
ENDBRANCH  22  23
ENDBRANCH  21  22
ENDBRANCH  20  21
ENDBRANCH  19  20
ENDBRANCH  18  19
ENDBRANCH  15  18
BRANCH  17  37
HETATM   37  C25 UNL     1      85.607  57.201  11.757  1.00  0.00    -0.036 A 
HETATM   38  C26 UNL     1      85.800  57.842  10.552  1.00  0.00     0.009 A 
HETATM   39  C27 UNL     1      87.010  57.802   9.899  1.00  0.00     0.001 A 
HETATM   40  C28 UNL     1      88.090  57.124  10.410  1.00  0.00     0.000 A 
HETATM   41  C29 UNL     1      87.897  56.483  11.615  1.00  0.00     0.001 A 
HETATM   42  C30 UNL     1      86.698  56.510  12.282  1.00  0.00     0.009 A 
ENDBRANCH  17  37
TORSDOF 7
ENDMDL
MODEL 5
REMARK VINA RESULT: -8.064082200      3.915     10.990
REMARK  7 active torsions:
REMARK  status: ('A' for Active; 'I' for Inactive)
REMARK    1  A    between atoms: N2_15  and  C11_17 
REMARK    2  A    between atoms: C11_17  and  C12_18 
REMARK    3  A    between atoms: C12_18  and  C13_19 
REMARK    4  A    between atoms: C13_19  and  C14_20 
REMARK    5  A    between atoms: C14_20  and  C15_21 
REMARK    6  A    between atoms: C15_21  and  N3_22 
REMARK    7  A    between atoms: C24_36  and  C25_37 
ROOT
HETATM    1  O1  UNL     1      74.321  62.488  13.621  1.00  0.00    -0.257 OA
HETATM    2  S1  UNL     1      75.542  63.022  14.673  1.00  0.00     0.034 S 
HETATM    3  C1  UNL     1      76.463  64.269  13.818  1.00  0.00     0.152 A 
HETATM    4  C2  UNL     1      76.003  65.525  14.453  1.00  0.00     0.005 A 
HETATM    5  C3  UNL     1      75.175  65.406  15.489  1.00  0.00     0.040 A 
HETATM    6  N1  UNL     1      74.720  66.551  16.121  1.00  0.00    -0.357 N 
ATOM      7  H1  UNL     1      74.086  66.452  16.914  1.00  0.00     0.166 HD
HETATM    8  C4  UNL     1      75.075  67.769  15.738  1.00  0.00     0.045 A 
HETATM    9  C5  UNL     1      74.595  68.907  16.405  1.00  0.00     0.030 A 
HETATM   10  C6  UNL     1      74.965  70.169  16.006  1.00  0.00     0.002 A 
HETATM   11  C7  UNL     1      75.825  70.319  14.932  1.00  0.00     0.001 A 
HETATM   12  C8  UNL     1      76.306  69.205  14.264  1.00  0.00     0.016 A 
HETATM   13  C9  UNL     1      75.915  67.930  14.688  1.00  0.00     0.018 A 
HETATM   14  C10 UNL     1      76.408  66.801  14.010  1.00  0.00     0.049 A 
HETATM   15  N2  UNL     1      77.170  67.035  13.062  1.00  0.00    -0.389 N 
ATOM     16  H2  UNL     1      77.284  68.045  12.971  1.00  0.00     0.159 HD
HETATM   17  C24 UNL     1      74.791  64.023  15.895  1.00  0.00     0.163 A 
ENDROOT
BRANCH  15  18
HETATM   18  C11 UNL     1      77.920  66.413  12.087  1.00  0.00     0.120 C 
BRANCH  18  19
HETATM   19  C12 UNL     1      79.434  66.405  12.355  1.00  0.00     0.020 C 
BRANCH  19  20
HETATM   20  C13 UNL     1      79.920  65.039  12.708  1.00  0.00     0.003 C 
BRANCH  20  21
HETATM   21  C14 UNL     1      79.597  64.006  11.681  1.00  0.00     0.020 C 
BRANCH  21  22
HETATM   22  C15 UNL     1      80.272  62.670  12.005  1.00  0.00     0.138 C 
BRANCH  22  23
HETATM   23  N3  UNL     1      81.049  62.751  13.191  1.00  0.00    -0.226 N 
HETATM   24  C16 UNL     1      82.047  62.025  13.525  1.00  0.00     0.678 A 
HETATM   25  N4  UNL     1      82.648  62.286  14.732  1.00  0.00    -0.191 N 
HETATM   26  N5  UNL     1      82.521  61.041  12.751  1.00  0.00    -0.201 N 
HETATM   27  C17 UNL     1      83.689  61.591  15.160  1.00  0.00     0.060 A 
ATOM     28  H4  UNL     1      82.281  63.038  15.316  1.00  0.00     0.184 HD
HETATM   29  C18 UNL     1      84.293  61.865  16.384  1.00  0.00     0.031 A 
HETATM   30  C22 UNL     1      84.175  60.580  14.363  1.00  0.00     0.007 A 
HETATM   31  C19 UNL     1      85.370  61.133  16.804  1.00  0.00     0.002 A 
HETATM   32  C20 UNL     1      85.861  60.123  16.017  1.00  0.00     0.001 A 
HETATM   33  C21 UNL     1      85.277  59.845  14.814  1.00  0.00     0.015 A 
HETATM   34  C23 UNL     1      83.593  60.297  13.151  1.00  0.00     0.119 A 
ATOM     35  H5  UNL     1      82.076  60.845  11.854  1.00  0.00     0.183 HD
ATOM     36  H3  UNL     1      80.778  63.475  13.856  1.00  0.00     0.177 HD
ENDBRANCH  22  23
ENDBRANCH  21  22
ENDBRANCH  20  21
ENDBRANCH  19  20
ENDBRANCH  18  19
ENDBRANCH  15  18
BRANCH  17  37
HETATM   37  C25 UNL     1      75.377  63.689  17.220  1.00  0.00    -0.036 A 
HETATM   38  C26 UNL     1      76.408  62.785  17.362  1.00  0.00     0.009 A 
HETATM   39  C27 UNL     1      76.938  62.483  18.595  1.00  0.00     0.001 A 
HETATM   40  C28 UNL     1      76.471  63.063  19.749  1.00  0.00     0.000 A 
HETATM   41  C29 UNL     1      75.440  63.967  19.607  1.00  0.00     0.001 A 
HETATM   42  C30 UNL     1      74.897  64.283  18.387  1.00  0.00     0.009 A 
ENDBRANCH  17  37
TORSDOF 7
ENDMDL
