MODEL 1
REMARK VINA RESULT: -6.866898247      0.000      0.000
REMARK  2 active torsions:
REMARK  status: ('A' for Active; 'I' for Inactive)
REMARK    1  A    between atoms: C3_4  and  C4_5 
REMARK    2  A    between atoms: C4_5  and  N1_6 
ROOT
HETATM    1  N1  UNL     1      24.275   5.033  12.042  1.00  0.00    -0.219 N 
ATOM      2  H1  UNL     1      24.337   4.042  11.810  1.00  0.00     0.178 HD
HETATM    3  C5  UNL     1      24.484   5.389  13.245  1.00  0.00     0.693 A 
HETATM    4  N2  UNL     1      24.802   4.446  14.280  1.00  0.00    -0.132 N 
ATOM      5  H2  UNL     1      24.869   3.450  14.071  1.00  0.00     0.205 HD
HETATM    6  N3  UNL     1      25.019   4.919  15.582  1.00  0.00    -0.284 N 
ATOM      7  H3  UNL     1      25.246   4.241  16.310  1.00  0.00     0.187 HD
HETATM    8  C6  UNL     1      24.942   6.276  15.939  1.00  0.00     0.075 A 
HETATM    9  C7  UNL     1      25.165   6.686  17.235  1.00  0.00     0.033 A 
HETATM   10  C8  UNL     1      25.089   8.035  17.589  1.00  0.00     0.002 A 
HETATM   11  C9  UNL     1      24.785   8.952  16.608  1.00  0.00     0.002 A 
HETATM   12  C10 UNL     1      24.562   8.517  15.298  1.00  0.00     0.032 A 
HETATM   13  C11 UNL     1      24.639   7.192  14.957  1.00  0.00     0.077 A 
HETATM   14  N4  UNL     1      24.406   6.757  13.598  1.00  0.00    -0.188 N 
ATOM     15  H4  UNL     1      24.183   7.448  12.882  1.00  0.00     0.184 HD
ENDROOT
BRANCH   1  16
HETATM   16  C4  UNL     1      23.958   5.953  11.003  1.00  0.00     0.203 C 
BRANCH  16  17
HETATM   17  C3  UNL     1      23.104   5.296   9.952  1.00  0.00     0.070 A 
HETATM   18  O1  UNL     1      22.989   5.593   8.691  1.00  0.00    -0.325 OA
HETATM   19  C2  UNL     1      22.160   4.826   8.054  1.00  0.00     0.142 A 
HETATM   20  C1  UNL     1      21.644   3.903   8.950  1.00  0.00     0.027 A 
HETATM   21  C12 UNL     1      22.251   4.214  10.148  1.00  0.00     0.036 A 
ENDBRANCH  16  17
ENDBRANCH   1  16
TORSDOF 2
ENDMDL
MODEL 2
REMARK VINA RESULT: -6.744256052      4.324      6.245
REMARK  2 active torsions:
REMARK  status: ('A' for Active; 'I' for Inactive)
REMARK    1  A    between atoms: C3_4  and  C4_5 
REMARK    2  A    between atoms: C4_5  and  N1_6 
ROOT
HETATM    1  N1  UNL     1      22.051   6.633   6.647  1.00  0.00    -0.219 N 
ATOM      2  H1  UNL     1      21.479   6.371   5.844  1.00  0.00     0.178 HD
HETATM    3  C5  UNL     1      22.110   5.835   7.636  1.00  0.00     0.693 A 
HETATM    4  N2  UNL     1      21.404   4.586   7.656  1.00  0.00    -0.132 N 
ATOM      5  H2  UNL     1      20.826   4.303   6.864  1.00  0.00     0.205 HD
HETATM    6  N3  UNL     1      21.522   3.761   8.785  1.00  0.00    -0.284 N 
ATOM      7  H3  UNL     1      21.016   2.874   8.789  1.00  0.00     0.187 HD
HETATM    8  C6  UNL     1      22.298   4.089   9.908  1.00  0.00     0.075 A 
HETATM    9  C7  UNL     1      22.378   3.240  10.991  1.00  0.00     0.033 A 
HETATM   10  C8  UNL     1      23.151   3.567  12.108  1.00  0.00     0.002 A 
HETATM   11  C9  UNL     1      23.834   4.762  12.104  1.00  0.00     0.002 A 
HETATM   12  C10 UNL     1      23.741   5.610  10.996  1.00  0.00     0.032 A 
HETATM   13  C11 UNL     1      22.981   5.283   9.903  1.00  0.00     0.077 A 
HETATM   14  N4  UNL     1      22.894   6.170   8.764  1.00  0.00    -0.188 N 
ATOM     15  H4  UNL     1      23.407   7.052   8.775  1.00  0.00     0.184 HD
ENDROOT
BRANCH   1  16
HETATM   16  C4  UNL     1      22.743   7.876   6.608  1.00  0.00     0.203 C 
BRANCH  16  17
HETATM   17  C3  UNL     1      24.093   7.713   5.963  1.00  0.00     0.070 A 
HETATM   18  O1  UNL     1      25.208   7.302   6.492  1.00  0.00    -0.325 OA
HETATM   19  C2  UNL     1      26.199   7.278   5.656  1.00  0.00     0.142 A 
HETATM   20  C1  UNL     1      25.739   7.712   4.423  1.00  0.00     0.027 A 
HETATM   21  C12 UNL     1      24.404   7.985   4.633  1.00  0.00     0.036 A 
ENDBRANCH  16  17
ENDBRANCH   1  16
TORSDOF 2
ENDMDL
MODEL 3
REMARK VINA RESULT: -6.688148367      1.953      2.452
REMARK  2 active torsions:
REMARK  status: ('A' for Active; 'I' for Inactive)
REMARK    1  A    between atoms: C3_4  and  C4_5 
REMARK    2  A    between atoms: C4_5  and  N1_6 
ROOT
HETATM    1  N1  UNL     1      23.887   5.668  11.263  1.00  0.00    -0.219 N 
ATOM      2  H1  UNL     1      23.977   4.738  10.855  1.00  0.00     0.178 HD
HETATM    3  C5  UNL     1      24.248   5.839  12.471  1.00  0.00     0.693 A 
HETATM    4  N2  UNL     1      24.775   4.771  13.272  1.00  0.00    -0.132 N 
ATOM      5  H2  UNL     1      24.874   3.832  12.886  1.00  0.00     0.205 HD
HETATM    6  N3  UNL     1      25.151   5.041  14.596  1.00  0.00    -0.284 N 
ATOM      7  H3  UNL     1      25.526   4.275  15.157  1.00  0.00     0.187 HD
HETATM    8  C6  UNL     1      25.042   6.309  15.191  1.00  0.00     0.075 A 
HETATM    9  C7  UNL     1      25.427   6.518  16.498  1.00  0.00     0.033 A 
HETATM   10  C8  UNL     1      25.318   7.780  17.088  1.00  0.00     0.002 A 
HETATM   11  C9  UNL     1      24.814   8.814  16.333  1.00  0.00     0.002 A 
HETATM   12  C10 UNL     1      24.429   8.582  15.009  1.00  0.00     0.032 A 
HETATM   13  C11 UNL     1      24.539   7.343  14.435  1.00  0.00     0.077 A 
HETATM   14  N4  UNL     1      24.137   7.118  13.064  1.00  0.00    -0.188 N 
ATOM     15  H4  UNL     1      23.766   7.895  12.517  1.00  0.00     0.184 HD
ENDROOT
BRANCH   1  16
HETATM   16  C4  UNL     1      23.363   6.714  10.453  1.00  0.00     0.203 C 
BRANCH  16  17
HETATM   17  C3  UNL     1      24.403   7.210   9.485  1.00  0.00     0.070 A 
HETATM   18  O1  UNL     1      25.628   7.581   9.721  1.00  0.00    -0.325 OA
HETATM   19  C2  UNL     1      26.266   7.959   8.657  1.00  0.00     0.142 A 
HETATM   20  C1  UNL     1      25.412   7.845   7.572  1.00  0.00     0.027 A 
HETATM   21  C12 UNL     1      24.235   7.370   8.112  1.00  0.00     0.036 A 
ENDBRANCH  16  17
ENDBRANCH   1  16
TORSDOF 2
ENDMDL
MODEL 4
REMARK VINA RESULT: -6.649337253      2.347      6.822
REMARK  2 active torsions:
REMARK  status: ('A' for Active; 'I' for Inactive)
REMARK    1  A    between atoms: C3_4  and  C4_5 
REMARK    2  A    between atoms: C4_5  and  N1_6 
ROOT
HETATM    1  N1  UNL     1      24.859   4.962  14.141  1.00  0.00    -0.219 N 
ATOM      2  H1  UNL     1      24.825   4.287  14.905  1.00  0.00     0.178 HD
HETATM    3  C5  UNL     1      24.208   4.709  13.077  1.00  0.00     0.693 A 
HETATM    4  N2  UNL     1      23.432   3.511  12.921  1.00  0.00    -0.132 N 
ATOM      5  H2  UNL     1      23.383   2.822  13.671  1.00  0.00     0.205 HD
HETATM    6  N3  UNL     1      22.742   3.306  11.717  1.00  0.00    -0.284 N 
ATOM      7  H3  UNL     1      22.192   2.452  11.616  1.00  0.00     0.187 HD
HETATM    8  C6  UNL     1      22.765   4.212  10.644  1.00  0.00     0.075 A 
HETATM    9  C7  UNL     1      22.068   3.959   9.482  1.00  0.00     0.033 A 
HETATM   10  C8  UNL     1      22.091   4.861   8.416  1.00  0.00     0.002 A 
HETATM   11  C9  UNL     1      22.831   6.014   8.551  1.00  0.00     0.002 A 
HETATM   12  C10 UNL     1      23.532   6.253   9.737  1.00  0.00     0.032 A 
HETATM   13  C11 UNL     1      23.504   5.365  10.780  1.00  0.00     0.077 A 
HETATM   14  N4  UNL     1      24.234   5.625  12.001  1.00  0.00    -0.188 N 
ATOM     15  H4  UNL     1      24.777   6.485  12.086  1.00  0.00     0.184 HD
ENDROOT
BRANCH   1  16
HETATM   16  C4  UNL     1      25.633   6.143  14.315  1.00  0.00     0.203 C 
BRANCH  16  17
HETATM   17  C3  UNL     1      25.508   6.659  15.723  1.00  0.00     0.070 A 
HETATM   18  O1  UNL     1      25.553   5.998  16.842  1.00  0.00    -0.325 OA
HETATM   19  C2  UNL     1      25.410   6.747  17.891  1.00  0.00     0.142 A 
HETATM   20  C1  UNL     1      25.250   8.058  17.471  1.00  0.00     0.027 A 
HETATM   21  C12 UNL     1      25.314   7.986  16.095  1.00  0.00     0.036 A 
ENDBRANCH  16  17
ENDBRANCH   1  16
TORSDOF 2
ENDMDL
MODEL 5
REMARK VINA RESULT: -6.571906069      1.243      1.416
REMARK  2 active torsions:
REMARK  status: ('A' for Active; 'I' for Inactive)
REMARK    1  A    between atoms: C3_4  and  C4_5 
REMARK    2  A    between atoms: C4_5  and  N1_6 
ROOT
HETATM    1  N1  UNL     1      24.183   4.050  12.774  1.00  0.00    -0.219 N 
ATOM      2  H1  UNL     1      24.867   3.373  12.438  1.00  0.00     0.178 HD
HETATM    3  C5  UNL     1      24.572   4.963  13.571  1.00  0.00     0.693 A 
HETATM    4  N2  UNL     1      25.936   5.068  14.008  1.00  0.00    -0.132 N 
ATOM      5  H2  UNL     1      26.637   4.402  13.685  1.00  0.00     0.205 HD
HETATM    6  N3  UNL     1      26.285   6.104  14.887  1.00  0.00    -0.284 N 
ATOM      7  H3  UNL     1      27.257   6.171  15.191  1.00  0.00     0.187 HD
HETATM    8  C6  UNL     1      25.370   7.054  15.371  1.00  0.00     0.075 A 
HETATM    9  C7  UNL     1      25.769   8.051  16.234  1.00  0.00     0.033 A 
HETATM   10  C8  UNL     1      24.858   8.996  16.715  1.00  0.00     0.002 A 
HETATM   11  C9  UNL     1      23.548   8.907  16.305  1.00  0.00     0.002 A 
HETATM   12  C10 UNL     1      23.162   7.889  15.429  1.00  0.00     0.032 A 
HETATM   13  C11 UNL     1      24.060   6.965  14.960  1.00  0.00     0.077 A 
HETATM   14  N4  UNL     1      23.647   5.917  14.054  1.00  0.00    -0.188 N 
ATOM     15  H4  UNL     1      22.672   5.865  13.759  1.00  0.00     0.184 HD
ENDROOT
BRANCH   1  16
HETATM   16  C4  UNL     1      22.836   3.929  12.331  1.00  0.00     0.203 C 
BRANCH  16  17
HETATM   17  C3  UNL     1      22.696   4.419  10.914  1.00  0.00     0.070 A 
HETATM   18  O1  UNL     1      23.192   5.490  10.368  1.00  0.00    -0.325 OA
HETATM   19  C2  UNL     1      22.880   5.623   9.116  1.00  0.00     0.142 A 
HETATM   20  C1  UNL     1      22.092   4.545   8.747  1.00  0.00     0.027 A 
HETATM   21  C12 UNL     1      21.984   3.791   9.897  1.00  0.00     0.036 A 
ENDBRANCH  16  17
ENDBRANCH   1  16
TORSDOF 2
ENDMDL
