MODEL 1
REMARK VINA RESULT: -5.743401907      0.000      0.000
REMARK  3 active torsions:
REMARK  status: ('A' for Active; 'I' for Inactive)
REMARK    1  A    between atoms: O1_2  and  C2_3 
REMARK    2  A    between atoms: C7_8  and  N1_9 
REMARK    3  A    between atoms: C8_10  and  N2_11 
ROOT
HETATM    1  N1  UNL     1      23.449   7.925   7.347  1.00  0.00    -0.117 N 
HETATM    2  C8  UNL     1      24.057   7.754   6.164  1.00  0.00     0.700 A 
HETATM    3  N3  UNL     1      23.772   8.826   5.411  1.00  0.00    -0.130 N 
ATOM      4  H3  UNL     1      24.100   8.971   4.456  1.00  0.00     0.205 HD
HETATM    5  N4  UNL     1      23.005   9.668   6.081  1.00  0.00    -0.261 N 
ATOM      6  H4  UNL     1      22.639  10.561   5.754  1.00  0.00     0.190 HD
HETATM    7  C9  UNL     1      22.808   9.100   7.285  1.00  0.00     0.213 A 
HETATM    8  S1  UNL     1      21.894   9.816   8.460  1.00  0.00    -0.038 SA
ENDROOT
BRANCH   1   9
HETATM    9  C7  UNL     1      23.465   7.052   8.459  1.00  0.00     0.093 A 
HETATM   10  C2  UNL     1      24.372   7.162   9.492  1.00  0.00     0.096 A 
HETATM   11  C3  UNL     1      24.330   6.262  10.564  1.00  0.00     0.039 A 
HETATM   12  C4  UNL     1      23.373   5.259  10.585  1.00  0.00     0.003 A 
HETATM   13  C5  UNL     1      22.462   5.143   9.556  1.00  0.00     0.002 A 
HETATM   14  C6  UNL     1      22.510   6.040   8.495  1.00  0.00     0.034 A 
BRANCH  10  15
HETATM   15  O1  UNL     1      25.321   8.155   9.474  1.00  0.00    -0.354 OA
HETATM   16  C1  UNL     1      26.558   7.962   8.816  1.00  0.00     0.210 C 
ENDBRANCH  10  15
ENDBRANCH   1   9
BRANCH   2  17
HETATM   17  N2  UNL     1      24.796   6.740   5.785  1.00  0.00    -0.233 N 
ATOM     18  H22 UNL     1      24.477   5.968   5.199  1.00  0.00     0.174 HD
ATOM     19  H21 UNL     1      25.777   6.567   6.006  1.00  0.00     0.174 HD
ENDBRANCH   2  17
TORSDOF 3
ENDMDL
MODEL 2
REMARK VINA RESULT: -5.568452145      2.521      3.798
REMARK  3 active torsions:
REMARK  status: ('A' for Active; 'I' for Inactive)
REMARK    1  A    between atoms: O1_2  and  C2_3 
REMARK    2  A    between atoms: C7_8  and  N1_9 
REMARK    3  A    between atoms: C8_10  and  N2_11 
ROOT
HETATM    1  N1  UNL     1      23.027   8.229   7.173  1.00  0.00    -0.117 N 
HETATM    2  C8  UNL     1      22.430   9.384   6.845  1.00  0.00     0.700 A 
HETATM    3  N3  UNL     1      21.106   9.185   6.925  1.00  0.00    -0.130 N 
ATOM      4  H3  UNL     1      20.398   9.892   6.729  1.00  0.00     0.205 HD
HETATM    5  N4  UNL     1      20.850   7.942   7.293  1.00  0.00    -0.261 N 
ATOM      6  H4  UNL     1      19.934   7.518   7.433  1.00  0.00     0.190 HD
HETATM    7  C9  UNL     1      22.050   7.354   7.445  1.00  0.00     0.213 A 
HETATM    8  S1  UNL     1      22.208   5.775   7.904  1.00  0.00    -0.038 SA
ENDROOT
BRANCH   1   9
HETATM    9  C7  UNL     1      24.414   7.961   7.227  1.00  0.00     0.093 A 
HETATM   10  C2  UNL     1      25.144   7.539   6.135  1.00  0.00     0.096 A 
HETATM   11  C3  UNL     1      26.516   7.293   6.260  1.00  0.00     0.039 A 
HETATM   12  C4  UNL     1      27.141   7.472   7.484  1.00  0.00     0.003 A 
HETATM   13  C5  UNL     1      26.418   7.894   8.581  1.00  0.00     0.002 A 
HETATM   14  C6  UNL     1      25.055   8.137   8.449  1.00  0.00     0.034 A 
BRANCH  10  15
HETATM   15  O1  UNL     1      24.528   7.361   4.921  1.00  0.00    -0.354 OA
HETATM   16  C1  UNL     1      25.057   7.946   3.748  1.00  0.00     0.210 C 
ENDBRANCH  10  15
ENDBRANCH   1   9
BRANCH   2  17
HETATM   17  N2  UNL     1      23.004  10.513   6.505  1.00  0.00    -0.233 N 
ATOM     18  H22 UNL     1      23.708  11.003   7.057  1.00  0.00     0.174 HD
ATOM     19  H21 UNL     1      22.843  11.064   5.662  1.00  0.00     0.174 HD
ENDBRANCH   2  17
TORSDOF 3
ENDMDL
MODEL 3
REMARK VINA RESULT: -5.503685230      1.466      2.508
REMARK  3 active torsions:
REMARK  status: ('A' for Active; 'I' for Inactive)
REMARK    1  A    between atoms: O1_2  and  C2_3 
REMARK    2  A    between atoms: C7_8  and  N1_9 
REMARK    3  A    between atoms: C8_10  and  N2_11 
ROOT
HETATM    1  N1  UNL     1      23.402   7.815   7.221  1.00  0.00    -0.117 N 
HETATM    2  C8  UNL     1      24.185   7.734   6.136  1.00  0.00     0.700 A 
HETATM    3  N3  UNL     1      23.904   8.794   5.362  1.00  0.00    -0.130 N 
ATOM      4  H3  UNL     1      24.348   8.995   4.467  1.00  0.00     0.205 HD
HETATM    5  N4  UNL     1      22.969   9.538   5.926  1.00  0.00    -0.261 N 
ATOM      6  H4  UNL     1      22.565  10.400   5.560  1.00  0.00     0.190 HD
HETATM    7  C9  UNL     1      22.661   8.922   7.081  1.00  0.00     0.213 A 
HETATM    8  S1  UNL     1      21.523   9.514   8.121  1.00  0.00    -0.038 SA
ENDROOT
BRANCH   1   9
HETATM    9  C7  UNL     1      23.347   6.918   8.312  1.00  0.00     0.093 A 
HETATM   10  C2  UNL     1      22.504   5.826   8.351  1.00  0.00     0.096 A 
HETATM   11  C3  UNL     1      22.503   4.978   9.464  1.00  0.00     0.039 A 
HETATM   12  C4  UNL     1      23.350   5.237  10.530  1.00  0.00     0.003 A 
HETATM   13  C5  UNL     1      24.195   6.326  10.500  1.00  0.00     0.002 A 
HETATM   14  C6  UNL     1      24.192   7.164   9.390  1.00  0.00     0.034 A 
BRANCH  10  15
HETATM   15  O1  UNL     1      21.664   5.567   7.296  1.00  0.00    -0.354 OA
HETATM   16  C1  UNL     1      20.282   5.850   7.385  1.00  0.00     0.210 C 
ENDBRANCH  10  15
ENDBRANCH   1   9
BRANCH   2  17
HETATM   17  N2  UNL     1      25.069   6.808   5.854  1.00  0.00    -0.233 N 
ATOM     18  H22 UNL     1      25.165   6.344   4.951  1.00  0.00     0.174 HD
ATOM     19  H21 UNL     1      25.780   6.417   6.472  1.00  0.00     0.174 HD
ENDBRANCH   2  17
TORSDOF 3
ENDMDL
MODEL 4
REMARK VINA RESULT: -5.492566132      2.762      3.690
REMARK  3 active torsions:
REMARK  status: ('A' for Active; 'I' for Inactive)
REMARK    1  A    between atoms: O1_2  and  C2_3 
REMARK    2  A    between atoms: C7_8  and  N1_9 
REMARK    3  A    between atoms: C8_10  and  N2_11 
ROOT
HETATM    1  N1  UNL     1      24.234   7.263   5.120  1.00  0.00    -0.117 N 
HETATM    2  C8  UNL     1      24.515   7.713   3.889  1.00  0.00     0.700 A 
HETATM    3  N3  UNL     1      23.614   7.175   3.053  1.00  0.00    -0.130 N 
ATOM      4  H3  UNL     1      23.582   7.340   2.047  1.00  0.00     0.205 HD
HETATM    5  N4  UNL     1      22.775   6.402   3.719  1.00  0.00    -0.261 N 
ATOM      6  H4  UNL     1      21.992   5.871   3.338  1.00  0.00     0.190 HD
HETATM    7  C9  UNL     1      23.167   6.461   5.004  1.00  0.00     0.213 A 
HETATM    8  S1  UNL     1      22.390   5.634   6.204  1.00  0.00    -0.038 SA
ENDROOT
BRANCH   1   9
HETATM    9  C7  UNL     1      24.915   7.560   6.323  1.00  0.00     0.093 A 
HETATM   10  C2  UNL     1      24.336   8.249   7.369  1.00  0.00     0.096 A 
HETATM   11  C3  UNL     1      25.069   8.508   8.532  1.00  0.00     0.039 A 
HETATM   12  C4  UNL     1      26.381   8.072   8.632  1.00  0.00     0.003 A 
HETATM   13  C5  UNL     1      26.968   7.383   7.591  1.00  0.00     0.002 A 
HETATM   14  C6  UNL     1      26.233   7.128   6.439  1.00  0.00     0.034 A 
BRANCH  10  15
HETATM   15  O1  UNL     1      23.036   8.681   7.272  1.00  0.00    -0.354 OA
HETATM   16  C1  UNL     1      22.742  10.008   6.880  1.00  0.00     0.210 C 
ENDBRANCH  10  15
ENDBRANCH   1   9
BRANCH   2  17
HETATM   17  N2  UNL     1      25.481   8.526   3.535  1.00  0.00    -0.233 N 
ATOM     18  H22 UNL     1      26.399   8.572   3.976  1.00  0.00     0.174 HD
ATOM     19  H21 UNL     1      25.469   9.219   2.787  1.00  0.00     0.174 HD
ENDBRANCH   2  17
TORSDOF 3
ENDMDL
MODEL 5
REMARK VINA RESULT: -5.488224194      3.178      4.021
REMARK  3 active torsions:
REMARK  status: ('A' for Active; 'I' for Inactive)
REMARK    1  A    between atoms: O1_2  and  C2_3 
REMARK    2  A    between atoms: C7_8  and  N1_9 
REMARK    3  A    between atoms: C8_10  and  N2_11 
ROOT
HETATM    1  N1  UNL     1      21.509   5.728   7.379  1.00  0.00    -0.117 N 
HETATM    2  C8  UNL     1      21.948   5.434   6.147  1.00  0.00     0.700 A 
HETATM    3  N3  UNL     1      21.254   6.191   5.285  1.00  0.00    -0.130 N 
ATOM      4  H3  UNL     1      21.374   6.180   4.272  1.00  0.00     0.205 HD
HETATM    5  N4  UNL     1      20.391   6.953   5.934  1.00  0.00    -0.261 N 
ATOM      6  H4  UNL     1      19.737   7.624   5.532  1.00  0.00     0.190 HD
HETATM    7  C9  UNL     1      20.556   6.659   7.237  1.00  0.00     0.213 A 
HETATM    8  S1  UNL     1      19.669   7.387   8.425  1.00  0.00    -0.038 SA
ENDROOT
BRANCH   1   9
HETATM    9  C7  UNL     1      21.947   5.178   8.605  1.00  0.00     0.093 A 
HETATM   10  C2  UNL     1      21.442   4.006   9.130  1.00  0.00     0.096 A 
HETATM   11  C3  UNL     1      21.924   3.517  10.350  1.00  0.00     0.039 A 
HETATM   12  C4  UNL     1      22.909   4.213  11.032  1.00  0.00     0.003 A 
HETATM   13  C5  UNL     1      23.420   5.385  10.514  1.00  0.00     0.002 A 
HETATM   14  C6  UNL     1      22.937   5.865   9.301  1.00  0.00     0.034 A 
BRANCH  10  15
HETATM   15  O1  UNL     1      20.466   3.314   8.457  1.00  0.00    -0.354 OA
HETATM   16  C1  UNL     1      19.110   3.409   8.849  1.00  0.00     0.210 C 
ENDBRANCH  10  15
ENDBRANCH   1   9
BRANCH   2  17
HETATM   17  N2  UNL     1      22.880   4.573   5.815  1.00  0.00    -0.233 N 
ATOM     18  H22 UNL     1      22.715   3.598   5.566  1.00  0.00     0.174 HD
ATOM     19  H21 UNL     1      23.885   4.736   5.754  1.00  0.00     0.174 HD
ENDBRANCH   2  17
TORSDOF 3
ENDMDL
