MODEL 1
REMARK VINA RESULT: -5.859129075      0.000      0.000
REMARK  5 active torsions:
REMARK  status: ('A' for Active; 'I' for Inactive)
REMARK    1  A    between atoms: S1_3  and  C2_4 
REMARK    2  A    between atoms: C6_8  and  N2_9 
REMARK    3  A    between atoms: N2_9  and  C7_11 
REMARK    4  A    between atoms: C7_11  and  N3_13 
REMARK    5  A    between atoms: N3_13  and  N4_15 
ROOT
HETATM    1  N1  UNL     1      26.082   8.046   9.118  1.00  0.00    -0.184 NA
HETATM    2  C1  UNL     1      25.019   7.558   9.104  1.00  0.00     0.139 C 
HETATM    3  S1  UNL     1      23.426   6.799   9.068  1.00  0.00    -0.011 SA
ENDROOT
BRANCH   3   4
HETATM    4  C2  UNL     1      23.402   5.557  10.355  1.00  0.00     0.017 A 
HETATM    5  C3  UNL     1      22.571   4.465  10.240  1.00  0.00     0.019 A 
HETATM    6  C4  UNL     1      22.499   3.473  11.188  1.00  0.00     0.004 A 
HETATM    7  C5  UNL     1      23.325   3.603  12.323  1.00  0.00     0.029 A 
HETATM    8  C6  UNL     1      24.165   4.656  12.488  1.00  0.00     0.035 A 
HETATM    9  C8  UNL     1      24.187   5.640  11.475  1.00  0.00     0.049 A 
BRANCH   8  10
HETATM   10  N2  UNL     1      25.032   4.832  13.569  1.00  0.00    -0.332 N 
ATOM     11  H2  UNL     1      25.943   4.384  13.471  1.00  0.00     0.168 HD
BRANCH  10  12
HETATM   12  C7  UNL     1      24.840   5.532  14.767  1.00  0.00     0.190 C 
HETATM   13  S2  UNL     1      24.980   7.136  14.853  1.00  0.00    -0.039 SA
BRANCH  12  14
HETATM   14  N3  UNL     1      24.477   4.831  15.948  1.00  0.00    -0.283 N 
ATOM     15  H3  UNL     1      23.760   4.105  15.932  1.00  0.00     0.188 HD
BRANCH  14  16
HETATM   16  N4  UNL     1      25.140   5.175  17.140  1.00  0.00    -0.343 N 
ATOM     17  H42 UNL     1      24.845   5.991  17.676  1.00  0.00     0.176 HD
ATOM     18  H41 UNL     1      25.916   4.582  17.436  1.00  0.00     0.176 HD
ENDBRANCH  14  16
ENDBRANCH  12  14
ENDBRANCH  10  12
ENDBRANCH   8  10
ENDBRANCH   3   4
TORSDOF 5
ENDMDL
MODEL 2
REMARK VINA RESULT: -5.818379330      1.079      1.079
REMARK  5 active torsions:
REMARK  status: ('A' for Active; 'I' for Inactive)
REMARK    1  A    between atoms: S1_3  and  C2_4 
REMARK    2  A    between atoms: C6_8  and  N2_9 
REMARK    3  A    between atoms: N2_9  and  C7_11 
REMARK    4  A    between atoms: C7_11  and  N3_13 
REMARK    5  A    between atoms: N3_13  and  N4_15 
ROOT
HETATM    1  N1  UNL     1      26.294   7.956   9.164  1.00  0.00    -0.184 NA
HETATM    2  C1  UNL     1      25.192   7.561   9.147  1.00  0.00     0.139 C 
HETATM    3  S1  UNL     1      23.540   6.942   9.105  1.00  0.00    -0.011 SA
ENDROOT
BRANCH   3   4
HETATM    4  C2  UNL     1      23.425   5.656  10.342  1.00  0.00     0.017 A 
HETATM    5  C3  UNL     1      22.626   4.557  10.118  1.00  0.00     0.019 A 
HETATM    6  C4  UNL     1      22.488   3.532  11.022  1.00  0.00     0.004 A 
HETATM    7  C5  UNL     1      23.210   3.632  12.228  1.00  0.00     0.029 A 
HETATM    8  C6  UNL     1      24.015   4.690  12.502  1.00  0.00     0.035 A 
HETATM    9  C8  UNL     1      24.109   5.710  11.528  1.00  0.00     0.049 A 
BRANCH   8  10
HETATM   10  N2  UNL     1      24.782   4.840  13.659  1.00  0.00    -0.332 N 
ATOM     11  H2  UNL     1      25.684   4.365  13.646  1.00  0.00     0.168 HD
BRANCH  10  12
HETATM   12  C7  UNL     1      24.500   5.546  14.837  1.00  0.00     0.190 C 
HETATM   13  S2  UNL     1      22.996   5.952  15.250  1.00  0.00    -0.039 SA
BRANCH  12  14
HETATM   14  N3  UNL     1      25.552   5.893  15.725  1.00  0.00    -0.283 N 
ATOM     15  H3  UNL     1      25.477   5.721  16.727  1.00  0.00     0.188 HD
BRANCH  14  16
HETATM   16  N4  UNL     1      26.702   6.486  15.171  1.00  0.00    -0.343 N 
ATOM     17  H42 UNL     1      27.598   6.000  15.206  1.00  0.00     0.176 HD
ATOM     18  H41 UNL     1      26.599   7.405  14.741  1.00  0.00     0.176 HD
ENDBRANCH  14  16
ENDBRANCH  12  14
ENDBRANCH  10  12
ENDBRANCH   8  10
ENDBRANCH   3   4
TORSDOF 5
ENDMDL
MODEL 3
REMARK VINA RESULT: -5.531276057      1.450      1.507
REMARK  5 active torsions:
REMARK  status: ('A' for Active; 'I' for Inactive)
REMARK    1  A    between atoms: S1_3  and  C2_4 
REMARK    2  A    between atoms: C6_8  and  N2_9 
REMARK    3  A    between atoms: N2_9  and  C7_11 
REMARK    4  A    between atoms: C7_11  and  N3_13 
REMARK    5  A    between atoms: N3_13  and  N4_15 
ROOT
HETATM    1  N1  UNL     1      24.999   7.192   7.661  1.00  0.00    -0.184 NA
HETATM    2  C1  UNL     1      24.545   7.429   8.713  1.00  0.00     0.139 C 
HETATM    3  S1  UNL     1      23.836   7.777  10.291  1.00  0.00    -0.011 SA
ENDROOT
BRANCH   3   4
HETATM    4  C2  UNL     1      23.756   6.232  11.188  1.00  0.00     0.017 A 
HETATM    5  C3  UNL     1      23.155   5.134  10.614  1.00  0.00     0.019 A 
HETATM    6  C4  UNL     1      23.057   3.917  11.243  1.00  0.00     0.004 A 
HETATM    7  C5  UNL     1      23.604   3.812  12.537  1.00  0.00     0.029 A 
HETATM    8  C6  UNL     1      24.210   4.860  13.152  1.00  0.00     0.035 A 
HETATM    9  C8  UNL     1      24.275   6.083  12.447  1.00  0.00     0.049 A 
BRANCH   8  10
HETATM   10  N2  UNL     1      24.801   4.819  14.416  1.00  0.00    -0.332 N 
ATOM     11  H2  UNL     1      25.465   4.058  14.560  1.00  0.00     0.168 HD
BRANCH  10  12
HETATM   12  C7  UNL     1      24.620   5.666  15.518  1.00  0.00     0.190 C 
HETATM   13  S2  UNL     1      23.173   5.896  16.190  1.00  0.00    -0.039 SA
BRANCH  12  14
HETATM   14  N3  UNL     1      25.736   6.324  16.097  1.00  0.00    -0.283 N 
ATOM     15  H3  UNL     1      25.738   6.599  17.080  1.00  0.00     0.188 HD
BRANCH  14  16
HETATM   16  N4  UNL     1      26.841   6.586  15.266  1.00  0.00    -0.343 N 
ATOM     17  H42 UNL     1      27.582   7.213  15.578  1.00  0.00     0.176 HD
ATOM     18  H41 UNL     1      26.865   6.127  14.355  1.00  0.00     0.176 HD
ENDBRANCH  14  16
ENDBRANCH  12  14
ENDBRANCH  10  12
ENDBRANCH   8  10
ENDBRANCH   3   4
TORSDOF 5
ENDMDL
MODEL 4
REMARK VINA RESULT: -5.519145182      1.814      1.863
REMARK  5 active torsions:
REMARK  status: ('A' for Active; 'I' for Inactive)
REMARK    1  A    between atoms: S1_3  and  C2_4 
REMARK    2  A    between atoms: C6_8  and  N2_9 
REMARK    3  A    between atoms: N2_9  and  C7_11 
REMARK    4  A    between atoms: C7_11  and  N3_13 
REMARK    5  A    between atoms: N3_13  and  N4_15 
ROOT
HETATM    1  N1  UNL     1      22.591   4.980   6.144  1.00  0.00    -0.184 NA
HETATM    2  C1  UNL     1      22.604   5.618   7.125  1.00  0.00     0.139 C 
HETATM    3  S1  UNL     1      22.597   6.571   8.610  1.00  0.00    -0.011 SA
ENDROOT
BRANCH   3   4
HETATM    4  C2  UNL     1      22.879   5.440   9.967  1.00  0.00     0.017 A 
HETATM    5  C3  UNL     1      22.171   4.261  10.037  1.00  0.00     0.019 A 
HETATM    6  C4  UNL     1      22.334   3.346  11.048  1.00  0.00     0.004 A 
HETATM    7  C5  UNL     1      23.276   3.651  12.050  1.00  0.00     0.029 A 
HETATM    8  C6  UNL     1      24.004   4.797  12.032  1.00  0.00     0.035 A 
HETATM    9  C8  UNL     1      23.785   5.694  10.963  1.00  0.00     0.049 A 
BRANCH   8  10
HETATM   10  N2  UNL     1      24.976   5.149  12.971  1.00  0.00    -0.332 N 
ATOM     11  H2  UNL     1      25.937   5.117  12.633  1.00  0.00     0.168 HD
BRANCH  10  12
HETATM   12  C7  UNL     1      24.829   5.540  14.309  1.00  0.00     0.190 C 
HETATM   13  S2  UNL     1      24.459   7.053  14.722  1.00  0.00    -0.039 SA
BRANCH  12  14
HETATM   14  N3  UNL     1      24.973   4.581  15.348  1.00  0.00    -0.283 N 
ATOM     15  H3  UNL     1      25.331   3.645  15.158  1.00  0.00     0.188 HD
BRANCH  14  16
HETATM   16  N4  UNL     1      24.603   4.971  16.648  1.00  0.00    -0.343 N 
ATOM     17  H42 UNL     1      24.257   5.914  16.824  1.00  0.00     0.176 HD
ATOM     18  H41 UNL     1      24.694   4.278  17.392  1.00  0.00     0.176 HD
ENDBRANCH  14  16
ENDBRANCH  12  14
ENDBRANCH  10  12
ENDBRANCH   8  10
ENDBRANCH   3   4
TORSDOF 5
ENDMDL
MODEL 5
REMARK VINA RESULT: -5.410000988      1.619      1.629
REMARK  5 active torsions:
REMARK  status: ('A' for Active; 'I' for Inactive)
REMARK    1  A    between atoms: S1_3  and  C2_4 
REMARK    2  A    between atoms: C6_8  and  N2_9 
REMARK    3  A    between atoms: N2_9  and  C7_11 
REMARK    4  A    between atoms: C7_11  and  N3_13 
REMARK    5  A    between atoms: N3_13  and  N4_15 
ROOT
HETATM    1  N1  UNL     1      23.842   6.814   6.661  1.00  0.00    -0.184 NA
HETATM    2  C1  UNL     1      23.799   7.089   7.798  1.00  0.00     0.139 C 
HETATM    3  S1  UNL     1      23.706   7.502   9.511  1.00  0.00    -0.011 SA
ENDROOT
BRANCH   3   4
HETATM    4  C2  UNL     1      23.448   5.978  10.410  1.00  0.00     0.017 A 
HETATM    5  C3  UNL     1      22.635   4.999   9.883  1.00  0.00     0.019 A 
HETATM    6  C4  UNL     1      22.390   3.805  10.517  1.00  0.00     0.004 A 
HETATM    7  C5  UNL     1      23.012   3.595  11.763  1.00  0.00     0.029 A 
HETATM    8  C6  UNL     1      23.824   4.523  12.330  1.00  0.00     0.035 A 
HETATM    9  C8  UNL     1      24.032   5.730  11.624  1.00  0.00     0.049 A 
BRANCH   8  10
HETATM   10  N2  UNL     1      24.497   4.370  13.544  1.00  0.00    -0.332 N 
ATOM     11  H2  UNL     1      24.700   3.406  13.809  1.00  0.00     0.168 HD
BRANCH  10  12
HETATM   12  C7  UNL     1      24.937   5.342  14.454  1.00  0.00     0.190 C 
HETATM   13  S2  UNL     1      23.955   5.986  15.557  1.00  0.00    -0.039 SA
BRANCH  12  14
HETATM   14  N3  UNL     1      26.294   5.761  14.443  1.00  0.00    -0.283 N 
ATOM     15  H3  UNL     1      26.990   5.284  13.870  1.00  0.00     0.188 HD
BRANCH  14  16
HETATM   16  N4  UNL     1      26.642   6.859  15.250  1.00  0.00    -0.343 N 
ATOM     17  H42 UNL     1      26.342   6.897  16.224  1.00  0.00     0.176 HD
ATOM     18  H41 UNL     1      27.198   7.601  14.824  1.00  0.00     0.176 HD
ENDBRANCH  14  16
ENDBRANCH  12  14
ENDBRANCH  10  12
ENDBRANCH   8  10
ENDBRANCH   3   4
TORSDOF 5
ENDMDL
