MODEL 1
REMARK VINA RESULT: -5.308812596      0.000      0.000
REMARK  4 active torsions:
REMARK  status: ('A' for Active; 'I' for Inactive)
REMARK    1  A    between atoms: N1_2  and  C2_4 
REMARK    2  A    between atoms: C2_4  and  N2_6 
REMARK    3  A    between atoms: N2_6  and  N3_8 
REMARK    4  A    between atoms: C3_10  and  C4_11 
ROOT
HETATM    1  N3  UNL     1      23.616   6.410   7.230  1.00  0.00    -0.309 N 
ATOM      2  H3  UNL     1      23.641   5.415   7.002  1.00  0.00     0.186 HD
HETATM    3  C3  UNL     1      23.386   6.763   8.442  1.00  0.00     0.121 C 
ENDROOT
BRANCH   1   4
HETATM    4  N2  UNL     1      23.831   7.337   6.218  1.00  0.00    -0.277 N 
ATOM      5  H2  UNL     1      23.122   8.054   6.068  1.00  0.00     0.189 HD
BRANCH   4   6
HETATM    6  C2  UNL     1      24.965   7.350   5.388  1.00  0.00     0.186 C 
HETATM    7  S1  UNL     1      24.852   7.882   3.860  1.00  0.00    -0.040 SA
BRANCH   6   8
HETATM    8  N1  UNL     1      26.213   6.900   5.876  1.00  0.00    -0.370 N 
HETATM    9  C1  UNL     1      26.798   7.542   7.027  1.00  0.00     0.148 C 
ATOM     10  H1  UNL     1      26.695   6.127   5.417  1.00  0.00     0.161 HD
ENDBRANCH   6   8
ENDBRANCH   4   6
ENDBRANCH   1   4
BRANCH   3  11
HETATM   11  C4  UNL     1      23.158   5.739   9.507  1.00  0.00     0.013 A 
HETATM   12  C5  UNL     1      23.815   5.708  10.685  1.00  0.00     0.029 A 
HETATM   13  C6  UNL     1      23.492   4.705  11.557  1.00  0.00    -0.019 A 
HETATM   14  C7  UNL     1      24.081   4.456  12.928  1.00  0.00     0.056 C 
HETATM   15  S2  UNL     1      22.289   3.836  10.722  1.00  0.00    -0.079 SA
HETATM   16  C8  UNL     1      22.224   4.759   9.296  1.00  0.00     0.099 A 
HETATM   17  N4  UNL     1      21.378   4.537   8.155  1.00  0.00    -0.093 NA
ENDBRANCH   3  11
TORSDOF 4
ENDMDL
MODEL 2
REMARK VINA RESULT: -5.291951151      4.399      7.057
REMARK  4 active torsions:
REMARK  status: ('A' for Active; 'I' for Inactive)
REMARK    1  A    between atoms: N1_2  and  C2_4 
REMARK    2  A    between atoms: C2_4  and  N2_6 
REMARK    3  A    between atoms: N2_6  and  N3_8 
REMARK    4  A    between atoms: C3_10  and  C4_11 
ROOT
HETATM    1  N3  UNL     1      24.842   4.897  12.960  1.00  0.00    -0.309 N 
ATOM      2  H3  UNL     1      25.515   5.282  12.297  1.00  0.00     0.186 HD
HETATM    3  C3  UNL     1      23.643   4.667  12.566  1.00  0.00     0.121 C 
ENDROOT
BRANCH   1   4
HETATM    4  N2  UNL     1      25.254   4.641  14.263  1.00  0.00    -0.277 N 
ATOM      5  H2  UNL     1      25.820   3.810  14.430  1.00  0.00     0.189 HD
BRANCH   4   6
HETATM    6  C2  UNL     1      24.939   5.456  15.364  1.00  0.00     0.186 C 
HETATM    7  S1  UNL     1      25.053   7.070  15.244  1.00  0.00    -0.040 SA
BRANCH   6   8
HETATM    8  N1  UNL     1      24.520   4.878  16.584  1.00  0.00    -0.370 N 
HETATM    9  C1  UNL     1      24.902   5.494  17.830  1.00  0.00     0.148 C 
ATOM     10  H1  UNL     1      23.950   4.032  16.582  1.00  0.00     0.161 HD
ENDBRANCH   6   8
ENDBRANCH   4   6
ENDBRANCH   1   4
BRANCH   3  11
HETATM   11  C4  UNL     1      23.233   4.955  11.158  1.00  0.00     0.013 A 
HETATM   12  C5  UNL     1      22.468   4.136  10.406  1.00  0.00     0.029 A 
HETATM   13  C6  UNL     1      22.178   4.542   9.133  1.00  0.00    -0.019 A 
HETATM   14  C7  UNL     1      21.348   3.808   8.102  1.00  0.00     0.056 C 
HETATM   15  S2  UNL     1      22.971   6.044   9.013  1.00  0.00    -0.079 SA
HETATM   16  C8  UNL     1      23.647   6.122  10.571  1.00  0.00     0.099 A 
HETATM   17  N4  UNL     1      24.459   7.176  11.115  1.00  0.00    -0.093 NA
ENDBRANCH   3  11
TORSDOF 4
ENDMDL
MODEL 3
REMARK VINA RESULT: -5.273776027      4.466      6.983
REMARK  4 active torsions:
REMARK  status: ('A' for Active; 'I' for Inactive)
REMARK    1  A    between atoms: N1_2  and  C2_4 
REMARK    2  A    between atoms: C2_4  and  N2_6 
REMARK    3  A    between atoms: N2_6  and  N3_8 
REMARK    4  A    between atoms: C3_10  and  C4_11 
ROOT
HETATM    1  N3  UNL     1      24.027   4.868  13.748  1.00  0.00    -0.309 N 
ATOM      2  H3  UNL     1      23.035   4.637  13.681  1.00  0.00     0.186 HD
HETATM    3  C3  UNL     1      24.646   5.262  12.696  1.00  0.00     0.121 C 
ENDROOT
BRANCH   1   4
HETATM    4  N2  UNL     1      24.663   4.744  14.977  1.00  0.00    -0.277 N 
ATOM      5  H2  UNL     1      25.170   3.881  15.168  1.00  0.00     0.189 HD
BRANCH   4   6
HETATM    6  C2  UNL     1      24.653   5.736  15.974  1.00  0.00     0.186 C 
HETATM    7  S1  UNL     1      23.274   6.102  16.746  1.00  0.00    -0.040 SA
BRANCH   6   8
HETATM    8  N1  UNL     1      25.841   6.421  16.313  1.00  0.00    -0.370 N 
HETATM    9  C1  UNL     1      26.429   7.335  15.365  1.00  0.00     0.148 C 
ATOM     10  H1  UNL     1      26.280   6.270  17.221  1.00  0.00     0.161 HD
ENDBRANCH   6   8
ENDBRANCH   4   6
ENDBRANCH   1   4
BRANCH   3  11
HETATM   11  C4  UNL     1      23.930   5.382  11.388  1.00  0.00     0.013 A 
HETATM   12  C5  UNL     1      24.102   6.400  10.519  1.00  0.00     0.029 A 
HETATM   13  C6  UNL     1      23.373   6.367   9.363  1.00  0.00    -0.019 A 
HETATM   14  C7  UNL     1      23.387   7.381   8.240  1.00  0.00     0.056 C 
HETATM   15  S2  UNL     1      22.473   4.929   9.511  1.00  0.00    -0.079 SA
HETATM   16  C8  UNL     1      23.039   4.407  11.027  1.00  0.00     0.099 A 
HETATM   17  N4  UNL     1      22.652   3.218  11.737  1.00  0.00    -0.093 NA
ENDBRANCH   3  11
TORSDOF 4
ENDMDL
MODEL 4
REMARK VINA RESULT: -5.255733767      1.080      1.136
REMARK  4 active torsions:
REMARK  status: ('A' for Active; 'I' for Inactive)
REMARK    1  A    between atoms: N1_2  and  C2_4 
REMARK    2  A    between atoms: C2_4  and  N2_6 
REMARK    3  A    between atoms: N2_6  and  N3_8 
REMARK    4  A    between atoms: C3_10  and  C4_11 
ROOT
HETATM    1  N3  UNL     1      23.418   6.087   8.001  1.00  0.00    -0.309 N 
ATOM      2  H3  UNL     1      23.677   5.111   7.854  1.00  0.00     0.186 HD
HETATM    3  C3  UNL     1      23.209   6.501   9.197  1.00  0.00     0.121 C 
ENDROOT
BRANCH   1   4
HETATM    4  N2  UNL     1      23.302   6.924   6.898  1.00  0.00    -0.277 N 
ATOM      5  H2  UNL     1      22.375   7.058   6.494  1.00  0.00     0.189 HD
BRANCH   4   6
HETATM    6  C2  UNL     1      24.382   7.600   6.304  1.00  0.00     0.186 C 
HETATM    7  S1  UNL     1      24.515   7.664   4.688  1.00  0.00    -0.040 SA
BRANCH   6   8
HETATM    8  N1  UNL     1      25.360   8.230   7.106  1.00  0.00    -0.370 N 
HETATM    9  C1  UNL     1      26.641   7.595   7.294  1.00  0.00     0.148 C 
ATOM     10  H1  UNL     1      25.161   9.127   7.549  1.00  0.00     0.161 HD
ENDBRANCH   6   8
ENDBRANCH   4   6
ENDBRANCH   1   4
BRANCH   3  11
HETATM   11  C4  UNL     1      23.341   5.572  10.361  1.00  0.00     0.013 A 
HETATM   12  C5  UNL     1      24.192   5.761  11.391  1.00  0.00     0.029 A 
HETATM   13  C6  UNL     1      24.195   4.819  12.383  1.00  0.00    -0.019 A 
HETATM   14  C7  UNL     1      25.050   4.805  13.631  1.00  0.00     0.056 C 
HETATM   15  S2  UNL     1      23.021   3.702  11.862  1.00  0.00    -0.079 SA
HETATM   16  C8  UNL     1      22.556   4.450  10.408  1.00  0.00     0.099 A 
HETATM   17  N4  UNL     1      21.569   3.989   9.470  1.00  0.00    -0.093 NA
ENDBRANCH   3  11
TORSDOF 4
ENDMDL
MODEL 5
REMARK VINA RESULT: -5.248391082      4.909      7.624
REMARK  4 active torsions:
REMARK  status: ('A' for Active; 'I' for Inactive)
REMARK    1  A    between atoms: N1_2  and  C2_4 
REMARK    2  A    between atoms: C2_4  and  N2_6 
REMARK    3  A    between atoms: N2_6  and  N3_8 
REMARK    4  A    between atoms: C3_10  and  C4_11 
ROOT
HETATM    1  N3  UNL     1      24.157   5.214  14.101  1.00  0.00    -0.309 N 
ATOM      2  H3  UNL     1      23.337   5.822  14.126  1.00  0.00     0.186 HD
HETATM    3  C3  UNL     1      24.540   4.735  12.974  1.00  0.00     0.121 C 
ENDROOT
BRANCH   1   4
HETATM    4  N2  UNL     1      24.822   4.933  15.288  1.00  0.00    -0.277 N 
ATOM      5  H2  UNL     1      25.625   4.307  15.249  1.00  0.00     0.189 HD
BRANCH   4   6
HETATM    6  C2  UNL     1      24.457   5.457  16.540  1.00  0.00     0.186 C 
HETATM    7  S1  UNL     1      23.052   6.250  16.714  1.00  0.00    -0.040 SA
BRANCH   6   8
HETATM    8  N1  UNL     1      25.307   5.297  17.657  1.00  0.00    -0.370 N 
HETATM    9  C1  UNL     1      26.059   6.427  18.145  1.00  0.00     0.148 C 
ATOM     10  H1  UNL     1      25.388   4.390  18.116  1.00  0.00     0.161 HD
ENDBRANCH   6   8
ENDBRANCH   4   6
ENDBRANCH   1   4
BRANCH   3  11
HETATM   11  C4  UNL     1      23.800   5.058  11.715  1.00  0.00     0.013 A 
HETATM   12  C5  UNL     1      23.059   4.170  11.021  1.00  0.00     0.029 A 
HETATM   13  C6  UNL     1      22.442   4.620   9.886  1.00  0.00    -0.019 A 
HETATM   14  C7  UNL     1      21.565   3.826   8.943  1.00  0.00     0.056 C 
HETATM   15  S2  UNL     1      22.905   6.257   9.815  1.00  0.00    -0.079 SA
HETATM   16  C8  UNL     1      23.864   6.332  11.216  1.00  0.00     0.099 A 
HETATM   17  N4  UNL     1      24.564   7.478  11.730  1.00  0.00    -0.093 NA
ENDBRANCH   3  11
TORSDOF 4
ENDMDL
