MODEL 1
REMARK VINA RESULT: -5.835114965      0.000      0.000
REMARK  2 active torsions:
REMARK  status: ('A' for Active; 'I' for Inactive)
REMARK    1  A    between atoms: N1_2  and  C2_4 
REMARK    2  A    between atoms: C7_9  and  C8_10 
ROOT
HETATM    1  C8  UNL     1     -35.007   4.347  12.980  1.00  0.00     0.156 C 
HETATM    2  C9  UNL     1     -35.753   3.189  12.509  1.00  0.00     0.061 C 
HETATM    3  N2  UNL     1     -36.355   2.290  12.143  1.00  0.00    -0.197 NA
ENDROOT
BRANCH   1   4
HETATM    4  C7  UNL     1     -35.348   4.758  14.348  1.00  0.00     0.199 C 
HETATM    5  C6  UNL     1     -34.820   6.149  14.731  1.00  0.00     0.040 C 
HETATM    6  C5  UNL     1     -35.371   6.070  16.166  1.00  0.00     0.018 C 
HETATM    7  C4  UNL     1     -34.957   7.147  17.067  1.00  0.00     0.009 C 
HETATM    8  C10 UNL     1     -34.697   4.742  16.547  1.00  0.00     0.192 C 
HETATM    9  C3  UNL     1     -34.929   6.562  18.489  1.00  0.00     0.025 C 
HETATM   10  C2  UNL     1     -35.875   5.365  18.561  1.00  0.00     0.078 C 
HETATM   11  C11 UNL     1     -35.262   4.195  17.812  1.00  0.00     0.058 C 
HETATM   12  N3  UNL     1     -34.829   3.908  15.397  1.00  0.00    -0.065 N 
ATOM     13  H32 UNL     1     -35.392   3.073  15.562  1.00  0.00     0.278 HD
ATOM     14  H31 UNL     1     -33.967   3.426  15.142  1.00  0.00     0.278 HD
BRANCH  10  15
HETATM   15  N1  UNL     1     -36.297   5.041  19.879  1.00  0.00    -0.421 N 
HETATM   16  C1  UNL     1     -35.821   3.798  20.395  1.00  0.00     0.140 C 
ATOM     17  H1  UNL     1     -36.902   5.657  20.422  1.00  0.00     0.153 HD
ENDBRANCH  10  15
ENDBRANCH   1   4
TORSDOF 2
ENDMDL
MODEL 2
REMARK VINA RESULT: -5.826894609      2.172      5.576
REMARK  2 active torsions:
REMARK  status: ('A' for Active; 'I' for Inactive)
REMARK    1  A    between atoms: N1_2  and  C2_4 
REMARK    2  A    between atoms: C7_9  and  C8_10 
ROOT
HETATM    1  C8  UNL     1     -33.190   4.849  19.844  1.00  0.00     0.156 C 
HETATM    2  C9  UNL     1     -32.433   5.882  20.539  1.00  0.00     0.061 C 
HETATM    3  N2  UNL     1     -31.856   6.705  21.080  1.00  0.00    -0.197 NA
ENDROOT
BRANCH   1   4
HETATM    4  C7  UNL     1     -33.617   5.232  18.492  1.00  0.00     0.199 C 
HETATM    5  C6  UNL     1     -34.487   6.498  18.449  1.00  0.00     0.040 C 
HETATM    6  C5  UNL     1     -34.684   6.426  16.924  1.00  0.00     0.018 C 
HETATM    7  C4  UNL     1     -35.652   7.371  16.362  1.00  0.00     0.009 C 
HETATM    8  C10 UNL     1     -35.226   4.988  16.877  1.00  0.00     0.192 C 
HETATM    9  C3  UNL     1     -36.258   6.710  15.113  1.00  0.00     0.025 C 
HETATM   10  C2  UNL     1     -35.277   5.677  14.562  1.00  0.00     0.078 C 
HETATM   11  C11 UNL     1     -35.253   4.468  15.481  1.00  0.00     0.058 C 
HETATM   12  N3  UNL     1     -34.424   4.252  17.798  1.00  0.00    -0.065 N 
ATOM     13  H32 UNL     1     -33.878   3.510  17.361  1.00  0.00     0.278 HD
ATOM     14  H31 UNL     1     -34.966   3.654  18.422  1.00  0.00     0.278 HD
BRANCH  10  15
HETATM   15  N1  UNL     1     -35.488   5.350  13.195  1.00  0.00    -0.421 N 
HETATM   16  C1  UNL     1     -35.024   4.065  12.786  1.00  0.00     0.140 C 
ATOM     17  H1  UNL     1     -35.943   5.994  12.548  1.00  0.00     0.153 HD
ENDBRANCH  10  15
ENDBRANCH   1   4
TORSDOF 2
ENDMDL
MODEL 3
REMARK VINA RESULT: -5.731728117      1.483      5.328
REMARK  2 active torsions:
REMARK  status: ('A' for Active; 'I' for Inactive)
REMARK    1  A    between atoms: N1_2  and  C2_4 
REMARK    2  A    between atoms: C7_9  and  C8_10 
ROOT
HETATM    1  C8  UNL     1     -35.503   4.034  20.048  1.00  0.00     0.156 C 
HETATM    2  C9  UNL     1     -36.787   4.537  20.515  1.00  0.00     0.061 C 
HETATM    3  N2  UNL     1     -37.803   4.921  20.866  1.00  0.00    -0.197 NA
ENDROOT
BRANCH   1   4
HETATM    4  C7  UNL     1     -35.221   4.339  18.639  1.00  0.00     0.199 C 
HETATM    5  C6  UNL     1     -34.355   5.592  18.434  1.00  0.00     0.040 C 
HETATM    6  C5  UNL     1     -34.403   5.491  16.898  1.00  0.00     0.018 C 
HETATM    7  C4  UNL     1     -33.840   6.629  16.168  1.00  0.00     0.009 C 
HETATM    8  C10 UNL     1     -35.934   5.453  16.766  1.00  0.00     0.192 C 
HETATM    9  C3  UNL     1     -34.600   6.732  14.836  1.00  0.00     0.025 C 
HETATM   10  C2  UNL     1     -35.175   5.363  14.474  1.00  0.00     0.078 C 
HETATM   11  C11 UNL     1     -36.345   5.053  15.391  1.00  0.00     0.058 C 
HETATM   12  N3  UNL     1     -36.384   4.603  17.819  1.00  0.00    -0.065 N 
ATOM     13  H32 UNL     1     -36.851   3.758  17.490  1.00  0.00     0.278 HD
ATOM     14  H31 UNL     1     -37.173   4.985  18.341  1.00  0.00     0.278 HD
BRANCH  10  15
HETATM   15  N1  UNL     1     -35.474   5.208  13.094  1.00  0.00    -0.421 N 
HETATM   16  C1  UNL     1     -35.228   3.914  12.547  1.00  0.00     0.140 C 
ATOM     17  H1  UNL     1     -35.842   5.974  12.530  1.00  0.00     0.153 HD
ENDBRANCH  10  15
ENDBRANCH   1   4
TORSDOF 2
ENDMDL
MODEL 4
REMARK VINA RESULT: -5.675084981      1.862      5.478
REMARK  2 active torsions:
REMARK  status: ('A' for Active; 'I' for Inactive)
REMARK    1  A    between atoms: N1_2  and  C2_4 
REMARK    2  A    between atoms: C7_9  and  C8_10 
ROOT
HETATM    1  C8  UNL     1     -34.410   6.016  19.024  1.00  0.00     0.156 C 
HETATM    2  C9  UNL     1     -33.381   5.041  19.357  1.00  0.00     0.061 C 
HETATM    3  N2  UNL     1     -32.564   4.283  19.603  1.00  0.00    -0.197 NA
ENDROOT
BRANCH   1   4
HETATM    4  C7  UNL     1     -34.914   5.902  17.649  1.00  0.00     0.199 C 
HETATM    5  C6  UNL     1     -36.351   5.368  17.555  1.00  0.00     0.040 C 
HETATM    6  C5  UNL     1     -36.363   5.396  16.015  1.00  0.00     0.018 C 
HETATM    7  C4  UNL     1     -37.525   4.773  15.377  1.00  0.00     0.009 C 
HETATM    8  C10 UNL     1     -35.098   4.548  15.808  1.00  0.00     0.192 C 
HETATM    9  C3  UNL     1     -37.056   4.229  14.017  1.00  0.00     0.025 C 
HETATM   10  C2  UNL     1     -35.831   5.015  13.554  1.00  0.00     0.078 C 
HETATM   11  C11 UNL     1     -34.631   4.616  14.395  1.00  0.00     0.058 C 
HETATM   12  N3  UNL     1     -34.171   5.005  16.790  1.00  0.00    -0.065 N 
ATOM     13  H32 UNL     1     -33.330   5.424  16.393  1.00  0.00     0.278 HD
ATOM     14  H31 UNL     1     -33.706   4.250  17.294  1.00  0.00     0.278 HD
BRANCH  10  15
HETATM   15  N1  UNL     1     -35.595   4.946  12.154  1.00  0.00    -0.421 N 
HETATM   16  C1  UNL     1     -35.958   3.718  11.524  1.00  0.00     0.140 C 
ATOM     17  H1  UNL     1     -35.192   5.724  11.633  1.00  0.00     0.153 HD
ENDBRANCH  10  15
ENDBRANCH   1   4
TORSDOF 2
ENDMDL
MODEL 5
REMARK VINA RESULT: -5.543311191      1.410      1.638
REMARK  2 active torsions:
REMARK  status: ('A' for Active; 'I' for Inactive)
REMARK    1  A    between atoms: N1_2  and  C2_4 
REMARK    2  A    between atoms: C7_9  and  C8_10 
ROOT
HETATM    1  C8  UNL     1     -34.568   3.891  13.250  1.00  0.00     0.156 C 
HETATM    2  C9  UNL     1     -35.629   3.117  12.620  1.00  0.00     0.061 C 
HETATM    3  N2  UNL     1     -36.473   2.525  12.130  1.00  0.00    -0.197 NA
ENDROOT
BRANCH   1   4
HETATM    4  C7  UNL     1     -34.867   4.296  14.630  1.00  0.00     0.199 C 
HETATM    5  C6  UNL     1     -36.211   5.022  14.789  1.00  0.00     0.040 C 
HETATM    6  C5  UNL     1     -36.018   5.251  16.299  1.00  0.00     0.018 C 
HETATM    7  C4  UNL     1     -37.008   6.118  16.942  1.00  0.00     0.009 C 
HETATM    8  C10 UNL     1     -34.652   5.949  16.204  1.00  0.00     0.192 C 
HETATM    9  C3  UNL     1     -36.302   6.814  18.118  1.00  0.00     0.025 C 
HETATM   10  C2  UNL     1     -35.119   5.962  18.574  1.00  0.00     0.078 C 
HETATM   11  C11 UNL     1     -34.008   6.056  17.543  1.00  0.00     0.058 C 
HETATM   12  N3  UNL     1     -33.921   5.218  15.221  1.00  0.00    -0.065 N 
ATOM     13  H32 UNL     1     -33.085   4.764  15.589  1.00  0.00     0.278 HD
ATOM     14  H31 UNL     1     -33.449   5.811  14.540  1.00  0.00     0.278 HD
BRANCH  10  15
HETATM   15  N1  UNL     1     -34.690   6.231  19.902  1.00  0.00    -0.421 N 
HETATM   16  C1  UNL     1     -33.336   5.891  20.197  1.00  0.00     0.140 C 
ATOM     17  H1  UNL     1     -35.311   6.641  20.600  1.00  0.00     0.153 HD
ENDBRANCH  10  15
ENDBRANCH   1   4
TORSDOF 2
ENDMDL
