MODEL 1
REMARK VINA RESULT: -4.997699498      0.000      0.000
REMARK  4 active torsions:
REMARK  status: ('A' for Active; 'I' for Inactive)
REMARK    1  A    between atoms: C6_8  and  S1_9 
REMARK    2  A    between atoms: S1_9  and  C7_10 
REMARK    3  A    between atoms: C7_10  and  C8_11 
REMARK    4  A    between atoms: C8_11  and  N2_12 
ROOT
HETATM    1  C1  UNL     1     -35.665   6.649  18.538  1.00  0.00     0.038 C 
HETATM    2  C2  UNL     1     -35.398   5.467  19.483  1.00  0.00     0.026 C 
HETATM    3  C3  UNL     1     -36.737   5.087  20.138  1.00  0.00     0.038 C 
HETATM    4  C4  UNL     1     -34.956   4.320  18.639  1.00  0.00     0.050 C 
HETATM    5  C5  UNL     1     -33.673   3.671  19.033  1.00  0.00     0.124 C 
HETATM    6  N1  UNL     1     -32.757   4.579  19.686  1.00  0.00    -0.371 N 
ATOM      7  H1  UNL     1     -31.758   4.393  19.596  1.00  0.00     0.161 HD
HETATM    8  C6  UNL     1     -33.116   5.604  20.371  1.00  0.00     0.136 C 
HETATM    9  N3  UNL     1     -34.497   5.882  20.509  1.00  0.00    -0.362 N 
ATOM     10  H3  UNL     1     -34.844   6.374  21.332  1.00  0.00     0.162 HD
ENDROOT
BRANCH   8  11
HETATM   11  S1  UNL     1     -31.874   6.649  21.130  1.00  0.00    -0.093 SA
BRANCH  11  12
HETATM   12  C7  UNL     1     -30.522   5.632  21.800  1.00  0.00     0.109 C 
BRANCH  12  13
HETATM   13  C8  UNL     1     -30.295   5.906  23.265  1.00  0.00     0.240 C 
BRANCH  13  14
HETATM   14  N2  UNL     1     -29.262   6.920  23.363  1.00  0.00    -0.079 N 
ATOM     15  H23 UNL     1     -28.920   7.048  24.316  1.00  0.00     0.274 HD
ATOM     16  H22 UNL     1     -28.380   6.631  22.943  1.00  0.00     0.274 HD
ATOM     17  H21 UNL     1     -29.635   7.778  22.956  1.00  0.00     0.274 HD
ENDBRANCH  13  14
ENDBRANCH  12  13
ENDBRANCH  11  12
ENDBRANCH   8  11
TORSDOF 4
ENDMDL
MODEL 2
REMARK VINA RESULT: -4.816080381      5.107      7.530
REMARK  4 active torsions:
REMARK  status: ('A' for Active; 'I' for Inactive)
REMARK    1  A    between atoms: C6_8  and  S1_9 
REMARK    2  A    between atoms: S1_9  and  C7_10 
REMARK    3  A    between atoms: C7_10  and  C8_11 
REMARK    4  A    between atoms: C8_11  and  N2_12 
ROOT
HETATM    1  C1  UNL     1     -34.472   7.283  16.670  1.00  0.00     0.038 C 
HETATM    2  C2  UNL     1     -34.905   5.879  17.117  1.00  0.00     0.026 C 
HETATM    3  C3  UNL     1     -34.326   5.641  18.522  1.00  0.00     0.038 C 
HETATM    4  C4  UNL     1     -36.393   5.891  17.228  1.00  0.00     0.050 C 
HETATM    5  C5  UNL     1     -37.116   4.823  16.482  1.00  0.00     0.124 C 
HETATM    6  N1  UNL     1     -36.409   4.379  15.302  1.00  0.00    -0.371 N 
ATOM      7  H1  UNL     1     -36.961   4.016  14.524  1.00  0.00     0.161 HD
HETATM    8  C6  UNL     1     -35.132   4.411  15.165  1.00  0.00     0.136 C 
HETATM    9  N3  UNL     1     -34.345   4.911  16.230  1.00  0.00    -0.362 N 
ATOM     10  H3  UNL     1     -33.388   4.584  16.362  1.00  0.00     0.162 HD
ENDROOT
BRANCH   8  11
HETATM   11  S1  UNL     1     -34.383   3.828  13.645  1.00  0.00    -0.093 SA
BRANCH  11  12
HETATM   12  C7  UNL     1     -35.366   4.371  12.213  1.00  0.00     0.109 C 
BRANCH  12  13
HETATM   13  C8  UNL     1     -36.225   3.255  11.675  1.00  0.00     0.240 C 
BRANCH  13  14
HETATM   14  N2  UNL     1     -36.091   2.127  12.577  1.00  0.00    -0.079 N 
ATOM     15  H23 UNL     1     -35.221   1.610  12.441  1.00  0.00     0.274 HD
ATOM     16  H22 UNL     1     -35.927   2.408  13.544  1.00  0.00     0.274 HD
ATOM     17  H21 UNL     1     -36.921   1.546  12.467  1.00  0.00     0.274 HD
ENDBRANCH  13  14
ENDBRANCH  12  13
ENDBRANCH  11  12
ENDBRANCH   8  11
TORSDOF 4
ENDMDL
MODEL 3
REMARK VINA RESULT: -4.748073622      3.669      6.076
REMARK  4 active torsions:
REMARK  status: ('A' for Active; 'I' for Inactive)
REMARK    1  A    between atoms: C6_8  and  S1_9 
REMARK    2  A    between atoms: S1_9  and  C7_10 
REMARK    3  A    between atoms: C7_10  and  C8_11 
REMARK    4  A    between atoms: C8_11  and  N2_12 
ROOT
HETATM    1  C1  UNL     1     -33.000   4.942  19.626  1.00  0.00     0.038 C 
HETATM    2  C2  UNL     1     -34.443   4.870  19.104  1.00  0.00     0.026 C 
HETATM    3  C3  UNL     1     -35.122   3.669  19.784  1.00  0.00     0.038 C 
HETATM    4  C4  UNL     1     -35.138   6.110  19.557  1.00  0.00     0.050 C 
HETATM    5  C5  UNL     1     -35.821   6.905  18.498  1.00  0.00     0.124 C 
HETATM    6  N1  UNL     1     -35.198   6.771  17.200  1.00  0.00    -0.371 N 
ATOM      7  H1  UNL     1     -35.281   7.552  16.550  1.00  0.00     0.161 HD
HETATM    8  C6  UNL     1     -34.548   5.734  16.811  1.00  0.00     0.136 C 
HETATM    9  N3  UNL     1     -34.421   4.637  17.696  1.00  0.00    -0.362 N 
ATOM     10  H3  UNL     1     -34.314   3.690  17.332  1.00  0.00     0.162 HD
ENDROOT
BRANCH   8  11
HETATM   11  S1  UNL     1     -33.825   5.698  15.172  1.00  0.00    -0.093 SA
BRANCH  11  12
HETATM   12  C7  UNL     1     -35.042   5.095  13.961  1.00  0.00     0.109 C 
BRANCH  12  13
HETATM   13  C8  UNL     1     -34.610   3.790  13.343  1.00  0.00     0.240 C 
BRANCH  13  14
HETATM   14  N2  UNL     1     -34.268   2.887  14.426  1.00  0.00    -0.079 N 
ATOM     15  H23 UNL     1     -33.737   3.341  15.170  1.00  0.00     0.274 HD
ATOM     16  H22 UNL     1     -35.075   2.613  14.986  1.00  0.00     0.274 HD
ATOM     17  H21 UNL     1     -33.778   2.091  14.018  1.00  0.00     0.274 HD
ENDBRANCH  13  14
ENDBRANCH  12  13
ENDBRANCH  11  12
ENDBRANCH   8  11
TORSDOF 4
ENDMDL
MODEL 4
REMARK VINA RESULT: -4.647602076      5.210      7.575
REMARK  4 active torsions:
REMARK  status: ('A' for Active; 'I' for Inactive)
REMARK    1  A    between atoms: C6_8  and  S1_9 
REMARK    2  A    between atoms: S1_9  and  C7_10 
REMARK    3  A    between atoms: C7_10  and  C8_11 
REMARK    4  A    between atoms: C8_11  and  N2_12 
ROOT
HETATM    1  C1  UNL     1     -34.524   7.297  16.660  1.00  0.00     0.038 C 
HETATM    2  C2  UNL     1     -34.934   5.886  17.109  1.00  0.00     0.026 C 
HETATM    3  C3  UNL     1     -34.350   5.659  18.514  1.00  0.00     0.038 C 
HETATM    4  C4  UNL     1     -36.421   5.873  17.221  1.00  0.00     0.050 C 
HETATM    5  C5  UNL     1     -37.128   4.793  16.478  1.00  0.00     0.124 C 
HETATM    6  N1  UNL     1     -36.415   4.359  15.297  1.00  0.00    -0.371 N 
ATOM      7  H1  UNL     1     -36.962   3.987  14.521  1.00  0.00     0.161 HD
HETATM    8  C6  UNL     1     -35.139   4.412  15.159  1.00  0.00     0.136 C 
HETATM    9  N3  UNL     1     -34.359   4.927  16.223  1.00  0.00    -0.362 N 
ATOM     10  H3  UNL     1     -33.397   4.615  16.354  1.00  0.00     0.162 HD
ENDROOT
BRANCH   8  11
HETATM   11  S1  UNL     1     -34.382   3.841  13.639  1.00  0.00    -0.093 SA
BRANCH  11  12
HETATM   12  C7  UNL     1     -35.662   3.290  12.469  1.00  0.00     0.109 C 
BRANCH  12  13
HETATM   13  C8  UNL     1     -35.814   4.252  11.319  1.00  0.00     0.240 C 
BRANCH  13  14
HETATM   14  N2  UNL     1     -36.694   5.319  11.757  1.00  0.00    -0.079 N 
ATOM     15  H23 UNL     1     -36.817   5.342  12.770  1.00  0.00     0.274 HD
ATOM     16  H22 UNL     1     -36.279   6.245  11.653  1.00  0.00     0.274 HD
ATOM     17  H21 UNL     1     -37.574   5.218  11.251  1.00  0.00     0.274 HD
ENDBRANCH  13  14
ENDBRANCH  12  13
ENDBRANCH  11  12
ENDBRANCH   8  11
TORSDOF 4
ENDMDL
MODEL 5
REMARK VINA RESULT: -4.581317913      3.423      4.538
REMARK  4 active torsions:
REMARK  status: ('A' for Active; 'I' for Inactive)
REMARK    1  A    between atoms: C6_8  and  S1_9 
REMARK    2  A    between atoms: S1_9  and  C7_10 
REMARK    3  A    between atoms: C7_10  and  C8_11 
REMARK    4  A    between atoms: C8_11  and  N2_12 
ROOT
HETATM    1  C1  UNL     1     -36.867   4.625  14.822  1.00  0.00     0.038 C 
HETATM    2  C2  UNL     1     -35.331   4.626  14.867  1.00  0.00     0.026 C 
HETATM    3  C3  UNL     1     -34.832   3.821  13.655  1.00  0.00     0.038 C 
HETATM    4  C4  UNL     1     -34.886   6.039  14.696  1.00  0.00     0.050 C 
HETATM    5  C5  UNL     1     -33.952   6.564  15.732  1.00  0.00     0.124 C 
HETATM    6  N1  UNL     1     -34.127   5.935  17.022  1.00  0.00    -0.371 N 
ATOM      7  H1  UNL     1     -33.890   6.478  17.852  1.00  0.00     0.161 HD
HETATM    8  C6  UNL     1     -34.561   4.738  17.193  1.00  0.00     0.136 C 
HETATM    9  N3  UNL     1     -34.897   3.966  16.055  1.00  0.00    -0.362 N 
ATOM     10  H3  UNL     1     -34.830   2.949  16.085  1.00  0.00     0.162 HD
ENDROOT
BRANCH   8  11
HETATM   11  S1  UNL     1     -34.730   4.080  18.850  1.00  0.00    -0.093 SA
BRANCH  11  12
HETATM   12  C7  UNL     1     -34.539   5.410  20.077  1.00  0.00     0.109 C 
BRANCH  12  13
HETATM   13  C8  UNL     1     -33.088   5.750  20.304  1.00  0.00     0.240 C 
BRANCH  13  14
HETATM   14  N2  UNL     1     -33.004   6.500  21.543  1.00  0.00    -0.079 N 
ATOM     15  H23 UNL     1     -33.242   5.941  22.363  1.00  0.00     0.274 HD
ATOM     16  H22 UNL     1     -32.046   6.724  21.808  1.00  0.00     0.274 HD
ATOM     17  H21 UNL     1     -33.592   7.327  21.441  1.00  0.00     0.274 HD
ENDBRANCH  13  14
ENDBRANCH  12  13
ENDBRANCH  11  12
ENDBRANCH   8  11
TORSDOF 4
ENDMDL
