MODEL 1
REMARK VINA RESULT: -5.401186603      0.000      0.000
REMARK  4 active torsions:
REMARK  status: ('A' for Active; 'I' for Inactive)
REMARK    1  A    between atoms: C8_8  and  C9_9 
REMARK    2  A    between atoms: C8_8  and  C10_12 
REMARK    3  A    between atoms: C9_9  and  O1_10 
REMARK    4  A    between atoms: C10_12  and  O2_13 
ROOT
HETATM    1  C1  UNL     1     -34.130   6.205  18.741  1.00  0.00     0.045 C 
HETATM    2  C2  UNL     1     -34.763   4.968  18.201  1.00  0.00     0.055 C 
HETATM    3  C3  UNL     1     -34.109   3.831  19.028  1.00  0.00     0.045 C 
HETATM    4  C4  UNL     1     -36.210   4.929  18.664  1.00  0.00     0.037 C 
HETATM    5  C5  UNL     1     -37.045   6.007  18.055  1.00  0.00     0.003 C 
HETATM    6  C6  UNL     1     -37.149   5.724  16.570  1.00  0.00     0.003 C 
HETATM    7  C7  UNL     1     -35.951   6.327  15.913  1.00  0.00     0.042 C 
HETATM    8  C8  UNL     1     -34.786   5.408  15.889  1.00  0.00     0.104 C 
HETATM    9  O3  UNL     1     -34.541   4.636  16.939  1.00  0.00    -0.366 OA
ENDROOT
BRANCH   8  10
HETATM   10  C9  UNL     1     -35.057   4.435  14.720  1.00  0.00     0.204 C 
BRANCH  10  11
HETATM   11  O1  UNL     1     -34.540   3.181  14.990  1.00  0.00    -0.398 OA
ATOM     12  H1  UNL     1     -33.598   3.168  14.863  1.00  0.00     0.209 HD
ENDBRANCH  10  11
ENDBRANCH   8  10
BRANCH   8  13
HETATM   13  C10 UNL     1     -33.516   6.146  15.482  1.00  0.00     0.204 C 
BRANCH  13  14
HETATM   14  O2  UNL     1     -32.552   5.241  15.013  1.00  0.00    -0.398 OA
ATOM     15  H2  UNL     1     -31.678   5.586  15.154  1.00  0.00     0.209 HD
ENDBRANCH  13  14
ENDBRANCH   8  13
TORSDOF 4
ENDMDL
MODEL 2
REMARK VINA RESULT: -5.177518957      1.791      3.892
REMARK  4 active torsions:
REMARK  status: ('A' for Active; 'I' for Inactive)
REMARK    1  A    between atoms: C8_8  and  C9_9 
REMARK    2  A    between atoms: C8_8  and  C10_12 
REMARK    3  A    between atoms: C9_9  and  O1_10 
REMARK    4  A    between atoms: C10_12  and  O2_13 
ROOT
HETATM    1  C1  UNL     1     -37.913   7.012  17.334  1.00  0.00     0.045 C 
HETATM    2  C2  UNL     1     -37.033   6.048  16.615  1.00  0.00     0.055 C 
HETATM    3  C3  UNL     1     -37.984   5.385  15.585  1.00  0.00     0.045 C 
HETATM    4  C4  UNL     1     -36.079   6.836  15.732  1.00  0.00     0.037 C 
HETATM    5  C5  UNL     1     -35.096   7.643  16.514  1.00  0.00     0.003 C 
HETATM    6  C6  UNL     1     -34.180   6.675  17.236  1.00  0.00     0.003 C 
HETATM    7  C7  UNL     1     -34.844   6.303  18.521  1.00  0.00     0.042 C 
HETATM    8  C8  UNL     1     -35.762   5.146  18.378  1.00  0.00     0.104 C 
HETATM    9  O3  UNL     1     -36.510   5.036  17.288  1.00  0.00    -0.366 OA
ENDROOT
BRANCH   8  10
HETATM   10  C9  UNL     1     -34.850   3.899  18.376  1.00  0.00     0.204 C 
BRANCH  10  11
HETATM   11  O1  UNL     1     -34.894   3.255  17.153  1.00  0.00    -0.398 OA
ATOM     12  H1  UNL     1     -35.695   2.753  17.062  1.00  0.00     0.209 HD
ENDBRANCH  10  11
ENDBRANCH   8  10
BRANCH   8  13
HETATM   13  C10 UNL     1     -36.630   4.980  19.620  1.00  0.00     0.204 C 
BRANCH  13  14
HETATM   14  O2  UNL     1     -35.927   5.385  20.765  1.00  0.00    -0.398 OA
ATOM     15  H2  UNL     1     -36.480   5.316  21.534  1.00  0.00     0.209 HD
ENDBRANCH  13  14
ENDBRANCH   8  13
TORSDOF 4
ENDMDL
MODEL 3
REMARK VINA RESULT: -5.095279190      1.801      3.839
REMARK  4 active torsions:
REMARK  status: ('A' for Active; 'I' for Inactive)
REMARK    1  A    between atoms: C8_8  and  C9_9 
REMARK    2  A    between atoms: C8_8  and  C10_12 
REMARK    3  A    between atoms: C9_9  and  O1_10 
REMARK    4  A    between atoms: C10_12  and  O2_13 
ROOT
HETATM    1  C1  UNL     1     -35.156   4.517  16.046  1.00  0.00     0.045 C 
HETATM    2  C2  UNL     1     -34.486   5.762  16.517  1.00  0.00     0.055 C 
HETATM    3  C3  UNL     1     -33.401   6.022  15.440  1.00  0.00     0.045 C 
HETATM    4  C4  UNL     1     -35.442   6.926  16.316  1.00  0.00     0.037 C 
HETATM    5  C5  UNL     1     -36.641   6.853  17.205  1.00  0.00     0.003 C 
HETATM    6  C6  UNL     1     -36.166   7.037  18.632  1.00  0.00     0.003 C 
HETATM    7  C7  UNL     1     -35.749   5.697  19.142  1.00  0.00     0.042 C 
HETATM    8  C8  UNL     1     -34.331   5.381  18.834  1.00  0.00     0.104 C 
HETATM    9  O3  UNL     1     -33.823   5.736  17.662  1.00  0.00    -0.366 OA
ENDROOT
BRANCH   8  10
HETATM   10  C9  UNL     1     -33.504   6.148  19.890  1.00  0.00     0.204 C 
BRANCH  10  11
HETATM   11  O1  UNL     1     -33.983   5.906  21.165  1.00  0.00    -0.398 OA
ATOM     12  H1  UNL     1     -33.314   5.508  21.709  1.00  0.00     0.209 HD
ENDBRANCH  10  11
ENDBRANCH   8  10
BRANCH   8  13
HETATM   13  C10 UNL     1     -34.028   3.913  19.106  1.00  0.00     0.204 C 
BRANCH  13  14
HETATM   14  O2  UNL     1     -32.673   3.746  19.432  1.00  0.00    -0.398 OA
ATOM     15  H2  UNL     1     -32.122   4.176  18.788  1.00  0.00     0.209 HD
ENDBRANCH  13  14
ENDBRANCH   8  13
TORSDOF 4
ENDMDL
MODEL 4
REMARK VINA RESULT: -4.889866892      1.233      3.087
REMARK  4 active torsions:
REMARK  status: ('A' for Active; 'I' for Inactive)
REMARK    1  A    between atoms: C8_8  and  C9_9 
REMARK    2  A    between atoms: C8_8  and  C10_12 
REMARK    3  A    between atoms: C9_9  and  O1_10 
REMARK    4  A    between atoms: C10_12  and  O2_13 
ROOT
HETATM    1  C1  UNL     1     -37.729   5.654  16.852  1.00  0.00     0.045 C 
HETATM    2  C2  UNL     1     -36.756   6.773  16.694  1.00  0.00     0.055 C 
HETATM    3  C3  UNL     1     -37.613   7.921  16.102  1.00  0.00     0.045 C 
HETATM    4  C4  UNL     1     -36.403   7.298  18.076  1.00  0.00     0.037 C 
HETATM    5  C5  UNL     1     -35.629   6.314  18.891  1.00  0.00     0.003 C 
HETATM    6  C6  UNL     1     -34.276   6.135  18.231  1.00  0.00     0.003 C 
HETATM    7  C7  UNL     1     -34.427   5.091  17.175  1.00  0.00     0.042 C 
HETATM    8  C8  UNL     1     -34.859   5.651  15.871  1.00  0.00     0.104 C 
HETATM    9  O3  UNL     1     -35.752   6.631  15.845  1.00  0.00    -0.366 OA
ENDROOT
BRANCH   8  10
HETATM   10  C9  UNL     1     -33.580   6.244  15.237  1.00  0.00     0.204 C 
BRANCH  10  11
HETATM   11  O1  UNL     1     -32.616   5.268  15.066  1.00  0.00    -0.398 OA
ATOM     12  H1  UNL     1     -31.765   5.577  15.354  1.00  0.00     0.209 HD
ENDBRANCH  10  11
ENDBRANCH   8  10
BRANCH   8  13
HETATM   13  C10 UNL     1     -35.279   4.542  14.913  1.00  0.00     0.204 C 
BRANCH  13  14
HETATM   14  O2  UNL     1     -34.642   3.338  15.249  1.00  0.00    -0.398 OA
ATOM     15  H2  UNL     1     -35.029   2.614  14.769  1.00  0.00     0.209 HD
ENDBRANCH  13  14
ENDBRANCH   8  13
TORSDOF 4
ENDMDL
MODEL 5
REMARK VINA RESULT: -4.805534831      1.755      3.614
REMARK  4 active torsions:
REMARK  status: ('A' for Active; 'I' for Inactive)
REMARK    1  A    between atoms: C8_8  and  C9_9 
REMARK    2  A    between atoms: C8_8  and  C10_12 
REMARK    3  A    between atoms: C9_9  and  O1_10 
REMARK    4  A    between atoms: C10_12  and  O2_13 
ROOT
HETATM    1  C1  UNL     1     -38.146   4.383  15.534  1.00  0.00     0.045 C 
HETATM    2  C2  UNL     1     -37.138   4.889  14.560  1.00  0.00     0.055 C 
HETATM    3  C3  UNL     1     -37.234   3.886  13.381  1.00  0.00     0.045 C 
HETATM    4  C4  UNL     1     -37.666   6.176  13.949  1.00  0.00     0.037 C 
HETATM    5  C5  UNL     1     -37.748   7.296  14.933  1.00  0.00     0.003 C 
HETATM    6  C6  UNL     1     -36.332   7.659  15.336  1.00  0.00     0.003 C 
HETATM    7  C7  UNL     1     -35.937   6.750  16.453  1.00  0.00     0.042 C 
HETATM    8  C8  UNL     1     -35.351   5.474  15.975  1.00  0.00     0.104 C 
HETATM    9  O3  UNL     1     -35.860   4.882  14.903  1.00  0.00    -0.366 OA
ENDROOT
BRANCH   8  10
HETATM   10  C9  UNL     1     -33.889   5.810  15.603  1.00  0.00     0.204 C 
BRANCH  10  11
HETATM   11  O1  UNL     1     -33.430   4.975  14.600  1.00  0.00    -0.398 OA
ATOM     12  H1  UNL     1     -32.734   5.390  14.105  1.00  0.00     0.209 HD
ENDBRANCH  10  11
ENDBRANCH   8  10
BRANCH   8  13
HETATM   13  C10 UNL     1     -35.231   4.468  17.114  1.00  0.00     0.204 C 
BRANCH  13  14
HETATM   14  O2  UNL     1     -34.844   3.213  16.619  1.00  0.00    -0.398 OA
ATOM     15  H2  UNL     1     -35.326   2.521  17.058  1.00  0.00     0.209 HD
ENDBRANCH  13  14
ENDBRANCH   8  13
TORSDOF 4
ENDMDL
