MODEL 1
REMARK VINA RESULT: -5.569266445      0.000      0.000
REMARK  3 active torsions:
REMARK  status: ('A' for Active; 'I' for Inactive)
REMARK    1  A    between atoms: N1_2  and  C2_5 
REMARK    2  A    between atoms: C5_8  and  N2_9 
REMARK    3  A    between atoms: C10_14  and  O1_15 
ROOT
HETATM    1  C2  UNL     1      13.424  46.355  34.808  1.00  0.00     0.186 C 
HETATM    2  C3  UNL     1      13.334  46.426  33.301  1.00  0.00     0.040 C 
HETATM    3  C4  UNL     1      13.804  45.072  32.965  1.00  0.00     0.031 C 
HETATM    4  C5  UNL     1      14.103  44.735  31.564  1.00  0.00     0.227 C 
HETATM    5  C8  UNL     1      14.325  43.214  31.569  1.00  0.00     0.038 C 
HETATM    6  C9  UNL     1      15.378  42.812  32.537  1.00  0.00     0.034 C 
HETATM    7  C10 UNL     1      15.351  43.470  33.872  1.00  0.00     0.127 C 
HETATM    8  C11 UNL     1      15.095  44.958  33.755  1.00  0.00    -0.010 C 
HETATM    9  C12 UNL     1      16.266  45.594  33.076  1.00  0.00     0.018 C 
HETATM   10  C13 UNL     1      14.729  45.616  35.038  1.00  0.00     0.045 C 
ENDROOT
BRANCH   1  11
HETATM   11  N1  UNL     1      13.335  47.585  35.495  1.00  0.00    -0.075 N 
HETATM   12  C1  UNL     1      14.665  48.117  35.701  1.00  0.00     0.267 C 
ATOM     13  H12 UNL     1      12.812  47.503  36.367  1.00  0.00     0.277 HD
ATOM     14  H11 UNL     1      12.722  48.249  35.020  1.00  0.00     0.277 HD
ENDBRANCH   1  11
BRANCH   4  15
HETATM   15  N2  UNL     1      13.138  45.156  30.622  1.00  0.00     0.085 N 
HETATM   16  C6  UNL     1      13.667  45.938  29.539  1.00  0.00     0.309 C 
HETATM   17  C7  UNL     1      12.203  44.148  30.204  1.00  0.00     0.309 C 
ENDBRANCH   4  15
BRANCH   7  18
HETATM   18  O1  UNL     1      16.638  43.336  34.439  1.00  0.00    -0.395 OA
ATOM     19  H1  UNL     1      16.542  42.871  35.262  1.00  0.00     0.210 HD
ENDBRANCH   7  18
TORSDOF 3
ENDMDL
MODEL 2
REMARK VINA RESULT: -5.541944340      2.391      4.962
REMARK  3 active torsions:
REMARK  status: ('A' for Active; 'I' for Inactive)
REMARK    1  A    between atoms: N1_2  and  C2_5 
REMARK    2  A    between atoms: C5_8  and  N2_9 
REMARK    3  A    between atoms: C10_14  and  O1_15 
ROOT
HETATM    1  C2  UNL     1      13.836  43.107  31.189  1.00  0.00     0.186 C 
HETATM    2  C3  UNL     1      15.208  43.160  31.821  1.00  0.00     0.040 C 
HETATM    3  C4  UNL     1      14.891  43.947  33.025  1.00  0.00     0.031 C 
HETATM    4  C5  UNL     1      15.986  44.457  33.866  1.00  0.00     0.227 C 
HETATM    5  C8  UNL     1      15.287  45.005  35.121  1.00  0.00     0.038 C 
HETATM    6  C9  UNL     1      14.251  46.014  34.781  1.00  0.00     0.034 C 
HETATM    7  C10 UNL     1      13.365  45.705  33.627  1.00  0.00     0.127 C 
HETATM    8  C11 UNL     1      14.147  45.143  32.458  1.00  0.00    -0.010 C 
HETATM    9  C12 UNL     1      15.051  46.210  31.929  1.00  0.00     0.018 C 
HETATM   10  C13 UNL     1      13.304  44.510  31.408  1.00  0.00     0.045 C 
ENDROOT
BRANCH   1  11
HETATM   11  N1  UNL     1      13.787  42.679  29.845  1.00  0.00    -0.075 N 
HETATM   12  C1  UNL     1      12.960  43.590  29.082  1.00  0.00     0.267 C 
ATOM     13  H12 UNL     1      13.477  41.711  29.759  1.00  0.00     0.277 HD
ATOM     14  H11 UNL     1      14.717  42.570  29.440  1.00  0.00     0.277 HD
ENDBRANCH   1  11
BRANCH   4  15
HETATM   15  N2  UNL     1      17.008  43.526  34.157  1.00  0.00     0.085 N 
HETATM   16  C6  UNL     1      18.240  43.759  33.455  1.00  0.00     0.309 C 
HETATM   17  C7  UNL     1      17.185  43.219  35.548  1.00  0.00     0.309 C 
ENDBRANCH   4  15
BRANCH   7  18
HETATM   18  O1  UNL     1      12.809  46.923  33.178  1.00  0.00    -0.395 OA
ATOM     19  H1  UNL     1      13.363  47.251  32.479  1.00  0.00     0.210 HD
ENDBRANCH   7  18
TORSDOF 3
ENDMDL
MODEL 3
REMARK VINA RESULT: -5.389028638      3.636      6.080
REMARK  3 active torsions:
REMARK  status: ('A' for Active; 'I' for Inactive)
REMARK    1  A    between atoms: N1_2  and  C2_5 
REMARK    2  A    between atoms: C5_8  and  N2_9 
REMARK    3  A    between atoms: C10_14  and  O1_15 
ROOT
HETATM    1  C2  UNL     1      13.661  45.336  26.700  1.00  0.00     0.186 C 
HETATM    2  C3  UNL     1      14.618  46.024  27.647  1.00  0.00     0.040 C 
HETATM    3  C4  UNL     1      14.367  45.233  28.863  1.00  0.00     0.031 C 
HETATM    4  C5  UNL     1      14.926  45.682  30.148  1.00  0.00     0.227 C 
HETATM    5  C8  UNL     1      14.668  44.513  31.114  1.00  0.00     0.038 C 
HETATM    6  C9  UNL     1      13.229  44.144  31.163  1.00  0.00     0.034 C 
HETATM    7  C10 UNL     1      12.504  44.088  29.865  1.00  0.00     0.127 C 
HETATM    8  C11 UNL     1      12.853  45.265  28.980  1.00  0.00    -0.010 C 
HETATM    9  C12 UNL     1      12.332  46.514  29.616  1.00  0.00     0.018 C 
HETATM   10  C13 UNL     1      12.434  45.107  27.561  1.00  0.00     0.045 C 
ENDROOT
BRANCH   1  11
HETATM   11  N1  UNL     1      13.393  46.010  25.489  1.00  0.00    -0.075 N 
HETATM   12  C1  UNL     1      11.980  46.310  25.410  1.00  0.00     0.267 C 
ATOM     13  H12 UNL     1      13.724  45.489  24.676  1.00  0.00     0.277 HD
ATOM     14  H11 UNL     1      13.973  46.842  25.374  1.00  0.00     0.277 HD
ENDBRANCH   1  11
BRANCH   4  15
HETATM   15  N2  UNL     1      16.279  46.087  30.110  1.00  0.00     0.085 N 
HETATM   16  C6  UNL     1      16.549  47.317  30.802  1.00  0.00     0.309 C 
HETATM   17  C7  UNL     1      17.240  45.053  30.372  1.00  0.00     0.309 C 
ENDBRANCH   4  15
BRANCH   7  18
HETATM   18  O1  UNL     1      11.124  44.200  30.143  1.00  0.00    -0.395 OA
ATOM     19  H1  UNL     1      10.890  43.488  30.728  1.00  0.00     0.210 HD
ENDBRANCH   7  18
TORSDOF 3
ENDMDL
MODEL 4
REMARK VINA RESULT: -5.255046768      2.380      5.080
REMARK  3 active torsions:
REMARK  status: ('A' for Active; 'I' for Inactive)
REMARK    1  A    between atoms: N1_2  and  C2_5 
REMARK    2  A    between atoms: C5_8  and  N2_9 
REMARK    3  A    between atoms: C10_14  and  O1_15 
ROOT
HETATM    1  C2  UNL     1      13.634  43.342  30.940  1.00  0.00     0.186 C 
HETATM    2  C3  UNL     1      14.720  43.133  31.971  1.00  0.00     0.040 C 
HETATM    3  C4  UNL     1      14.565  44.377  32.744  1.00  0.00     0.031 C 
HETATM    4  C5  UNL     1      15.577  44.736  33.750  1.00  0.00     0.227 C 
HETATM    5  C8  UNL     1      14.972  45.935  34.498  1.00  0.00     0.038 C 
HETATM    6  C9  UNL     1      14.607  47.038  33.572  1.00  0.00     0.034 C 
HETATM    7  C10 UNL     1      13.930  46.654  32.304  1.00  0.00     0.127 C 
HETATM    8  C11 UNL     1      14.583  45.446  31.666  1.00  0.00    -0.010 C 
HETATM    9  C12 UNL     1      15.962  45.824  31.225  1.00  0.00     0.018 C 
HETATM   10  C13 UNL     1      13.774  44.811  30.591  1.00  0.00     0.045 C 
ENDROOT
BRANCH   1  11
HETATM   11  N1  UNL     1      13.665  42.482  29.822  1.00  0.00    -0.075 N 
HETATM   12  C1  UNL     1      12.900  43.071  28.743  1.00  0.00     0.267 C 
ATOM     13  H12 UNL     1      13.348  41.540  30.050  1.00  0.00     0.277 HD
ATOM     14  H11 UNL     1      14.618  42.251  29.539  1.00  0.00     0.277 HD
ENDBRANCH   1  11
BRANCH   4  15
HETATM   15  N2  UNL     1      15.977  43.686  34.606  1.00  0.00     0.085 N 
HETATM   16  C6  UNL     1      17.344  43.275  34.444  1.00  0.00     0.309 C 
HETATM   17  C7  UNL     1      15.574  43.822  35.978  1.00  0.00     0.309 C 
ENDBRANCH   4  15
BRANCH   7  18
HETATM   18  O1  UNL     1      14.098  47.719  31.392  1.00  0.00    -0.395 OA
ATOM     19  H1  UNL     1      13.699  48.492  31.776  1.00  0.00     0.210 HD
ENDBRANCH   7  18
TORSDOF 3
ENDMDL
MODEL 5
REMARK VINA RESULT: -5.238018850      1.799      2.350
REMARK  3 active torsions:
REMARK  status: ('A' for Active; 'I' for Inactive)
REMARK    1  A    between atoms: N1_2  and  C2_5 
REMARK    2  A    between atoms: C5_8  and  N2_9 
REMARK    3  A    between atoms: C10_14  and  O1_15 
ROOT
HETATM    1  C2  UNL     1      14.171  46.691  32.730  1.00  0.00     0.186 C 
HETATM    2  C3  UNL     1      14.062  46.775  31.224  1.00  0.00     0.040 C 
HETATM    3  C4  UNL     1      13.732  45.372  30.925  1.00  0.00     0.031 C 
HETATM    4  C5  UNL     1      13.743  44.907  29.529  1.00  0.00     0.227 C 
HETATM    5  C8  UNL     1      13.131  43.498  29.585  1.00  0.00     0.038 C 
HETATM    6  C9  UNL     1      13.858  42.616  30.534  1.00  0.00     0.034 C 
HETATM    7  C10 UNL     1      14.243  43.209  31.843  1.00  0.00     0.127 C 
HETATM    8  C11 UNL     1      14.804  44.606  31.678  1.00  0.00    -0.010 C 
HETATM    9  C12 UNL     1      16.102  44.518  30.940  1.00  0.00     0.018 C 
HETATM   10  C13 UNL     1      14.899  45.379  32.947  1.00  0.00     0.045 C 
ENDROOT
BRANCH   1  11
HETATM   11  N1  UNL     1      14.774  47.793  33.373  1.00  0.00    -0.075 N 
HETATM   12  C1  UNL     1      16.195  47.791  33.096  1.00  0.00     0.267 C 
ATOM     13  H12 UNL     1      14.575  47.813  34.373  1.00  0.00     0.277 HD
ATOM     14  H11 UNL     1      14.332  48.677  33.119  1.00  0.00     0.277 HD
ENDBRANCH   1  11
BRANCH   4  15
HETATM   15  N2  UNL     1      13.102  45.759  28.603  1.00  0.00     0.085 N 
HETATM   16  C6  UNL     1      13.564  45.619  27.249  1.00  0.00     0.309 C 
HETATM   17  C7  UNL     1      11.673  45.834  28.720  1.00  0.00     0.309 C 
ENDBRANCH   4  15
BRANCH   7  18
HETATM   18  O1  UNL     1      15.291  42.425  32.374  1.00  0.00    -0.395 OA
ATOM     19  H1  UNL     1      15.672  41.931  31.658  1.00  0.00     0.210 HD
ENDBRANCH   7  18
TORSDOF 3
ENDMDL
