MODEL 1
REMARK VINA RESULT: -7.047203634      0.000      0.000
REMARK  6 active torsions:
REMARK  status: ('A' for Active; 'I' for Inactive)
REMARK    1  A    between atoms: O1_2  and  C2_3 
REMARK    2  A    between atoms: C2_3  and  C3_4 
REMARK    3  A    between atoms: C4_5  and  C5_6 
REMARK    4  A    between atoms: C10_11  and  C11_12 
REMARK    5  A    between atoms: C11_12  and  N2_16 
REMARK    6  A    between atoms: N2_16  and  N3_18 
ROOT
HETATM    1  C2  UNL     1      12.876  44.746  27.095  1.00  0.00     0.131 C 
HETATM    2  C8  UNL     1      11.719  45.294  26.261  1.00  0.00     0.034 C 
HETATM    3  C9  UNL     1      11.796  44.455  25.030  1.00  0.00     0.021 C 
HETATM    4  C10 UNL     1      13.322  44.447  24.817  1.00  0.00     0.062 C 
HETATM    5  C12 UNL     1      13.719  45.313  25.970  1.00  0.00     0.045 C 
HETATM    6  C13 UNL     1      12.684  46.447  25.963  1.00  0.00     0.018 C 
ENDROOT
BRANCH   4   7
HETATM    7  C11 UNL     1      13.698  44.974  23.509  1.00  0.00     0.093 C 
HETATM    8  N1  UNL     1      14.891  45.295  23.141  1.00  0.00    -0.388 N 
ATOM      9  H12 UNL     1      15.622  45.159  23.840  1.00  0.00     0.157 HD
ATOM     10  H11 UNL     1      15.154  45.663  22.227  1.00  0.00     0.157 HD
BRANCH   7  11
HETATM   11  N2  UNL     1      12.677  45.162  22.534  1.00  0.00    -0.296 N 
ATOM     12  H2  UNL     1      11.715  45.368  22.803  1.00  0.00     0.187 HD
BRANCH  11  13
HETATM   13  N3  UNL     1      13.052  45.053  21.182  1.00  0.00    -0.344 N 
ATOM     14  H32 UNL     1      13.768  44.386  20.897  1.00  0.00     0.176 HD
ATOM     15  H31 UNL     1      12.580  45.664  20.517  1.00  0.00     0.176 HD
ENDBRANCH  11  13
ENDBRANCH   7  11
ENDBRANCH   4   7
BRANCH   1  16
HETATM   16  O1  UNL     1      12.874  43.366  27.189  1.00  0.00    -0.371 OA
HETATM   17  C1  UNL     1      12.901  42.905  28.482  1.00  0.00     0.204 C 
ENDBRANCH   1  16
BRANCH   1  18
HETATM   18  C3  UNL     1      13.036  45.471  28.355  1.00  0.00    -0.067 C 
HETATM   19  C4  UNL     1      13.148  46.069  29.404  1.00  0.00    -0.099 C 
BRANCH  19  20
HETATM   20  C5  UNL     1      13.259  46.786  30.678  1.00  0.00     0.065 A 
HETATM   21  C6  UNL     1      13.815  46.008  31.879  1.00  0.00     0.018 A 
HETATM   22  C7  UNL     1      14.647  46.993  31.160  1.00  0.00     0.018 A 
ENDBRANCH  19  20
ENDBRANCH   1  18
TORSDOF 6
ENDMDL
MODEL 2
REMARK VINA RESULT: -6.894138719      0.426      1.054
REMARK  6 active torsions:
REMARK  status: ('A' for Active; 'I' for Inactive)
REMARK    1  A    between atoms: O1_2  and  C2_3 
REMARK    2  A    between atoms: C2_3  and  C3_4 
REMARK    3  A    between atoms: C4_5  and  C5_6 
REMARK    4  A    between atoms: C10_11  and  C11_12 
REMARK    5  A    between atoms: C11_12  and  N2_16 
REMARK    6  A    between atoms: N2_16  and  N3_18 
ROOT
HETATM    1  C2  UNL     1      12.846  44.731  26.897  1.00  0.00     0.131 C 
HETATM    2  C8  UNL     1      11.690  45.272  26.056  1.00  0.00     0.034 C 
HETATM    3  C9  UNL     1      11.782  44.434  24.825  1.00  0.00     0.021 C 
HETATM    4  C10 UNL     1      13.309  44.437  24.621  1.00  0.00     0.062 C 
HETATM    5  C12 UNL     1      13.692  45.305  25.778  1.00  0.00     0.045 C 
HETATM    6  C13 UNL     1      12.649  46.432  25.765  1.00  0.00     0.018 C 
ENDROOT
BRANCH   4   7
HETATM    7  C11 UNL     1      13.690  44.967  23.317  1.00  0.00     0.093 C 
HETATM    8  N1  UNL     1      12.890  45.178  22.328  1.00  0.00    -0.388 N 
ATOM      9  H12 UNL     1      11.910  44.949  22.494  1.00  0.00     0.157 HD
ATOM     10  H11 UNL     1      13.155  45.548  21.415  1.00  0.00     0.157 HD
BRANCH   7  11
HETATM   11  N2  UNL     1      15.058  45.287  23.085  1.00  0.00    -0.296 N 
ATOM     12  H2  UNL     1      15.570  45.914  23.706  1.00  0.00     0.187 HD
BRANCH  11  13
HETATM   13  N3  UNL     1      15.674  44.702  21.964  1.00  0.00    -0.344 N 
ATOM     14  H32 UNL     1      15.752  43.688  21.887  1.00  0.00     0.176 HD
ATOM     15  H31 UNL     1      16.031  45.333  21.247  1.00  0.00     0.176 HD
ENDBRANCH  11  13
ENDBRANCH   7  11
ENDBRANCH   4   7
BRANCH   1  16
HETATM   16  O1  UNL     1      12.853  43.351  26.990  1.00  0.00    -0.371 OA
HETATM   17  C1  UNL     1      12.865  42.890  28.283  1.00  0.00     0.204 C 
ENDBRANCH   1  16
BRANCH   1  18
HETATM   18  C3  UNL     1      12.992  45.457  28.158  1.00  0.00    -0.067 C 
HETATM   19  C4  UNL     1      13.122  46.043  29.212  1.00  0.00    -0.099 C 
BRANCH  19  20
HETATM   20  C5  UNL     1      13.293  46.730  30.496  1.00  0.00     0.065 A 
HETATM   21  C6  UNL     1      13.722  45.879  31.700  1.00  0.00     0.018 A 
HETATM   22  C7  UNL     1      14.684  46.760  31.009  1.00  0.00     0.018 A 
ENDBRANCH  19  20
ENDBRANCH   1  18
TORSDOF 6
ENDMDL
MODEL 3
REMARK VINA RESULT: -6.503853963      1.894      2.508
REMARK  6 active torsions:
REMARK  status: ('A' for Active; 'I' for Inactive)
REMARK    1  A    between atoms: O1_2  and  C2_3 
REMARK    2  A    between atoms: C2_3  and  C3_4 
REMARK    3  A    between atoms: C4_5  and  C5_6 
REMARK    4  A    between atoms: C10_11  and  C11_12 
REMARK    5  A    between atoms: C11_12  and  N2_16 
REMARK    6  A    between atoms: N2_16  and  N3_18 
ROOT
HETATM    1  C2  UNL     1      13.783  45.431  26.554  1.00  0.00     0.131 C 
HETATM    2  C8  UNL     1      12.864  44.287  26.125  1.00  0.00     0.034 C 
HETATM    3  C9  UNL     1      12.853  44.435  24.640  1.00  0.00     0.021 C 
HETATM    4  C10 UNL     1      12.730  45.968  24.533  1.00  0.00     0.062 C 
HETATM    5  C12 UNL     1      12.671  46.295  25.991  1.00  0.00     0.045 C 
HETATM    6  C13 UNL     1      11.741  45.225  26.581  1.00  0.00     0.018 C 
ENDROOT
BRANCH   4   7
HETATM    7  C11 UNL     1      11.551  46.373  23.776  1.00  0.00     0.093 C 
HETATM    8  N1  UNL     1      11.104  47.578  23.666  1.00  0.00    -0.388 N 
ATOM      9  H12 UNL     1      11.637  48.295  24.157  1.00  0.00     0.157 HD
ATOM     10  H11 UNL     1      10.279  47.862  23.137  1.00  0.00     0.157 HD
BRANCH   7  11
HETATM   11  N2  UNL     1      10.806  45.372  23.089  1.00  0.00    -0.296 N 
ATOM     12  H2  UNL     1      11.162  44.422  22.985  1.00  0.00     0.187 HD
BRANCH  11  13
HETATM   13  N3  UNL     1       9.558  45.748  22.561  1.00  0.00    -0.344 N 
ATOM     14  H32 UNL     1       9.329  46.733  22.425  1.00  0.00     0.176 HD
ATOM     15  H31 UNL     1       8.906  44.999  22.327  1.00  0.00     0.176 HD
ENDBRANCH  11  13
ENDBRANCH   7  11
ENDBRANCH   4   7
BRANCH   1  16
HETATM   16  O1  UNL     1      14.970  45.469  25.846  1.00  0.00    -0.371 OA
HETATM   17  C1  UNL     1      15.871  46.382  26.338  1.00  0.00     0.204 C 
ENDBRANCH   1  16
BRANCH   1  18
HETATM   18  C3  UNL     1      13.901  45.522  28.008  1.00  0.00    -0.067 C 
HETATM   19  C4  UNL     1      14.000  45.577  29.216  1.00  0.00    -0.099 C 
BRANCH  19  20
HETATM   20  C5  UNL     1      14.122  45.616  30.677  1.00  0.00     0.065 A 
HETATM   21  C6  UNL     1      13.259  44.636  31.483  1.00  0.00     0.018 A 
HETATM   22  C7  UNL     1      14.704  44.397  31.288  1.00  0.00     0.018 A 
ENDBRANCH  19  20
ENDBRANCH   1  18
TORSDOF 6
ENDMDL
MODEL 4
REMARK VINA RESULT: -6.411319099      1.569      2.055
REMARK  6 active torsions:
REMARK  status: ('A' for Active; 'I' for Inactive)
REMARK    1  A    between atoms: O1_2  and  C2_3 
REMARK    2  A    between atoms: C2_3  and  C3_4 
REMARK    3  A    between atoms: C4_5  and  C5_6 
REMARK    4  A    between atoms: C10_11  and  C11_12 
REMARK    5  A    between atoms: C11_12  and  N2_16 
REMARK    6  A    between atoms: N2_16  and  N3_18 
ROOT
HETATM    1  C2  UNL     1      12.606  45.234  27.094  1.00  0.00     0.131 C 
HETATM    2  C8  UNL     1      13.267  46.375  26.321  1.00  0.00     0.034 C 
HETATM    3  C9  UNL     1      12.428  46.446  25.090  1.00  0.00     0.021 C 
HETATM    4  C10 UNL     1      12.272  44.941  24.795  1.00  0.00     0.062 C 
HETATM    5  C12 UNL     1      13.091  44.401  25.923  1.00  0.00     0.045 C 
HETATM    6  C13 UNL     1      14.321  45.320  25.969  1.00  0.00     0.018 C 
ENDROOT
BRANCH   4   7
HETATM    7  C11 UNL     1      12.763  44.587  23.468  1.00  0.00     0.093 C 
HETATM    8  N1  UNL     1      13.310  43.466  23.143  1.00  0.00    -0.388 N 
ATOM      9  H12 UNL     1      13.396  42.780  23.893  1.00  0.00     0.157 HD
ATOM     10  H11 UNL     1      13.654  43.218  22.215  1.00  0.00     0.157 HD
BRANCH   7  11
HETATM   11  N2  UNL     1      12.642  45.544  22.420  1.00  0.00    -0.296 N 
ATOM     12  H2  UNL     1      12.284  46.483  22.596  1.00  0.00     0.187 HD
BRANCH  11  13
HETATM   13  N3  UNL     1      13.038  45.140  21.132  1.00  0.00    -0.344 N 
ATOM     14  H32 UNL     1      12.644  44.300  20.710  1.00  0.00     0.176 HD
ATOM     15  H31 UNL     1      13.726  45.720  20.653  1.00  0.00     0.176 HD
ENDBRANCH  11  13
ENDBRANCH   7  11
ENDBRANCH   4   7
BRANCH   1  16
HETATM   16  O1  UNL     1      11.233  45.365  27.190  1.00  0.00    -0.371 OA
HETATM   17  C1  UNL     1      10.825  46.023  28.324  1.00  0.00     0.204 C 
ENDBRANCH   1  16
BRANCH   1  18
HETATM   18  C3  UNL     1      13.309  44.937  28.341  1.00  0.00    -0.067 C 
HETATM   19  C4  UNL     1      13.876  44.680  29.382  1.00  0.00    -0.099 C 
BRANCH  19  20
HETATM   20  C5  UNL     1      14.540  44.354  30.648  1.00  0.00     0.065 A 
HETATM   21  C6  UNL     1      13.663  44.276  31.905  1.00  0.00     0.018 A 
HETATM   22  C7  UNL     1      14.152  43.051  31.240  1.00  0.00     0.018 A 
ENDBRANCH  19  20
ENDBRANCH   1  18
TORSDOF 6
ENDMDL
MODEL 5
REMARK VINA RESULT: -6.263123822      1.239      1.512
REMARK  6 active torsions:
REMARK  status: ('A' for Active; 'I' for Inactive)
REMARK    1  A    between atoms: O1_2  and  C2_3 
REMARK    2  A    between atoms: C2_3  and  C3_4 
REMARK    3  A    between atoms: C4_5  and  C5_6 
REMARK    4  A    between atoms: C10_11  and  C11_12 
REMARK    5  A    between atoms: C11_12  and  N2_16 
REMARK    6  A    between atoms: N2_16  and  N3_18 
ROOT
HETATM    1  C2  UNL     1      13.106  44.652  26.968  1.00  0.00     0.131 C 
HETATM    2  C8  UNL     1      12.125  45.643  26.342  1.00  0.00     0.034 C 
HETATM    3  C9  UNL     1      11.536  44.840  25.232  1.00  0.00     0.021 C 
HETATM    4  C10 UNL     1      12.812  44.158  24.699  1.00  0.00     0.062 C 
HETATM    5  C12 UNL     1      13.806  44.776  25.629  1.00  0.00     0.045 C 
HETATM    6  C13 UNL     1      13.383  46.250  25.710  1.00  0.00     0.018 C 
ENDROOT
BRANCH   4   7
HETATM    7  C11 UNL     1      13.043  44.449  23.289  1.00  0.00     0.093 C 
HETATM    8  N1  UNL     1      12.462  45.376  22.606  1.00  0.00    -0.388 N 
ATOM      9  H12 UNL     1      11.786  45.944  23.116  1.00  0.00     0.157 HD
ATOM     10  H11 UNL     1      12.623  45.579  21.619  1.00  0.00     0.157 HD
BRANCH   7  11
HETATM   11  N2  UNL     1      13.987  43.654  22.576  1.00  0.00    -0.296 N 
ATOM     12  H2  UNL     1      14.032  42.643  22.700  1.00  0.00     0.187 HD
BRANCH  11  13
HETATM   13  N3  UNL     1      14.854  44.324  21.695  1.00  0.00    -0.344 N 
ATOM     14  H32 UNL     1      15.092  45.304  21.847  1.00  0.00     0.176 HD
ATOM     15  H31 UNL     1      15.225  43.788  20.910  1.00  0.00     0.176 HD
ENDBRANCH  11  13
ENDBRANCH   7  11
ENDBRANCH   4   7
BRANCH   1  16
HETATM   16  O1  UNL     1      12.542  43.416  27.223  1.00  0.00    -0.371 OA
HETATM   17  C1  UNL     1      12.838  42.926  28.472  1.00  0.00     0.204 C 
ENDBRANCH   1  16
BRANCH   1  18
HETATM   18  C3  UNL     1      13.861  45.250  28.069  1.00  0.00    -0.067 C 
HETATM   19  C4  UNL     1      14.490  45.763  28.970  1.00  0.00    -0.099 C 
BRANCH  19  20
HETATM   20  C5  UNL     1      15.253  46.404  30.046  1.00  0.00     0.065 A 
HETATM   21  C6  UNL     1      16.364  45.579  30.711  1.00  0.00     0.018 A 
HETATM   22  C7  UNL     1      16.685  46.643  29.738  1.00  0.00     0.018 A 
ENDBRANCH  19  20
ENDBRANCH   1  18
TORSDOF 6
ENDMDL
