MODEL 1
REMARK VINA RESULT: -6.378676348      0.000      0.000
REMARK  3 active torsions:
REMARK  status: ('A' for Active; 'I' for Inactive)
REMARK    1  A    between atoms: O1_1  and  C1_3 
REMARK    2  A    between atoms: C8_10  and  O2_11 
REMARK    3  A    between atoms: O2_11  and  C9_12 
ROOT
HETATM    1  C1  UNL     1      13.388  43.560  28.637  1.00  0.00     0.128 C 
HETATM    2  C2  UNL     1      12.594  43.756  29.916  1.00  0.00     0.015 C 
HETATM    3  C3  UNL     1      13.476  44.509  30.880  1.00  0.00     0.012 C 
HETATM    4  C4  UNL     1      13.853  45.820  30.238  1.00  0.00    -0.013 C 
HETATM    5  C5  UNL     1      12.578  46.601  30.021  1.00  0.00     0.012 C 
HETATM    6  C6  UNL     1      11.731  45.852  29.028  1.00  0.00     0.016 C 
HETATM    7  C7  UNL     1      11.344  44.507  29.564  1.00  0.00     0.014 C 
HETATM    8  C8  UNL     1      12.526  45.733  27.725  1.00  0.00     0.132 C 
HETATM    9  C12 UNL     1      13.713  44.868  27.969  1.00  0.00     0.044 C 
HETATM   10  C13 UNL     1      14.625  45.623  28.948  1.00  0.00     0.014 C 
ENDROOT
BRANCH   8  11
HETATM   11  O2  UNL     1      11.663  45.288  26.762  1.00  0.00    -0.376 OA
BRANCH  11  12
HETATM   12  C9  UNL     1      12.129  45.264  25.493  1.00  0.00     0.173 C 
HETATM   13  C10 UNL     1      11.300  44.463  24.482  1.00  0.00     0.265 C 
HETATM   14  N1  UNL     1      11.800  45.421  23.482  1.00  0.00    -0.070 N 
HETATM   15  C11 UNL     1      11.778  46.407  24.580  1.00  0.00     0.265 C 
ATOM     16  H12 UNL     1      12.643  45.240  22.936  1.00  0.00     0.277 HD
ATOM     17  H11 UNL     1      11.313  45.583  22.601  1.00  0.00     0.277 HD
ENDBRANCH  11  12
ENDBRANCH   8  11
BRANCH   1  18
HETATM   18  O1  UNL     1      12.809  42.636  27.806  1.00  0.00    -0.395 OA
ATOM     19  H1  UNL     1      13.407  42.338  27.131  1.00  0.00     0.210 HD
ENDBRANCH   1  18
TORSDOF 3
ENDMDL
MODEL 2
REMARK VINA RESULT: -6.271508814      1.477      2.459
REMARK  3 active torsions:
REMARK  status: ('A' for Active; 'I' for Inactive)
REMARK    1  A    between atoms: O1_1  and  C1_3 
REMARK    2  A    between atoms: C8_10  and  O2_11 
REMARK    3  A    between atoms: O2_11  and  C9_12 
ROOT
HETATM    1  C1  UNL     1      12.074  44.329  30.298  1.00  0.00     0.128 C 
HETATM    2  C2  UNL     1      12.775  45.246  31.284  1.00  0.00     0.015 C 
HETATM    3  C3  UNL     1      13.626  44.377  32.177  1.00  0.00     0.012 C 
HETATM    4  C4  UNL     1      14.601  43.628  31.303  1.00  0.00    -0.013 C 
HETATM    5  C5  UNL     1      15.480  44.653  30.625  1.00  0.00     0.012 C 
HETATM    6  C6  UNL     1      14.619  45.482  29.712  1.00  0.00     0.016 C 
HETATM    7  C7  UNL     1      13.582  46.232  30.493  1.00  0.00     0.014 C 
HETATM    8  C8  UNL     1      13.982  44.544  28.684  1.00  0.00     0.132 C 
HETATM    9  C12 UNL     1      13.047  43.627  29.391  1.00  0.00     0.044 C 
HETATM   10  C13 UNL     1      13.898  42.731  30.303  1.00  0.00     0.014 C 
ENDROOT
BRANCH   8  11
HETATM   11  O2  UNL     1      13.417  45.327  27.715  1.00  0.00    -0.376 OA
BRANCH  11  12
HETATM   12  C9  UNL     1      12.910  44.688  26.637  1.00  0.00     0.173 C 
HETATM   13  C10 UNL     1      11.779  45.407  25.893  1.00  0.00     0.265 C 
HETATM   14  N1  UNL     1      12.281  44.719  24.693  1.00  0.00    -0.070 N 
HETATM   15  C11 UNL     1      13.613  44.843  25.316  1.00  0.00     0.265 C 
ATOM     16  H12 UNL     1      11.909  43.818  24.391  1.00  0.00     0.277 HD
ATOM     17  H11 UNL     1      12.091  45.066  23.753  1.00  0.00     0.277 HD
ENDBRANCH  11  12
ENDBRANCH   8  11
BRANCH   1  18
HETATM   18  O1  UNL     1      11.052  44.963  29.641  1.00  0.00    -0.395 OA
ATOM     19  H1  UNL     1      10.199  44.658  29.927  1.00  0.00     0.210 HD
ENDBRANCH   1  18
TORSDOF 3
ENDMDL
MODEL 3
REMARK VINA RESULT: -6.063780224      1.203      1.274
REMARK  3 active torsions:
REMARK  status: ('A' for Active; 'I' for Inactive)
REMARK    1  A    between atoms: O1_1  and  C1_3 
REMARK    2  A    between atoms: C8_10  and  O2_11 
REMARK    3  A    between atoms: O2_11  and  C9_12 
ROOT
HETATM    1  C1  UNL     1      14.025  43.615  29.965  1.00  0.00     0.128 C 
HETATM    2  C2  UNL     1      12.982  44.030  30.987  1.00  0.00     0.015 C 
HETATM    3  C3  UNL     1      13.592  45.119  31.832  1.00  0.00     0.012 C 
HETATM    4  C4  UNL     1      13.978  46.255  30.918  1.00  0.00    -0.013 C 
HETATM    5  C5  UNL     1      12.710  46.774  30.282  1.00  0.00     0.012 C 
HETATM    6  C6  UNL     1      12.139  45.685  29.414  1.00  0.00     0.016 C 
HETATM    7  C7  UNL     1      11.767  44.488  30.236  1.00  0.00     0.014 C 
HETATM    8  C8  UNL     1      13.181  45.338  28.349  1.00  0.00     0.132 C 
HETATM    9  C12 UNL     1      14.365  44.734  29.019  1.00  0.00     0.044 C 
HETATM   10  C13 UNL     1      15.002  45.833  29.883  1.00  0.00     0.014 C 
ENDROOT
BRANCH   8  11
HETATM   11  O2  UNL     1      12.564  44.544  27.420  1.00  0.00    -0.376 OA
BRANCH  11  12
HETATM   12  C9  UNL     1      13.171  44.430  26.218  1.00  0.00     0.173 C 
HETATM   13  C10 UNL     1      12.254  44.172  25.017  1.00  0.00     0.265 C 
HETATM   14  N1  UNL     1      13.266  44.895  24.231  1.00  0.00    -0.070 N 
HETATM   15  C11 UNL     1      13.491  45.687  25.455  1.00  0.00     0.265 C 
ATOM     16  H12 UNL     1      14.028  44.410  23.755  1.00  0.00     0.277 HD
ATOM     17  H11 UNL     1      13.043  45.334  23.338  1.00  0.00     0.277 HD
ENDBRANCH  11  12
ENDBRANCH   8  11
BRANCH   1  18
HETATM   18  O1  UNL     1      13.699  42.436  29.344  1.00  0.00    -0.395 OA
ATOM     19  H1  UNL     1      13.949  41.679  29.861  1.00  0.00     0.210 HD
ENDBRANCH   1  18
TORSDOF 3
ENDMDL
MODEL 4
REMARK VINA RESULT: -6.021164679      2.311      5.184
REMARK  3 active torsions:
REMARK  status: ('A' for Active; 'I' for Inactive)
REMARK    1  A    between atoms: O1_1  and  C1_3 
REMARK    2  A    between atoms: C8_10  and  O2_11 
REMARK    3  A    between atoms: O2_11  and  C9_12 
ROOT
HETATM    1  C1  UNL     1      12.171  46.442  25.749  1.00  0.00     0.128 C 
HETATM    2  C2  UNL     1      11.484  45.980  24.476  1.00  0.00     0.015 C 
HETATM    3  C3  UNL     1      12.407  46.303  23.327  1.00  0.00     0.012 C 
HETATM    4  C4  UNL     1      13.712  45.585  23.563  1.00  0.00    -0.013 C 
HETATM    5  C5  UNL     1      13.419  44.103  23.561  1.00  0.00     0.012 C 
HETATM    6  C6  UNL     1      12.529  43.797  24.736  1.00  0.00     0.016 C 
HETATM    7  C7  UNL     1      11.217  44.510  24.611  1.00  0.00     0.014 C 
HETATM    8  C8  UNL     1      13.275  44.204  26.009  1.00  0.00     0.132 C 
HETATM    9  C12 UNL     1      13.443  45.683  26.011  1.00  0.00     0.044 C 
HETATM   10  C13 UNL     1      14.384  46.030  24.847  1.00  0.00     0.014 C 
ENDROOT
BRANCH   8  11
HETATM   11  O2  UNL     1      12.578  43.691  27.070  1.00  0.00    -0.376 OA
BRANCH  11  12
HETATM   12  C9  UNL     1      13.150  43.811  28.288  1.00  0.00     0.173 C 
HETATM   13  C10 UNL     1      12.312  44.510  29.365  1.00  0.00     0.265 C 
HETATM   14  N1  UNL     1      13.035  43.657  30.322  1.00  0.00    -0.070 N 
HETATM   15  C11 UNL     1      13.053  42.652  29.242  1.00  0.00     0.265 C 
ATOM     16  H12 UNL     1      13.889  43.969  30.784  1.00  0.00     0.277 HD
ATOM     17  H11 UNL     1      12.660  43.448  31.248  1.00  0.00     0.277 HD
ENDBRANCH  11  12
ENDBRANCH   8  11
BRANCH   1  18
HETATM   18  O1  UNL     1      11.311  46.478  26.816  1.00  0.00    -0.395 OA
ATOM     19  H1  UNL     1      10.417  46.276  26.562  1.00  0.00     0.210 HD
ENDBRANCH   1  18
TORSDOF 3
ENDMDL
MODEL 5
REMARK VINA RESULT: -5.922228481      3.064      4.552
REMARK  3 active torsions:
REMARK  status: ('A' for Active; 'I' for Inactive)
REMARK    1  A    between atoms: O1_1  and  C1_3 
REMARK    2  A    between atoms: C8_10  and  O2_11 
REMARK    3  A    between atoms: O2_11  and  C9_12 
ROOT
HETATM    1  C1  UNL     1      13.775  44.705  32.848  1.00  0.00     0.128 C 
HETATM    2  C2  UNL     1      15.009  45.312  33.492  1.00  0.00     0.015 C 
HETATM    3  C3  UNL     1      15.818  44.178  34.068  1.00  0.00     0.012 C 
HETATM    4  C4  UNL     1      16.167  43.237  32.943  1.00  0.00    -0.013 C 
HETATM    5  C5  UNL     1      17.021  44.004  31.961  1.00  0.00     0.012 C 
HETATM    6  C6  UNL     1      16.184  45.106  31.370  1.00  0.00     0.016 C 
HETATM    7  C7  UNL     1      15.748  46.072  32.430  1.00  0.00     0.014 C 
HETATM    8  C8  UNL     1      14.988  44.463  30.665  1.00  0.00     0.132 C 
HETATM    9  C12 UNL     1      14.125  43.813  31.689  1.00  0.00     0.044 C 
HETATM   10  C13 UNL     1      14.933  42.650  32.285  1.00  0.00     0.014 C 
ENDROOT
BRANCH   8  11
HETATM   11  O2  UNL     1      14.382  45.438  29.921  1.00  0.00    -0.376 OA
BRANCH  11  12
HETATM   12  C9  UNL     1      13.394  45.041  29.088  1.00  0.00     0.173 C 
HETATM   13  C10 UNL     1      12.117  45.889  29.100  1.00  0.00     0.265 C 
HETATM   14  N1  UNL     1      11.968  45.485  27.693  1.00  0.00    -0.070 N 
HETATM   15  C11 UNL     1      13.443  45.489  27.653  1.00  0.00     0.265 C 
ATOM     16  H12 UNL     1      11.424  44.666  27.421  1.00  0.00     0.277 HD
ATOM     17  H11 UNL     1      11.409  46.025  27.033  1.00  0.00     0.277 HD
ENDBRANCH  11  12
ENDBRANCH   8  11
BRANCH   1  18
HETATM   18  O1  UNL     1      12.825  45.651  32.560  1.00  0.00    -0.395 OA
ATOM     19  H1  UNL     1      12.377  45.957  33.340  1.00  0.00     0.210 HD
ENDBRANCH   1  18
TORSDOF 3
ENDMDL
