MODEL 1
REMARK VINA RESULT: -5.696873034      0.000      0.000
REMARK  5 active torsions:
REMARK  status: ('A' for Active; 'I' for Inactive)
REMARK    1  A    between atoms: C2_2  and  C3_3 
REMARK    2  A    between atoms: C3_3  and  N1_4 
REMARK    3  A    between atoms: N2_9  and  C8_10 
REMARK    4  A    between atoms: C9_11  and  C10_12 
REMARK    5  A    between atoms: C10_12  and  O1_14 
ROOT
HETATM    1  N1  UNL     1      13.263  44.629  29.004  1.00  0.00    -0.215 N 
HETATM    2  C4  UNL     1      12.840  43.863  27.852  1.00  0.00     0.173 C 
HETATM    3  C5  UNL     1      12.870  44.996  26.796  1.00  0.00     0.072 C 
HETATM    4  C6  UNL     1      12.724  44.461  25.408  1.00  0.00     0.041 C 
HETATM    5  C7  UNL     1      11.787  45.959  27.187  1.00  0.00     0.041 C 
HETATM    6  N2  UNL     1      14.201  45.534  27.069  1.00  0.00    -0.130 N 
HETATM    7  C12 UNL     1      14.353  45.435  28.476  1.00  0.00     0.684 C 
HETATM    8  N3  UNL     1      15.281  45.950  29.206  1.00  0.00    -0.234 N 
ATOM      9  H31 UNL     1      16.046  46.514  28.837  1.00  0.00     0.174 HD
ATOM     10  H32 UNL     1      15.391  45.878  30.218  1.00  0.00     0.174 HD
ENDROOT
BRANCH   6  11
HETATM   11  C8  UNL     1      15.147  46.037  26.167  1.00  0.00     0.032 C 
HETATM   12  C9  UNL     1      15.971  46.448  25.388  1.00  0.00    -0.051 C 
BRANCH  12  13
HETATM   13  C10 UNL     1      16.988  46.930  24.430  1.00  0.00     0.194 C 
HETATM   14  C11 UNL     1      17.062  45.966  23.271  1.00  0.00     0.053 C 
BRANCH  13  15
HETATM   15  O1  UNL     1      18.230  47.038  25.070  1.00  0.00    -0.384 OA
ATOM     16  H1  UNL     1      18.907  47.221  24.429  1.00  0.00     0.211 HD
ENDBRANCH  13  15
ENDBRANCH  12  13
ENDBRANCH   6  11
BRANCH   1  17
HETATM   17  C3  UNL     1      12.840  44.679  30.356  1.00  0.00     0.141 C 
BRANCH  17  18
HETATM   18  C2  UNL     1      13.521  43.812  31.344  1.00  0.00     0.016 C 
HETATM   19  C1  UNL     1      13.895  44.451  32.643  1.00  0.00     0.006 C 
ENDBRANCH  17  18
ENDBRANCH   1  17
TORSDOF 5
ENDMDL
MODEL 2
REMARK VINA RESULT: -5.691635019      1.693      2.264
REMARK  5 active torsions:
REMARK  status: ('A' for Active; 'I' for Inactive)
REMARK    1  A    between atoms: C2_2  and  C3_3 
REMARK    2  A    between atoms: C3_3  and  N1_4 
REMARK    3  A    between atoms: N2_9  and  C8_10 
REMARK    4  A    between atoms: C9_11  and  C10_12 
REMARK    5  A    between atoms: C10_12  and  O1_14 
ROOT
HETATM    1  N1  UNL     1      13.117  44.983  26.866  1.00  0.00    -0.215 N 
HETATM    2  C4  UNL     1      12.707  44.216  25.710  1.00  0.00     0.173 C 
HETATM    3  C5  UNL     1      13.087  45.235  24.608  1.00  0.00     0.072 C 
HETATM    4  C6  UNL     1      13.021  44.624  23.244  1.00  0.00     0.041 C 
HETATM    5  C7  UNL     1      12.166  46.406  24.787  1.00  0.00     0.041 C 
HETATM    6  N2  UNL     1      14.450  45.544  25.035  1.00  0.00    -0.130 N 
HETATM    7  C12 UNL     1      14.400  45.533  26.452  1.00  0.00     0.684 C 
HETATM    8  N3  UNL     1      15.307  45.929  27.276  1.00  0.00    -0.234 N 
ATOM      9  H31 UNL     1      16.206  46.314  26.987  1.00  0.00     0.174 HD
ATOM     10  H32 UNL     1      15.271  45.921  28.295  1.00  0.00     0.174 HD
ENDROOT
BRANCH   6  11
HETATM   11  C8  UNL     1      15.582  45.793  24.248  1.00  0.00     0.032 C 
HETATM   12  C9  UNL     1      16.546  46.028  23.563  1.00  0.00    -0.051 C 
BRANCH  12  13
HETATM   13  C10 UNL     1      17.719  46.334  22.716  1.00  0.00     0.194 C 
HETATM   14  C11 UNL     1      17.779  45.334  21.587  1.00  0.00     0.053 C 
BRANCH  13  15
HETATM   15  O1  UNL     1      18.887  46.287  23.488  1.00  0.00    -0.384 OA
ATOM     16  H1  UNL     1      19.287  47.149  23.519  1.00  0.00     0.211 HD
ENDBRANCH  13  15
ENDBRANCH  12  13
ENDBRANCH   6  11
BRANCH   1  17
HETATM   17  C3  UNL     1      12.542  45.218  28.139  1.00  0.00     0.141 C 
BRANCH  17  18
HETATM   18  C2  UNL     1      13.001  44.401  29.286  1.00  0.00     0.016 C 
HETATM   19  C1  UNL     1      12.959  42.918  29.105  1.00  0.00     0.006 C 
ENDBRANCH  17  18
ENDBRANCH   1  17
TORSDOF 5
ENDMDL
MODEL 3
REMARK VINA RESULT: -5.600600309      2.990      4.231
REMARK  5 active torsions:
REMARK  status: ('A' for Active; 'I' for Inactive)
REMARK    1  A    between atoms: C2_2  and  C3_3 
REMARK    2  A    between atoms: C3_3  and  N1_4 
REMARK    3  A    between atoms: N2_9  and  C8_10 
REMARK    4  A    between atoms: C9_11  and  C10_12 
REMARK    5  A    between atoms: C10_12  and  O1_14 
ROOT
HETATM    1  N1  UNL     1      14.132  43.768  31.659  1.00  0.00    -0.215 N 
HETATM    2  C4  UNL     1      13.556  45.056  31.977  1.00  0.00     0.173 C 
HETATM    3  C5  UNL     1      13.981  45.822  30.699  1.00  0.00     0.072 C 
HETATM    4  C6  UNL     1      13.302  47.151  30.601  1.00  0.00     0.041 C 
HETATM    5  C7  UNL     1      15.479  45.914  30.748  1.00  0.00     0.041 C 
HETATM    6  N2  UNL     1      13.527  44.867  29.691  1.00  0.00    -0.130 N 
HETATM    7  C12 UNL     1      13.779  43.591  30.258  1.00  0.00     0.684 C 
HETATM    8  N3  UNL     1      13.718  42.444  29.675  1.00  0.00    -0.234 N 
ATOM      9  H31 UNL     1      13.472  42.320  28.693  1.00  0.00     0.174 HD
ATOM     10  H32 UNL     1      13.900  41.527  30.081  1.00  0.00     0.174 HD
ENDROOT
BRANCH   6  11
HETATM   11  C8  UNL     1      12.956  45.118  28.437  1.00  0.00     0.032 C 
HETATM   12  C9  UNL     1      12.481  45.319  27.347  1.00  0.00    -0.051 C 
BRANCH  12  13
HETATM   13  C10 UNL     1      11.912  45.551  26.002  1.00  0.00     0.194 C 
HETATM   14  C11 UNL     1      12.114  44.310  25.167  1.00  0.00     0.053 C 
BRANCH  13  15
HETATM   15  O1  UNL     1      12.534  46.659  25.409  1.00  0.00    -0.384 OA
ATOM     16  H1  UNL     1      13.410  46.423  25.127  1.00  0.00     0.211 HD
ENDBRANCH  13  15
ENDBRANCH  12  13
ENDBRANCH   6  11
BRANCH   1  17
HETATM   17  C3  UNL     1      14.857  42.808  32.407  1.00  0.00     0.141 C 
BRANCH  17  18
HETATM   18  C2  UNL     1      16.005  43.265  33.223  1.00  0.00     0.016 C 
HETATM   19  C1  UNL     1      15.702  43.676  34.628  1.00  0.00     0.006 C 
ENDBRANCH  17  18
ENDBRANCH   1  17
TORSDOF 5
ENDMDL
MODEL 4
REMARK VINA RESULT: -5.318432475      3.107      5.000
REMARK  5 active torsions:
REMARK  status: ('A' for Active; 'I' for Inactive)
REMARK    1  A    between atoms: C2_2  and  C3_3 
REMARK    2  A    between atoms: C3_3  and  N1_4 
REMARK    3  A    between atoms: N2_9  and  C8_10 
REMARK    4  A    between atoms: C9_11  and  C10_12 
REMARK    5  A    between atoms: C10_12  and  O1_14 
ROOT
HETATM    1  N1  UNL     1      14.442  44.406  33.026  1.00  0.00    -0.215 N 
HETATM    2  C4  UNL     1      13.760  45.681  32.985  1.00  0.00     0.173 C 
HETATM    3  C5  UNL     1      14.326  46.204  31.641  1.00  0.00     0.072 C 
HETATM    4  C6  UNL     1      13.601  47.426  31.175  1.00  0.00     0.041 C 
HETATM    5  C7  UNL     1      15.794  46.425  31.865  1.00  0.00     0.041 C 
HETATM    6  N2  UNL     1      14.073  45.031  30.808  1.00  0.00    -0.130 N 
HETATM    7  C12 UNL     1      14.306  43.921  31.660  1.00  0.00     0.684 C 
HETATM    8  N3  UNL     1      14.390  42.679  31.331  1.00  0.00    -0.234 N 
ATOM      9  H31 UNL     1      14.295  42.338  30.374  1.00  0.00     0.174 HD
ATOM     10  H32 UNL     1      14.557  41.880  31.943  1.00  0.00     0.174 HD
ENDROOT
BRANCH   6  11
HETATM   11  C8  UNL     1      13.677  44.976  29.466  1.00  0.00     0.032 C 
HETATM   12  C9  UNL     1      13.354  44.946  28.304  1.00  0.00    -0.051 C 
BRANCH  12  13
HETATM   13  C10 UNL     1      12.972  44.923  26.876  1.00  0.00     0.194 C 
HETATM   14  C11 UNL     1      11.803  45.855  26.670  1.00  0.00     0.053 C 
BRANCH  13  15
HETATM   15  O1  UNL     1      12.643  43.616  26.493  1.00  0.00    -0.384 OA
ATOM     16  H1  UNL     1      11.844  43.623  25.978  1.00  0.00     0.211 HD
ENDBRANCH  13  15
ENDBRANCH  12  13
ENDBRANCH   6  11
BRANCH   1  17
HETATM   17  C3  UNL     1      15.099  43.679  34.049  1.00  0.00     0.141 C 
BRANCH  17  18
HETATM   18  C2  UNL     1      15.425  44.375  35.315  1.00  0.00     0.016 C 
HETATM   19  C1  UNL     1      16.537  43.793  36.127  1.00  0.00     0.006 C 
ENDBRANCH  17  18
ENDBRANCH   1  17
TORSDOF 5
ENDMDL
MODEL 5
REMARK VINA RESULT: -5.313228230      3.846      7.183
REMARK  5 active torsions:
REMARK  status: ('A' for Active; 'I' for Inactive)
REMARK    1  A    between atoms: C2_2  and  C3_3 
REMARK    2  A    between atoms: C3_3  and  N1_4 
REMARK    3  A    between atoms: N2_9  and  C8_10 
REMARK    4  A    between atoms: C9_11  and  C10_12 
REMARK    5  A    between atoms: C10_12  and  O1_14 
ROOT
HETATM    1  N1  UNL     1      13.861  45.079  29.583  1.00  0.00    -0.215 N 
HETATM    2  C4  UNL     1      13.959  43.804  30.257  1.00  0.00     0.173 C 
HETATM    3  C5  UNL     1      14.790  44.253  31.485  1.00  0.00     0.072 C 
HETATM    4  C6  UNL     1      14.848  43.188  32.533  1.00  0.00     0.041 C 
HETATM    5  C7  UNL     1      16.138  44.647  30.954  1.00  0.00     0.041 C 
HETATM    6  N2  UNL     1      14.002  45.415  31.888  1.00  0.00    -0.130 N 
HETATM    7  C12 UNL     1      13.566  46.000  30.671  1.00  0.00     0.684 C 
HETATM    8  N3  UNL     1      12.999  47.145  30.506  1.00  0.00    -0.234 N 
ATOM      9  H31 UNL     1      12.792  47.790  31.268  1.00  0.00     0.174 HD
ATOM     10  H32 UNL     1      12.685  47.565  29.632  1.00  0.00     0.174 HD
ENDROOT
BRANCH   6  11
HETATM   11  C8  UNL     1      13.714  45.876  33.179  1.00  0.00     0.032 C 
HETATM   12  C9  UNL     1      13.450  46.291  34.280  1.00  0.00    -0.051 C 
BRANCH  12  13
HETATM   13  C10 UNL     1      13.115  46.814  35.622  1.00  0.00     0.194 C 
HETATM   14  C11 UNL     1      11.641  47.134  35.665  1.00  0.00     0.053 C 
BRANCH  13  15
HETATM   15  O1  UNL     1      13.882  47.955  35.892  1.00  0.00    -0.384 OA
ATOM     16  H1  UNL     1      14.367  48.208  35.115  1.00  0.00     0.211 HD
ENDBRANCH  13  15
ENDBRANCH  12  13
ENDBRANCH   6  11
BRANCH   1  17
HETATM   17  C3  UNL     1      13.977  45.483  28.230  1.00  0.00     0.141 C 
BRANCH  17  18
HETATM   18  C2  UNL     1      12.995  44.966  27.249  1.00  0.00     0.016 C 
HETATM   19  C1  UNL     1      11.876  45.886  26.879  1.00  0.00     0.006 C 
ENDBRANCH  17  18
ENDBRANCH   1  17
TORSDOF 5
ENDMDL
