MODEL 1
REMARK VINA RESULT: -6.392614730      0.000      0.000
REMARK  3 active torsions:
REMARK  status: ('A' for Active; 'I' for Inactive)
REMARK    1  A    between atoms: C2_2  and  N1_5 
REMARK    2  A    between atoms: C8_9  and  N2_10 
REMARK    3  A    between atoms: N2_10  and  C9_12 
ROOT
HETATM    1  N1  UNL     1      12.939  45.230  25.598  1.00  0.00    -0.061 N 
HETATM    2  C5  UNL     1      14.332  45.686  25.603  1.00  0.00     0.273 C 
HETATM    3  C6  UNL     1      12.111  46.190  26.258  1.00  0.00     0.240 C 
HETATM    4  C7  UNL     1      12.046  45.803  27.725  1.00  0.00     0.055 C 
HETATM    5  C8  UNL     1      12.974  44.623  27.836  1.00  0.00     0.112 C 
HETATM    6  C12 UNL     1      12.919  44.049  26.433  1.00  0.00     0.263 C 
ENDROOT
BRANCH   5   7
HETATM    7  N2  UNL     1      12.501  43.670  28.812  1.00  0.00    -0.356 N 
ATOM      8  H2  UNL     1      11.759  43.011  28.579  1.00  0.00     0.163 HD
BRANCH   7   9
HETATM    9  C9  UNL     1      13.091  43.671  30.099  1.00  0.00     0.171 C 
HETATM   10  N3  UNL     1      13.005  44.608  30.996  1.00  0.00    -0.361 N 
HETATM   11  C10 UNL     1      13.741  44.251  32.188  1.00  0.00     0.142 C 
ATOM     12  H3  UNL     1      12.487  45.479  30.875  1.00  0.00     0.162 HD
HETATM   13  C11 UNL     1      14.669  43.165  31.683  1.00  0.00     0.142 C 
HETATM   14  N4  UNL     1      13.888  42.605  30.597  1.00  0.00    -0.361 N 
ATOM     15  H4  UNL     1      13.907  41.642  30.261  1.00  0.00     0.162 HD
ENDBRANCH   7   9
ENDBRANCH   5   7
BRANCH   1  16
HETATM   16  C2  UNL     1      12.547  44.989  24.248  1.00  0.00     0.118 C 
HETATM   17  C1  UNL     1      11.129  44.453  24.248  1.00  0.00     0.046 C 
HETATM   18  C3  UNL     1      13.368  43.983  23.522  1.00  0.00     0.046 C 
HETATM   19  C4  UNL     1      12.548  46.274  23.440  1.00  0.00     0.046 C 
ENDBRANCH   1  16
TORSDOF 3
ENDMDL
MODEL 2
REMARK VINA RESULT: -6.274127666      1.740      6.059
REMARK  3 active torsions:
REMARK  status: ('A' for Active; 'I' for Inactive)
REMARK    1  A    between atoms: C2_2  and  N1_5 
REMARK    2  A    between atoms: C8_9  and  N2_10 
REMARK    3  A    between atoms: N2_10  and  C9_12 
ROOT
HETATM    1  N1  UNL     1      13.126  45.128  29.061  1.00  0.00    -0.061 N 
HETATM    2  C5  UNL     1      12.961  43.672  29.047  1.00  0.00     0.273 C 
HETATM    3  C6  UNL     1      11.871  45.761  28.805  1.00  0.00     0.240 C 
HETATM    4  C7  UNL     1      11.762  45.966  27.304  1.00  0.00     0.055 C 
HETATM    5  C8  UNL     1      13.000  45.314  26.753  1.00  0.00     0.112 C 
HETATM    6  C12 UNL     1      13.962  45.430  27.920  1.00  0.00     0.263 C 
ENDROOT
BRANCH   5   7
HETATM    7  N2  UNL     1      13.495  46.016  25.592  1.00  0.00    -0.356 N 
ATOM      8  H2  UNL     1      13.679  47.018  25.630  1.00  0.00     0.163 HD
BRANCH   7   9
HETATM    9  C9  UNL     1      13.718  45.282  24.402  1.00  0.00     0.171 C 
HETATM   10  N3  UNL     1      13.155  44.162  24.059  1.00  0.00    -0.361 N 
HETATM   11  C10 UNL     1      13.636  43.716  22.771  1.00  0.00     0.142 C 
ATOM     12  H3  UNL     1      12.465  43.665  24.622  1.00  0.00     0.162 HD
HETATM   13  C11 UNL     1      14.923  44.500  22.616  1.00  0.00     0.142 C 
HETATM   14  N4  UNL     1      14.625  45.691  23.388  1.00  0.00    -0.361 N 
ATOM     15  H4  UNL     1      14.992  46.630  23.233  1.00  0.00     0.162 HD
ENDBRANCH   7   9
ENDBRANCH   5   7
BRANCH   1  16
HETATM   16  C2  UNL     1      13.697  45.507  30.312  1.00  0.00     0.118 C 
HETATM   17  C1  UNL     1      15.206  45.410  30.200  1.00  0.00     0.046 C 
HETATM   18  C3  UNL     1      13.313  44.651  31.466  1.00  0.00     0.046 C 
HETATM   19  C4  UNL     1      13.356  46.946  30.656  1.00  0.00     0.046 C 
ENDBRANCH   1  16
TORSDOF 3
ENDMDL
MODEL 3
REMARK VINA RESULT: -6.269275792      1.727      6.045
REMARK  3 active torsions:
REMARK  status: ('A' for Active; 'I' for Inactive)
REMARK    1  A    between atoms: C2_2  and  N1_5 
REMARK    2  A    between atoms: C8_9  and  N2_10 
REMARK    3  A    between atoms: N2_10  and  C9_12 
ROOT
HETATM    1  N1  UNL     1      13.142  45.103  29.033  1.00  0.00    -0.061 N 
HETATM    2  C5  UNL     1      12.968  43.648  29.013  1.00  0.00     0.273 C 
HETATM    3  C6  UNL     1      11.879  45.746  28.852  1.00  0.00     0.240 C 
HETATM    4  C7  UNL     1      11.690  45.967  27.361  1.00  0.00     0.055 C 
HETATM    5  C8  UNL     1      12.893  45.313  26.737  1.00  0.00     0.112 C 
HETATM    6  C12 UNL     1      13.917  45.412  27.851  1.00  0.00     0.263 C 
ENDROOT
BRANCH   5   7
HETATM    7  N2  UNL     1      13.328  46.024  25.559  1.00  0.00    -0.356 N 
ATOM      8  H2  UNL     1      13.425  47.040  25.569  1.00  0.00     0.163 HD
BRANCH   7   9
HETATM    9  C9  UNL     1      13.617  45.282  24.388  1.00  0.00     0.171 C 
HETATM   10  N3  UNL     1      13.085  44.151  24.031  1.00  0.00    -0.361 N 
HETATM   11  C10 UNL     1      13.633  43.698  22.772  1.00  0.00     0.142 C 
ATOM     12  H3  UNL     1      12.376  43.650  24.566  1.00  0.00     0.162 HD
HETATM   13  C11 UNL     1      14.915  44.498  22.670  1.00  0.00     0.142 C 
HETATM   14  N4  UNL     1      14.566  45.693  23.414  1.00  0.00    -0.361 N 
ATOM     15  H4  UNL     1      14.928  46.635  23.267  1.00  0.00     0.162 HD
ENDBRANCH   7   9
ENDBRANCH   5   7
BRANCH   1  16
HETATM   16  C2  UNL     1      13.782  45.466  30.254  1.00  0.00     0.118 C 
HETATM   17  C1  UNL     1      13.386  46.888  30.601  1.00  0.00     0.046 C 
HETATM   18  C3  UNL     1      15.270  45.450  30.217  1.00  0.00     0.046 C 
HETATM   19  C4  UNL     1      13.329  44.575  31.396  1.00  0.00     0.046 C 
ENDBRANCH   1  16
TORSDOF 3
ENDMDL
MODEL 4
REMARK VINA RESULT: -6.185068187      1.779      6.033
REMARK  3 active torsions:
REMARK  status: ('A' for Active; 'I' for Inactive)
REMARK    1  A    between atoms: C2_2  and  N1_5 
REMARK    2  A    between atoms: C8_9  and  N2_10 
REMARK    3  A    between atoms: N2_10  and  C9_12 
ROOT
HETATM    1  N1  UNL     1      13.151  45.149  28.962  1.00  0.00    -0.061 N 
HETATM    2  C5  UNL     1      13.029  43.688  28.957  1.00  0.00     0.273 C 
HETATM    3  C6  UNL     1      11.869  45.744  28.756  1.00  0.00     0.240 C 
HETATM    4  C7  UNL     1      11.693  45.941  27.260  1.00  0.00     0.055 C 
HETATM    5  C8  UNL     1      12.926  45.323  26.660  1.00  0.00     0.112 C 
HETATM    6  C12 UNL     1      13.930  45.471  27.786  1.00  0.00     0.263 C 
ENDROOT
BRANCH   5   7
HETATM    7  N2  UNL     1      13.351  46.035  25.479  1.00  0.00    -0.356 N 
ATOM      8  H2  UNL     1      13.308  47.053  25.440  1.00  0.00     0.163 HD
BRANCH   7   9
HETATM    9  C9  UNL     1      13.830  45.289  24.375  1.00  0.00     0.171 C 
HETATM   10  N3  UNL     1      14.818  45.603  23.591  1.00  0.00    -0.361 N 
HETATM   11  C10 UNL     1      15.012  44.592  22.575  1.00  0.00     0.142 C 
ATOM     12  H3  UNL     1      15.382  46.448  23.680  1.00  0.00     0.162 HD
HETATM   13  C11 UNL     1      13.686  43.861  22.588  1.00  0.00     0.142 C 
HETATM   14  N4  UNL     1      13.270  44.049  23.964  1.00  0.00    -0.361 N 
ATOM     15  H4  UNL     1      12.693  43.420  24.522  1.00  0.00     0.162 HD
ENDBRANCH   7   9
ENDBRANCH   5   7
BRANCH   1  16
HETATM   16  C2  UNL     1      13.762  45.548  30.187  1.00  0.00     0.118 C 
HETATM   17  C1  UNL     1      13.366  44.560  31.266  1.00  0.00     0.046 C 
HETATM   18  C3  UNL     1      13.355  46.890  30.687  1.00  0.00     0.046 C 
HETATM   19  C4  UNL     1      15.276  45.524  30.078  1.00  0.00     0.046 C 
ENDBRANCH   1  16
TORSDOF 3
ENDMDL
MODEL 5
REMARK VINA RESULT: -6.168378135      1.513      5.980
REMARK  3 active torsions:
REMARK  status: ('A' for Active; 'I' for Inactive)
REMARK    1  A    between atoms: C2_2  and  N1_5 
REMARK    2  A    between atoms: C8_9  and  N2_10 
REMARK    3  A    between atoms: N2_10  and  C9_12 
ROOT
HETATM    1  N1  UNL     1      13.613  45.281  29.763  1.00  0.00    -0.061 N 
HETATM    2  C5  UNL     1      13.381  46.561  30.438  1.00  0.00     0.273 C 
HETATM    3  C6  UNL     1      14.551  45.456  28.699  1.00  0.00     0.240 C 
HETATM    4  C7  UNL     1      13.761  45.774  27.442  1.00  0.00     0.055 C 
HETATM    5  C8  UNL     1      12.334  45.855  27.915  1.00  0.00     0.112 C 
HETATM    6  C12 UNL     1      12.356  44.948  29.130  1.00  0.00     0.263 C 
ENDROOT
BRANCH   5   7
HETATM    7  N2  UNL     1      11.417  45.368  26.912  1.00  0.00    -0.356 N 
ATOM      8  H2  UNL     1      10.449  45.157  27.151  1.00  0.00     0.163 HD
BRANCH   7   9
HETATM    9  C9  UNL     1      11.893  45.190  25.590  1.00  0.00     0.171 C 
HETATM   10  N3  UNL     1      12.308  44.082  25.053  1.00  0.00    -0.361 N 
HETATM   11  C10 UNL     1      12.715  44.294  23.682  1.00  0.00     0.142 C 
ATOM     12  H3  UNL     1      12.342  43.183  25.534  1.00  0.00     0.162 HD
HETATM   13  C11 UNL     1      12.921  45.794  23.634  1.00  0.00     0.142 C 
HETATM   14  N4  UNL     1      11.981  46.244  24.641  1.00  0.00    -0.361 N 
ATOM     15  H4  UNL     1      11.485  47.135  24.663  1.00  0.00     0.162 HD
ENDBRANCH   7   9
ENDBRANCH   5   7
BRANCH   1  16
HETATM   16  C2  UNL     1      14.042  44.328  30.733  1.00  0.00     0.118 C 
HETATM   17  C1  UNL     1      15.553  44.397  30.840  1.00  0.00     0.046 C 
HETATM   18  C3  UNL     1      13.715  42.912  30.415  1.00  0.00     0.046 C 
HETATM   19  C4  UNL     1      13.474  44.648  32.104  1.00  0.00     0.046 C 
ENDBRANCH   1  16
TORSDOF 3
ENDMDL
