MODEL 1
REMARK VINA RESULT: -5.799897850      0.000      0.000
REMARK  3 active torsions:
REMARK  status: ('A' for Active; 'I' for Inactive)
REMARK    1  A    between atoms: C2_2  and  C4_4 
REMARK    2  A    between atoms: C5_5  and  C6_6 
REMARK    3  A    between atoms: C6_6  and  O1_8 
ROOT
HETATM    1  C4  UNL     1      14.155  44.801  33.091  1.00  0.00     0.030 C 
HETATM    2  C5  UNL     1      15.073  43.744  32.718  1.00  0.00     0.219 C 
HETATM    3  N1  UNL     1      14.774  43.536  31.257  1.00  0.00    -0.060 N 
ATOM      4  H11 UNL     1      14.972  42.588  30.936  1.00  0.00     0.278 HD
ATOM      5  H12 UNL     1      15.425  44.018  30.639  1.00  0.00     0.278 HD
HETATM    6  C8  UNL     1      13.428  43.922  31.061  1.00  0.00     0.215 C 
HETATM    7  C9  UNL     1      13.183  44.443  29.689  1.00  0.00     0.004 C 
HETATM    8  C10 UNL     1      13.310  45.756  29.645  1.00  0.00    -0.009 C 
HETATM    9  C11 UNL     1      13.665  46.263  31.024  1.00  0.00     0.122 C 
HETATM   10  C12 UNL     1      15.004  46.762  31.028  1.00  0.00     0.068 C 
HETATM   11  N2  UNL     1      16.073  47.189  31.019  1.00  0.00    -0.197 NA
HETATM   12  C13 UNL     1      13.342  45.181  31.894  1.00  0.00     0.048 C 
ENDROOT
BRANCH   1  13
HETATM   13  C2  UNL     1      14.373  45.841  34.085  1.00  0.00    -0.016 C 
HETATM   14  C1  UNL     1      14.914  45.344  35.399  1.00  0.00     0.010 C 
HETATM   15  C3  UNL     1      13.006  46.474  34.412  1.00  0.00     0.010 C 
ENDBRANCH   1  13
BRANCH   2  16
HETATM   16  C6  UNL     1      16.547  43.868  32.788  1.00  0.00     0.145 C 
HETATM   17  C7  UNL     1      17.326  42.638  33.181  1.00  0.00     0.041 C 
BRANCH  16  18
HETATM   18  O1  UNL     1      16.934  44.025  31.392  1.00  0.00    -0.394 OA
ATOM     19  H1  UNL     1      17.807  44.397  31.450  1.00  0.00     0.210 HD
ENDBRANCH  16  18
ENDBRANCH   2  16
TORSDOF 3
ENDMDL
MODEL 2
REMARK VINA RESULT: -5.465528231      1.531      4.124
REMARK  3 active torsions:
REMARK  status: ('A' for Active; 'I' for Inactive)
REMARK    1  A    between atoms: C2_2  and  C4_4 
REMARK    2  A    between atoms: C5_5  and  C6_6 
REMARK    3  A    between atoms: C6_6  and  O1_8 
ROOT
HETATM    1  C4  UNL     1      14.387  46.154  30.106  1.00  0.00     0.030 C 
HETATM    2  C5  UNL     1      15.829  46.247  30.200  1.00  0.00     0.219 C 
HETATM    3  N1  UNL     1      16.062  46.403  31.680  1.00  0.00    -0.060 N 
ATOM      4  H11 UNL     1      16.917  46.912  31.902  1.00  0.00     0.278 HD
ATOM      5  H12 UNL     1      16.309  45.529  32.143  1.00  0.00     0.278 HD
HETATM    6  C8  UNL     1      14.899  47.007  32.211  1.00  0.00     0.215 C 
HETATM    7  C9  UNL     1      14.649  46.611  33.622  1.00  0.00     0.004 C 
HETATM    8  C10 UNL     1      13.843  45.568  33.691  1.00  0.00    -0.009 C 
HETATM    9  C11 UNL     1      13.460  45.147  32.291  1.00  0.00     0.122 C 
HETATM   10  C12 UNL     1      14.047  43.881  31.988  1.00  0.00     0.068 C 
HETATM   11  N2  UNL     1      14.499  42.848  31.757  1.00  0.00    -0.197 NA
HETATM   12  C13 UNL     1      13.803  46.267  31.478  1.00  0.00     0.048 C 
ENDROOT
BRANCH   1  13
HETATM   13  C2  UNL     1      13.620  45.388  29.134  1.00  0.00    -0.016 C 
HETATM   14  C1  UNL     1      14.026  45.614  27.702  1.00  0.00     0.010 C 
HETATM   15  C3  UNL     1      12.151  45.846  29.227  1.00  0.00     0.010 C 
ENDBRANCH   1  13
BRANCH   2  16
HETATM   16  C6  UNL     1      16.757  45.170  29.783  1.00  0.00     0.145 C 
HETATM   17  C7  UNL     1      18.090  45.587  29.215  1.00  0.00     0.041 C 
BRANCH  16  18
HETATM   18  O1  UNL     1      17.154  44.566  31.048  1.00  0.00    -0.394 OA
ATOM     19  H1  UNL     1      17.822  43.942  30.789  1.00  0.00     0.210 HD
ENDBRANCH  16  18
ENDBRANCH   2  16
TORSDOF 3
ENDMDL
MODEL 3
REMARK VINA RESULT: -5.420770964      1.909      4.385
REMARK  3 active torsions:
REMARK  status: ('A' for Active; 'I' for Inactive)
REMARK    1  A    between atoms: C2_2  and  C4_4 
REMARK    2  A    between atoms: C5_5  and  C6_6 
REMARK    3  A    between atoms: C6_6  and  O1_8 
ROOT
HETATM    1  C4  UNL     1      13.988  44.321  32.164  1.00  0.00     0.030 C 
HETATM    2  C5  UNL     1      14.024  45.667  32.696  1.00  0.00     0.219 C 
HETATM    3  N1  UNL     1      15.042  45.567  33.803  1.00  0.00    -0.060 N 
ATOM      4  H11 UNL     1      14.890  46.241  34.552  1.00  0.00     0.278 HD
ATOM      5  H12 UNL     1      15.969  45.888  33.528  1.00  0.00     0.278 HD
HETATM    6  C8  UNL     1      15.024  44.225  34.247  1.00  0.00     0.215 C 
HETATM    7  C9  UNL     1      16.344  43.786  34.773  1.00  0.00     0.004 C 
HETATM    8  C10 UNL     1      17.067  43.208  33.832  1.00  0.00    -0.009 C 
HETATM    9  C11 UNL     1      16.281  43.202  32.541  1.00  0.00     0.122 C 
HETATM   10  C12 UNL     1      16.895  44.079  31.595  1.00  0.00     0.068 C 
HETATM   11  N2  UNL     1      17.407  44.766  30.827  1.00  0.00    -0.197 NA
HETATM   12  C13 UNL     1      14.939  43.467  32.942  1.00  0.00     0.048 C 
ENDROOT
BRANCH   1  13
HETATM   13  C2  UNL     1      13.746  43.930  30.782  1.00  0.00    -0.016 C 
HETATM   14  C1  UNL     1      12.383  44.302  30.260  1.00  0.00     0.010 C 
HETATM   15  C3  UNL     1      13.814  42.393  30.709  1.00  0.00     0.010 C 
ENDBRANCH   1  13
BRANCH   2  16
HETATM   16  C6  UNL     1      14.434  46.856  31.913  1.00  0.00     0.145 C 
HETATM   17  C7  UNL     1      13.360  47.580  31.142  1.00  0.00     0.041 C 
BRANCH  16  18
HETATM   18  O1  UNL     1      14.765  47.833  32.941  1.00  0.00    -0.394 OA
ATOM     19  H1  UNL     1      14.460  48.652  32.567  1.00  0.00     0.210 HD
ENDBRANCH  16  18
ENDBRANCH   2  16
TORSDOF 3
ENDMDL
MODEL 4
REMARK VINA RESULT: -5.374518989      1.986      2.736
REMARK  3 active torsions:
REMARK  status: ('A' for Active; 'I' for Inactive)
REMARK    1  A    between atoms: C2_2  and  C4_4 
REMARK    2  A    between atoms: C5_5  and  C6_6 
REMARK    3  A    between atoms: C6_6  and  O1_8 
ROOT
HETATM    1  C4  UNL     1      14.603  45.295  31.951  1.00  0.00     0.030 C 
HETATM    2  C5  UNL     1      15.763  45.220  31.086  1.00  0.00     0.219 C 
HETATM    3  N1  UNL     1      15.453  44.038  30.205  1.00  0.00    -0.060 N 
ATOM      4  H11 UNL     1      16.287  43.565  29.859  1.00  0.00     0.278 HD
ATOM      5  H12 UNL     1      15.069  44.302  29.298  1.00  0.00     0.278 HD
HETATM    6  C8  UNL     1      14.599  43.192  30.949  1.00  0.00     0.215 C 
HETATM    7  C9  UNL     1      13.674  42.416  30.081  1.00  0.00     0.004 C 
HETATM    8  C10 UNL     1      12.521  43.041  29.930  1.00  0.00    -0.009 C 
HETATM    9  C11 UNL     1      12.558  44.338  30.705  1.00  0.00     0.122 C 
HETATM   10  C12 UNL     1      12.558  45.444  29.800  1.00  0.00     0.068 C 
HETATM   11  N2  UNL     1      12.531  46.332  29.069  1.00  0.00    -0.197 NA
HETATM   12  C13 UNL     1      13.662  44.188  31.595  1.00  0.00     0.048 C 
ENDROOT
BRANCH   1  13
HETATM   13  C2  UNL     1      14.008  46.496  32.519  1.00  0.00    -0.016 C 
HETATM   14  C1  UNL     1      15.005  47.534  32.963  1.00  0.00     0.010 C 
HETATM   15  C3  UNL     1      13.240  46.086  33.790  1.00  0.00     0.010 C 
ENDBRANCH   1  13
BRANCH   2  16
HETATM   16  C6  UNL     1      16.166  46.294  30.150  1.00  0.00     0.145 C 
HETATM   17  C7  UNL     1      17.644  46.508  29.937  1.00  0.00     0.041 C 
BRANCH  16  18
HETATM   18  O1  UNL     1      15.757  45.774  28.852  1.00  0.00    -0.394 OA
ATOM     19  H1  UNL     1      16.415  46.123  28.261  1.00  0.00     0.210 HD
ENDBRANCH  16  18
ENDBRANCH   2  16
TORSDOF 3
ENDMDL
MODEL 5
REMARK VINA RESULT: -5.307878821      1.818      2.324
REMARK  3 active torsions:
REMARK  status: ('A' for Active; 'I' for Inactive)
REMARK    1  A    between atoms: C2_2  and  C4_4 
REMARK    2  A    between atoms: C5_5  and  C6_6 
REMARK    3  A    between atoms: C6_6  and  O1_8 
ROOT
HETATM    1  C4  UNL     1      15.877  44.384  32.532  1.00  0.00     0.030 C 
HETATM    2  C5  UNL     1      16.655  44.509  31.317  1.00  0.00     0.219 C 
HETATM    3  N1  UNL     1      15.648  44.212  30.238  1.00  0.00    -0.060 N 
ATOM      4  H11 UNL     1      16.065  43.822  29.393  1.00  0.00     0.278 HD
ATOM      5  H12 UNL     1      15.256  45.051  29.810  1.00  0.00     0.278 HD
HETATM    6  C8  UNL     1      14.670  43.372  30.817  1.00  0.00     0.215 C 
HETATM    7  C9  UNL     1      13.331  43.549  30.195  1.00  0.00     0.004 C 
HETATM    8  C10 UNL     1      12.608  44.434  30.855  1.00  0.00    -0.009 C 
HETATM    9  C11 UNL     1      13.415  44.957  32.021  1.00  0.00     0.122 C 
HETATM   10  C12 UNL     1      13.752  46.328  31.802  1.00  0.00     0.068 C 
HETATM   11  N2  UNL     1      13.998  47.440  31.635  1.00  0.00    -0.197 NA
HETATM   12  C13 UNL     1      14.473  44.013  32.172  1.00  0.00     0.048 C 
ENDROOT
BRANCH   1  13
HETATM   13  C2  UNL     1      16.054  45.132  33.769  1.00  0.00    -0.016 C 
HETATM   14  C1  UNL     1      17.479  45.214  34.248  1.00  0.00     0.010 C 
HETATM   15  C3  UNL     1      15.284  44.394  34.880  1.00  0.00     0.010 C 
ENDBRANCH   1  13
BRANCH   2  16
HETATM   16  C6  UNL     1      17.316  45.762  30.884  1.00  0.00     0.145 C 
HETATM   17  C7  UNL     1      18.628  45.634  30.152  1.00  0.00     0.041 C 
BRANCH  16  18
HETATM   18  O1  UNL     1      16.439  46.252  29.828  1.00  0.00    -0.394 OA
ATOM     19  H1  UNL     1      16.259  47.146  30.094  1.00  0.00     0.210 HD
ENDBRANCH  16  18
ENDBRANCH   2  16
TORSDOF 3
ENDMDL
