MODEL 1
REMARK VINA RESULT: -6.567359990      0.000      0.000
REMARK  5 active torsions:
REMARK  status: ('A' for Active; 'I' for Inactive)
REMARK    1  A    between atoms: C3_8  and  N3_9 
REMARK    2  A    between atoms: N3_9  and  C4_11 
REMARK    3  A    between atoms: C4_11  and  N4_13 
REMARK    4  A    between atoms: N4_13  and  C5_15 
REMARK    5  A    between atoms: C5_15  and  C6_16 
ROOT
HETATM    1  N3  UNL     1      12.332  44.136  25.285  1.00  0.00    -0.316 N 
ATOM      2  H3  UNL     1      11.446  43.660  25.455  1.00  0.00     0.170 HD
ENDROOT
BRANCH   1   3
HETATM    3  C3  UNL     1      12.655  44.369  24.065  1.00  0.00     0.154 A 
HETATM    4  C2  UNL     1      12.279  45.520  23.367  1.00  0.00     0.076 A 
HETATM    5  C1  UNL     1      11.459  46.617  23.964  1.00  0.00     0.074 C 
HETATM    6  N1  UNL     1      12.787  45.427  22.127  1.00  0.00    -0.242 N 
HETATM    7  O1  UNL     1      13.441  44.301  22.037  1.00  0.00    -0.155 OA
ATOM      8  H1  UNL     1      12.681  46.118  21.385  1.00  0.00     0.196 HD
HETATM    9  N2  UNL     1      13.371  43.663  23.176  1.00  0.00    -0.224 N 
ATOM     10  H2  UNL     1      13.800  42.758  23.363  1.00  0.00     0.198 HD
ENDBRANCH   1   3
BRANCH   1  11
HETATM   11  C4  UNL     1      13.115  44.489  26.417  1.00  0.00     0.173 C 
HETATM   12  S1  UNL     1      14.259  45.638  26.154  1.00  0.00    -0.041 SA
BRANCH  11  13
HETATM   13  N4  UNL     1      12.913  43.886  27.687  1.00  0.00    -0.367 N 
ATOM     14  H4  UNL     1      12.769  42.877  27.731  1.00  0.00     0.161 HD
BRANCH  13  15
HETATM   15  C5  UNL     1      12.900  44.633  28.906  1.00  0.00     0.126 C 
BRANCH  15  16
HETATM   16  C6  UNL     1      12.738  43.819  30.153  1.00  0.00    -0.005 C 
HETATM   17  C7  UNL     1      13.521  42.529  29.954  1.00  0.00     0.011 C 
HETATM   18  C8  UNL     1      13.244  44.594  31.357  1.00  0.00     0.011 C 
ENDBRANCH  15  16
ENDBRANCH  13  15
ENDBRANCH  11  13
ENDBRANCH   1  11
TORSDOF 5
ENDMDL
MODEL 2
REMARK VINA RESULT: -6.526222816      1.652      2.010
REMARK  5 active torsions:
REMARK  status: ('A' for Active; 'I' for Inactive)
REMARK    1  A    between atoms: C3_8  and  N3_9 
REMARK    2  A    between atoms: N3_9  and  C4_11 
REMARK    3  A    between atoms: C4_11  and  N4_13 
REMARK    4  A    between atoms: N4_13  and  C5_15 
REMARK    5  A    between atoms: C5_15  and  C6_16 
ROOT
HETATM    1  N3  UNL     1      13.029  44.090  25.933  1.00  0.00    -0.316 N 
ATOM      2  H3  UNL     1      13.905  43.641  25.666  1.00  0.00     0.170 HD
ENDROOT
BRANCH   1   3
HETATM    3  C3  UNL     1      12.214  44.405  24.993  1.00  0.00     0.154 A 
HETATM    4  C2  UNL     1      12.554  45.215  23.906  1.00  0.00     0.076 A 
HETATM    5  C1  UNL     1      13.912  45.807  23.711  1.00  0.00     0.074 C 
HETATM    6  N1  UNL     1      11.465  45.331  23.130  1.00  0.00    -0.242 N 
HETATM    7  O1  UNL     1      10.498  44.646  23.677  1.00  0.00    -0.155 OA
ATOM      8  H1  UNL     1      11.404  45.863  22.262  1.00  0.00     0.196 HD
HETATM    9  N2  UNL     1      10.926  44.092  24.781  1.00  0.00    -0.224 N 
ATOM     10  H2  UNL     1      10.362  43.505  25.394  1.00  0.00     0.198 HD
ENDBRANCH   1   3
BRANCH   1  11
HETATM   11  C4  UNL     1      12.804  44.318  27.317  1.00  0.00     0.173 C 
HETATM   12  S1  UNL     1      12.260  45.817  27.707  1.00  0.00    -0.041 SA
BRANCH  11  13
HETATM   13  N4  UNL     1      13.034  43.309  28.291  1.00  0.00    -0.367 N 
ATOM     14  H4  UNL     1      13.463  42.432  27.994  1.00  0.00     0.161 HD
BRANCH  13  15
HETATM   15  C5  UNL     1      12.690  43.470  29.669  1.00  0.00     0.126 C 
BRANCH  15  16
HETATM   16  C6  UNL     1      13.804  43.930  30.557  1.00  0.00    -0.005 C 
HETATM   17  C7  UNL     1      13.252  45.044  31.434  1.00  0.00     0.011 C 
HETATM   18  C8  UNL     1      14.324  42.773  31.392  1.00  0.00     0.011 C 
ENDBRANCH  15  16
ENDBRANCH  13  15
ENDBRANCH  11  13
ENDBRANCH   1  11
TORSDOF 5
ENDMDL
MODEL 3
REMARK VINA RESULT: -6.485638784      1.792      2.291
REMARK  5 active torsions:
REMARK  status: ('A' for Active; 'I' for Inactive)
REMARK    1  A    between atoms: C3_8  and  N3_9 
REMARK    2  A    between atoms: N3_9  and  C4_11 
REMARK    3  A    between atoms: C4_11  and  N4_13 
REMARK    4  A    between atoms: N4_13  and  C5_15 
REMARK    5  A    between atoms: C5_15  and  C6_16 
ROOT
HETATM    1  N3  UNL     1      13.592  44.315  25.958  1.00  0.00    -0.316 N 
ATOM      2  H3  UNL     1      13.973  43.376  26.073  1.00  0.00     0.170 HD
ENDROOT
BRANCH   1   3
HETATM    3  C3  UNL     1      12.530  44.441  25.249  1.00  0.00     0.154 A 
HETATM    4  C2  UNL     1      12.480  44.208  23.872  1.00  0.00     0.076 A 
HETATM    5  C1  UNL     1      13.662  43.782  23.064  1.00  0.00     0.074 C 
HETATM    6  N1  UNL     1      11.221  44.435  23.467  1.00  0.00    -0.242 N 
HETATM    7  O1  UNL     1      10.514  44.786  24.506  1.00  0.00    -0.155 OA
ATOM      8  H1  UNL     1      10.875  44.348  22.511  1.00  0.00     0.196 HD
HETATM    9  N2  UNL     1      11.275  44.794  25.569  1.00  0.00    -0.224 N 
ATOM     10  H2  UNL     1      10.961  45.036  26.508  1.00  0.00     0.198 HD
ENDBRANCH   1   3
BRANCH   1  11
HETATM   11  C4  UNL     1      14.279  45.383  26.595  1.00  0.00     0.173 C 
HETATM   12  S1  UNL     1      15.253  46.277  25.620  1.00  0.00    -0.041 SA
BRANCH  11  13
HETATM   13  N4  UNL     1      14.124  45.655  27.980  1.00  0.00    -0.367 N 
ATOM     14  H4  UNL     1      14.773  46.304  28.426  1.00  0.00     0.161 HD
BRANCH  13  15
HETATM   15  C5  UNL     1      13.097  45.059  28.776  1.00  0.00     0.126 C 
BRANCH  15  16
HETATM   16  C6  UNL     1      13.563  44.017  29.745  1.00  0.00    -0.005 C 
HETATM   17  C7  UNL     1      13.031  44.405  31.117  1.00  0.00     0.011 C 
HETATM   18  C8  UNL     1      13.063  42.646  29.325  1.00  0.00     0.011 C 
ENDBRANCH  15  16
ENDBRANCH  13  15
ENDBRANCH  11  13
ENDBRANCH   1  11
TORSDOF 5
ENDMDL
MODEL 4
REMARK VINA RESULT: -6.360988280      1.659      1.807
REMARK  5 active torsions:
REMARK  status: ('A' for Active; 'I' for Inactive)
REMARK    1  A    between atoms: C3_8  and  N3_9 
REMARK    2  A    between atoms: N3_9  and  C4_11 
REMARK    3  A    between atoms: C4_11  and  N4_13 
REMARK    4  A    between atoms: N4_13  and  C5_15 
REMARK    5  A    between atoms: C5_15  and  C6_16 
ROOT
HETATM    1  N3  UNL     1      12.720  44.061  26.055  1.00  0.00    -0.316 N 
ATOM      2  H3  UNL     1      13.281  43.213  25.980  1.00  0.00     0.170 HD
ENDROOT
BRANCH   1   3
HETATM    3  C3  UNL     1      12.019  44.400  25.036  1.00  0.00     0.154 A 
HETATM    4  C2  UNL     1      12.497  45.197  23.991  1.00  0.00     0.076 A 
HETATM    5  C1  UNL     1      13.885  45.744  23.940  1.00  0.00     0.074 C 
HETATM    6  N1  UNL     1      11.499  45.346  23.106  1.00  0.00    -0.242 N 
HETATM    7  O1  UNL     1      10.458  44.694  23.547  1.00  0.00    -0.155 OA
ATOM      8  H1  UNL     1      11.546  45.878  22.236  1.00  0.00     0.196 HD
HETATM    9  N2  UNL     1      10.751  44.129  24.689  1.00  0.00    -0.224 N 
ATOM     10  H2  UNL     1      10.106  43.562  25.239  1.00  0.00     0.198 HD
ENDBRANCH   1   3
BRANCH   1  11
HETATM   11  C4  UNL     1      12.776  44.777  27.282  1.00  0.00     0.173 C 
HETATM   12  S1  UNL     1      11.688  45.997  27.436  1.00  0.00    -0.041 SA
BRANCH  11  13
HETATM   13  N4  UNL     1      13.709  44.448  28.300  1.00  0.00    -0.367 N 
ATOM     14  H4  UNL     1      14.459  43.791  28.083  1.00  0.00     0.161 HD
BRANCH  13  15
HETATM   15  C5  UNL     1      13.644  44.999  29.618  1.00  0.00     0.126 C 
BRANCH  15  16
HETATM   16  C6  UNL     1      13.115  44.076  30.672  1.00  0.00    -0.005 C 
HETATM   17  C7  UNL     1      13.658  42.687  30.368  1.00  0.00     0.011 C 
HETATM   18  C8  UNL     1      13.544  44.549  32.049  1.00  0.00     0.011 C 
ENDBRANCH  15  16
ENDBRANCH  13  15
ENDBRANCH  11  13
ENDBRANCH   1  11
TORSDOF 5
ENDMDL
MODEL 5
REMARK VINA RESULT: -6.255177557      2.488      3.779
REMARK  5 active torsions:
REMARK  status: ('A' for Active; 'I' for Inactive)
REMARK    1  A    between atoms: C3_8  and  N3_9 
REMARK    2  A    between atoms: N3_9  and  C4_11 
REMARK    3  A    between atoms: C4_11  and  N4_13 
REMARK    4  A    between atoms: N4_13  and  C5_15 
REMARK    5  A    between atoms: C5_15  and  C6_16 
ROOT
HETATM    1  N3  UNL     1      12.726  44.247  25.348  1.00  0.00    -0.316 N 
ATOM      2  H3  UNL     1      12.044  43.544  25.633  1.00  0.00     0.170 HD
ENDROOT
BRANCH   1   3
HETATM    3  C3  UNL     1      12.905  44.423  24.089  1.00  0.00     0.154 A 
HETATM    4  C2  UNL     1      12.430  45.532  23.383  1.00  0.00     0.076 A 
HETATM    5  C1  UNL     1      11.659  46.644  24.015  1.00  0.00     0.074 C 
HETATM    6  N1  UNL     1      12.798  45.384  22.101  1.00  0.00    -0.242 N 
HETATM    7  O1  UNL     1      13.461  44.265  21.992  1.00  0.00    -0.155 OA
ATOM      8  H1  UNL     1      12.595  46.035  21.342  1.00  0.00     0.196 HD
HETATM    9  N2  UNL     1      13.533  43.685  23.161  1.00  0.00    -0.224 N 
ATOM     10  H2  UNL     1      13.999  42.797  23.342  1.00  0.00     0.198 HD
ENDBRANCH   1   3
BRANCH   1  11
HETATM   11  C4  UNL     1      13.406  44.955  26.375  1.00  0.00     0.173 C 
HETATM   12  S1  UNL     1      12.471  45.443  27.634  1.00  0.00    -0.041 SA
BRANCH  11  13
HETATM   13  N4  UNL     1      14.801  45.215  26.311  1.00  0.00    -0.367 N 
ATOM     14  H4  UNL     1      15.449  44.459  26.532  1.00  0.00     0.161 HD
BRANCH  13  15
HETATM   15  C5  UNL     1      15.336  46.491  25.951  1.00  0.00     0.126 C 
BRANCH  15  16
HETATM   16  C6  UNL     1      16.646  46.454  25.228  1.00  0.00    -0.005 C 
HETATM   17  C7  UNL     1      16.364  45.992  23.806  1.00  0.00     0.011 C 
HETATM   18  C8  UNL     1      17.297  47.826  25.246  1.00  0.00     0.011 C 
ENDBRANCH  15  16
ENDBRANCH  13  15
ENDBRANCH  11  13
ENDBRANCH   1  11
TORSDOF 5
ENDMDL
