MODEL 1
REMARK VINA RESULT: -7.642227531      0.000      0.000
REMARK  7 active torsions:
REMARK  status: ('A' for Active; 'I' for Inactive)
REMARK    1  A    between atoms: C2_2  and  C4_4 
REMARK    2  A    between atoms: C4_4  and  C5_5 
REMARK    3  A    between atoms: C7_10  and  C8_11 
REMARK    4  A    between atoms: C8_11  and  C9_12 
REMARK    5  A    between atoms: C13_19  and  C14_20 
REMARK    6  A    between atoms: C14_20  and  C15_21 
REMARK    7  A    between atoms: C19_28  and  C20_29 
ROOT
HETATM    1  C5  UNL     1      22.771  13.463  19.860  1.00  0.00     0.177 C 
HETATM    2  N1  UNL     1      22.619  14.816  19.418  1.00  0.00    -0.346 N 
ATOM      3  H1  UNL     1      21.672  15.187  19.490  1.00  0.00     0.163 HD
HETATM    4  C6  UNL     1      23.566  15.712  18.903  1.00  0.00     0.241 C 
HETATM    5  O1  UNL     1      23.735  16.850  19.424  1.00  0.00    -0.271 OA
HETATM    6  C7  UNL     1      24.471  15.457  17.708  1.00  0.00     0.177 C 
HETATM    7  N2  UNL     1      24.758  16.761  17.108  1.00  0.00    -0.346 N 
ATOM      8  H2  UNL     1      25.664  17.187  17.302  1.00  0.00     0.163 HD
HETATM    9  C12 UNL     1      23.852  17.471  16.273  1.00  0.00     0.241 C 
HETATM   10  O2  UNL     1      23.638  18.716  16.537  1.00  0.00    -0.271 OA
HETATM   11  C13 UNL     1      23.124  16.926  15.131  1.00  0.00     0.177 C 
HETATM   12  N3  UNL     1      21.888  17.686  14.986  1.00  0.00    -0.347 N 
ATOM     13  H3  UNL     1      21.943  18.597  14.531  1.00  0.00     0.163 HD
HETATM   14  C18 UNL     1      20.624  17.255  15.429  1.00  0.00     0.222 C 
HETATM   15  O3  UNL     1      19.866  18.075  16.037  1.00  0.00    -0.273 OA
HETATM   16  C19 UNL     1      20.111  15.873  15.226  1.00  0.00     0.081 C 
HETATM   17  C23 UNL     1      19.880  15.166  16.568  1.00  0.00     0.024 C 
HETATM   18  C24 UNL     1      20.646  13.895  16.537  1.00  0.00     0.104 C 
HETATM   19  C25 UNL     1      20.356  12.940  17.631  1.00  0.00     0.224 C 
HETATM   20  O4  UNL     1      19.186  12.891  18.077  1.00  0.00    -0.273 OA
HETATM   21  N4  UNL     1      21.322  12.069  18.215  1.00  0.00    -0.296 N 
ATOM     22  H4  UNL     1      21.095  11.075  18.228  1.00  0.00     0.171 HD
HETATM   23  C26 UNL     1      22.567  12.446  18.778  1.00  0.00     0.247 C 
HETATM   24  O5  UNL     1      23.596  11.847  18.303  1.00  0.00    -0.271 OA
ENDROOT
BRANCH   1  25
HETATM   25  C4  UNL     1      21.969  13.092  21.090  1.00  0.00     0.038 C 
BRANCH  25  26
HETATM   26  C2  UNL     1      22.633  12.164  22.017  1.00  0.00    -0.020 C 
HETATM   27  C1  UNL     1      22.131  10.771  22.085  1.00  0.00     0.009 C 
HETATM   28  C3  UNL     1      24.151  12.220  21.838  1.00  0.00     0.009 C 
ENDBRANCH  25  26
ENDBRANCH   1  25
BRANCH   6  29
HETATM   29  C8  UNL     1      25.751  14.833  18.158  1.00  0.00     0.038 C 
BRANCH  29  30
HETATM   30  C9  UNL     1      27.023  15.430  17.682  1.00  0.00    -0.020 C 
HETATM   31  C10 UNL     1      27.683  14.436  16.714  1.00  0.00     0.009 C 
HETATM   32  C11 UNL     1      28.057  15.795  18.678  1.00  0.00     0.009 C 
ENDBRANCH  29  30
ENDBRANCH   6  29
BRANCH  11  33
HETATM   33  C14 UNL     1      23.917  16.885  13.878  1.00  0.00     0.038 C 
BRANCH  33  34
HETATM   34  C15 UNL     1      24.430  15.611  13.356  1.00  0.00    -0.020 C 
HETATM   35  C16 UNL     1      25.839  15.243  13.622  1.00  0.00     0.009 C 
HETATM   36  C17 UNL     1      23.565  14.500  13.999  1.00  0.00     0.009 C 
ENDBRANCH  33  34
ENDBRANCH  11  33
BRANCH  16  37
HETATM   37  C20 UNL     1      18.859  15.870  14.387  1.00  0.00    -0.010 C 
HETATM   38  C21 UNL     1      18.787  16.950  13.372  1.00  0.00     0.010 C 
HETATM   39  C22 UNL     1      17.605  15.845  15.210  1.00  0.00     0.010 C 
ENDBRANCH  16  37
TORSDOF 7
ENDMDL
MODEL 2
REMARK VINA RESULT: -6.855474876      4.313      9.416
REMARK  7 active torsions:
REMARK  status: ('A' for Active; 'I' for Inactive)
REMARK    1  A    between atoms: C2_2  and  C4_4 
REMARK    2  A    between atoms: C4_4  and  C5_5 
REMARK    3  A    between atoms: C7_10  and  C8_11 
REMARK    4  A    between atoms: C8_11  and  C9_12 
REMARK    5  A    between atoms: C13_19  and  C14_20 
REMARK    6  A    between atoms: C14_20  and  C15_21 
REMARK    7  A    between atoms: C19_28  and  C20_29 
ROOT
HETATM    1  C5  UNL     1      15.295  19.527  13.411  1.00  0.00     0.177 C 
HETATM    2  N1  UNL     1      15.618  18.681  14.521  1.00  0.00    -0.346 N 
ATOM      3  H1  UNL     1      15.434  19.087  15.438  1.00  0.00     0.163 HD
HETATM    4  C6  UNL     1      16.146  17.383  14.546  1.00  0.00     0.241 C 
HETATM    5  O1  UNL     1      15.557  16.453  15.166  1.00  0.00    -0.271 OA
HETATM    6  C7  UNL     1      17.432  16.935  13.871  1.00  0.00     0.177 C 
HETATM    7  N2  UNL     1      17.955  15.814  14.656  1.00  0.00    -0.346 N 
ATOM      8  H2  UNL     1      17.811  14.871  14.297  1.00  0.00     0.163 HD
HETATM    9  C12 UNL     1      18.650  15.961  15.889  1.00  0.00     0.241 C 
HETATM   10  O2  UNL     1      18.274  15.229  16.883  1.00  0.00    -0.271 OA
HETATM   11  C13 UNL     1      19.760  16.871  16.150  1.00  0.00     0.177 C 
HETATM   12  N3  UNL     1      19.736  17.209  17.569  1.00  0.00    -0.347 N 
ATOM     13  H3  UNL     1      20.124  16.529  18.223  1.00  0.00     0.163 HD
HETATM   14  C18 UNL     1      19.216  18.403  18.100  1.00  0.00     0.222 C 
HETATM   15  O3  UNL     1      18.482  18.353  19.138  1.00  0.00    -0.273 OA
HETATM   16  C19 UNL     1      19.476  19.745  17.514  1.00  0.00     0.081 C 
HETATM   17  C23 UNL     1      18.178  20.396  17.022  1.00  0.00     0.024 C 
HETATM   18  C24 UNL     1      18.373  20.753  15.595  1.00  0.00     0.104 C 
HETATM   19  C25 UNL     1      17.333  21.624  14.999  1.00  0.00     0.224 C 
HETATM   20  O4  UNL     1      16.790  22.482  15.734  1.00  0.00    -0.273 OA
HETATM   21  N4  UNL     1      16.906  21.552  13.641  1.00  0.00    -0.296 N 
ATOM     22  H4  UNL     1      16.948  22.415  13.100  1.00  0.00     0.171 HD
HETATM   23  C26 UNL     1      16.429  20.400  12.966  1.00  0.00     0.247 C 
HETATM   24  O5  UNL     1      17.038  20.101  11.879  1.00  0.00    -0.271 OA
ENDROOT
BRANCH   1  25
HETATM   25  C4  UNL     1      14.031  20.344  13.570  1.00  0.00     0.038 C 
BRANCH  25  26
HETATM   26  C2  UNL     1      12.839  19.585  13.978  1.00  0.00    -0.020 C 
HETATM   27  C1  UNL     1      11.611  20.345  14.310  1.00  0.00     0.009 C 
HETATM   28  C3  UNL     1      12.562  18.448  12.992  1.00  0.00     0.009 C 
ENDBRANCH  25  26
ENDBRANCH   1  25
BRANCH   6  29
HETATM   29  C8  UNL     1      17.147  16.467  12.482  1.00  0.00     0.038 C 
BRANCH  29  30
HETATM   30  C9  UNL     1      15.733  16.419  12.038  1.00  0.00    -0.020 C 
HETATM   31  C10 UNL     1      15.358  14.947  11.799  1.00  0.00     0.009 C 
HETATM   32  C11 UNL     1      15.344  17.156  10.814  1.00  0.00     0.009 C 
ENDBRANCH  29  30
ENDBRANCH   6  29
BRANCH  11  33
HETATM   33  C14 UNL     1      21.078  16.351  15.711  1.00  0.00     0.038 C 
BRANCH  33  34
HETATM   34  C15 UNL     1      21.167  15.181  14.827  1.00  0.00    -0.020 C 
HETATM   35  C16 UNL     1      21.956  15.284  13.579  1.00  0.00     0.009 C 
HETATM   36  C17 UNL     1      21.826  14.057  15.662  1.00  0.00     0.009 C 
ENDBRANCH  33  34
ENDBRANCH  11  33
BRANCH  16  37
HETATM   37  C20 UNL     1      20.199  20.640  18.488  1.00  0.00    -0.010 C 
HETATM   38  C21 UNL     1      19.364  21.709  19.088  1.00  0.00     0.010 C 
HETATM   39  C22 UNL     1      21.459  21.222  17.919  1.00  0.00     0.010 C 
ENDBRANCH  16  37
TORSDOF 7
ENDMDL
MODEL 3
REMARK VINA RESULT: -6.835346365      3.376      4.974
REMARK  7 active torsions:
REMARK  status: ('A' for Active; 'I' for Inactive)
REMARK    1  A    between atoms: C2_2  and  C4_4 
REMARK    2  A    between atoms: C4_4  and  C5_5 
REMARK    3  A    between atoms: C7_10  and  C8_11 
REMARK    4  A    between atoms: C8_11  and  C9_12 
REMARK    5  A    between atoms: C13_19  and  C14_20 
REMARK    6  A    between atoms: C14_20  and  C15_21 
REMARK    7  A    between atoms: C19_28  and  C20_29 
ROOT
HETATM    1  C5  UNL     1      20.460  15.246  16.436  1.00  0.00     0.177 C 
HETATM    2  N1  UNL     1      20.351  16.394  17.285  1.00  0.00    -0.346 N 
ATOM      3  H1  UNL     1      19.421  16.556  17.670  1.00  0.00     0.163 HD
HETATM    4  C6  UNL     1      21.320  17.330  17.671  1.00  0.00     0.241 C 
HETATM    5  O1  UNL     1      21.545  17.568  18.890  1.00  0.00    -0.271 OA
HETATM    6  C7  UNL     1      22.188  18.149  16.728  1.00  0.00     0.177 C 
HETATM    7  N2  UNL     1      22.513  19.395  17.426  1.00  0.00    -0.346 N 
ATOM      8  H2  UNL     1      23.438  19.481  17.844  1.00  0.00     0.163 HD
HETATM    9  C12 UNL     1      21.616  20.492  17.557  1.00  0.00     0.241 C 
HETATM   10  O2  UNL     1      21.456  21.003  18.731  1.00  0.00    -0.271 OA
HETATM   11  C13 UNL     1      20.843  21.106  16.482  1.00  0.00     0.177 C 
HETATM   12  N3  UNL     1      19.634  21.672  17.070  1.00  0.00    -0.347 N 
ATOM     13  H3  UNL     1      19.715  22.572  17.542  1.00  0.00     0.163 HD
HETATM   14  C18 UNL     1      18.365  21.067  17.033  1.00  0.00     0.222 C 
HETATM   15  O3  UNL     1      17.652  21.053  18.087  1.00  0.00    -0.273 OA
HETATM   16  C19 UNL     1      17.794  20.430  15.816  1.00  0.00     0.081 C 
HETATM   17  C23 UNL     1      17.565  18.928  16.032  1.00  0.00     0.024 C 
HETATM   18  C24 UNL     1      18.281  18.210  14.948  1.00  0.00     0.104 C 
HETATM   19  C25 UNL     1      17.978  16.766  14.822  1.00  0.00     0.224 C 
HETATM   20  O4  UNL     1      16.817  16.380  15.093  1.00  0.00    -0.273 OA
HETATM   21  N4  UNL     1      18.923  15.779  14.411  1.00  0.00    -0.296 N 
ATOM     22  H4  UNL     1      18.658  15.191  13.621  1.00  0.00     0.171 HD
HETATM   23  C26 UNL     1      20.193  15.535  14.989  1.00  0.00     0.247 C 
HETATM   24  O5  UNL     1      21.188  15.568  14.181  1.00  0.00    -0.271 OA
ENDROOT
BRANCH   1  25
HETATM   25  C4  UNL     1      19.672  14.035  16.886  1.00  0.00     0.038 C 
BRANCH  25  26
HETATM   26  C2  UNL     1      20.469  12.950  17.477  1.00  0.00    -0.020 C 
HETATM   27  C1  UNL     1      19.748  11.788  18.048  1.00  0.00     0.009 C 
HETATM   28  C3  UNL     1      21.585  12.521  16.522  1.00  0.00     0.009 C 
ENDBRANCH  25  26
ENDBRANCH   1  25
BRANCH   6  29
HETATM   29  C8  UNL     1      23.453  17.414  16.427  1.00  0.00     0.038 C 
BRANCH  29  30
HETATM   30  C9  UNL     1      23.849  16.306  17.330  1.00  0.00    -0.020 C 
HETATM   31  C10 UNL     1      25.009  16.800  18.209  1.00  0.00     0.009 C 
HETATM   32  C11 UNL     1      24.288  15.023  16.735  1.00  0.00     0.009 C 
ENDBRANCH  29  30
ENDBRANCH   6  29
BRANCH  11  33
HETATM   33  C14 UNL     1      21.606  22.097  15.685  1.00  0.00     0.038 C 
BRANCH  33  34
HETATM   34  C15 UNL     1      21.949  21.828  14.281  1.00  0.00    -0.020 C 
HETATM   35  C16 UNL     1      22.992  20.823  13.979  1.00  0.00     0.009 C 
HETATM   36  C17 UNL     1      20.651  21.319  13.609  1.00  0.00     0.009 C 
ENDBRANCH  33  34
ENDBRANCH  11  33
BRANCH  16  37
HETATM   37  C20 UNL     1      16.525  21.116  15.380  1.00  0.00    -0.010 C 
HETATM   38  C21 UNL     1      15.761  20.402  14.328  1.00  0.00     0.010 C 
HETATM   39  C22 UNL     1      16.743  22.547  14.984  1.00  0.00     0.010 C 
ENDBRANCH  16  37
TORSDOF 7
ENDMDL
MODEL 4
REMARK VINA RESULT: -6.812612649      2.907      7.354
REMARK  7 active torsions:
REMARK  status: ('A' for Active; 'I' for Inactive)
REMARK    1  A    between atoms: C2_2  and  C4_4 
REMARK    2  A    between atoms: C4_4  and  C5_5 
REMARK    3  A    between atoms: C7_10  and  C8_11 
REMARK    4  A    between atoms: C8_11  and  C9_12 
REMARK    5  A    between atoms: C13_19  and  C14_20 
REMARK    6  A    between atoms: C14_20  and  C15_21 
REMARK    7  A    between atoms: C19_28  and  C20_29 
ROOT
HETATM    1  C5  UNL     1      18.569  19.572  16.804  1.00  0.00     0.177 C 
HETATM    2  N1  UNL     1      18.956  18.238  17.151  1.00  0.00    -0.346 N 
ATOM      3  H1  UNL     1      19.354  18.135  18.084  1.00  0.00     0.163 HD
HETATM    4  C6  UNL     1      18.873  17.050  16.412  1.00  0.00     0.241 C 
HETATM    5  O1  UNL     1      18.280  16.036  16.873  1.00  0.00    -0.271 OA
HETATM    6  C7  UNL     1      19.458  16.825  15.026  1.00  0.00     0.177 C 
HETATM    7  N2  UNL     1      19.760  15.396  14.920  1.00  0.00    -0.346 N 
ATOM      8  H2  UNL     1      19.113  14.808  14.397  1.00  0.00     0.163 HD
HETATM    9  C12 UNL     1      20.901  14.778  15.504  1.00  0.00     0.241 C 
HETATM   10  O2  UNL     1      20.717  13.706  16.197  1.00  0.00    -0.271 OA
HETATM   11  C13 UNL     1      22.281  15.243  15.400  1.00  0.00     0.177 C 
HETATM   12  N3  UNL     1      22.991  14.800  16.594  1.00  0.00    -0.347 N 
ATOM     13  H3  UNL     1      23.308  13.831  16.623  1.00  0.00     0.163 HD
HETATM   14  C18 UNL     1      23.272  15.611  17.708  1.00  0.00     0.222 C 
HETATM   15  O3  UNL     1      23.089  15.145  18.878  1.00  0.00    -0.273 OA
HETATM   16  C19 UNL     1      23.778  17.006  17.602  1.00  0.00     0.081 C 
HETATM   17  C23 UNL     1      22.778  18.006  18.195  1.00  0.00     0.024 C 
HETATM   18  C24 UNL     1      22.483  19.013  17.146  1.00  0.00     0.104 C 
HETATM   19  C25 UNL     1      21.737  20.212  17.595  1.00  0.00     0.224 C 
HETATM   20  O4  UNL     1      21.948  20.639  18.754  1.00  0.00    -0.273 OA
HETATM   21  N4  UNL     1      20.792  20.917  16.793  1.00  0.00    -0.296 N 
ATOM     22  H4  UNL     1      20.947  21.917  16.673  1.00  0.00     0.171 HD
HETATM   23  C26 UNL     1      19.657  20.366  16.147  1.00  0.00     0.247 C 
HETATM   24  O5  UNL     1      19.577  20.582  14.885  1.00  0.00    -0.271 OA
ENDROOT
BRANCH   1  25
HETATM   25  C4  UNL     1      17.936  20.371  17.923  1.00  0.00     0.038 C 
BRANCH  25  26
HETATM   26  C2  UNL     1      18.461  20.094  19.268  1.00  0.00    -0.020 C 
HETATM   27  C1  UNL     1      19.029  21.225  20.039  1.00  0.00     0.009 C 
HETATM   28  C3  UNL     1      17.448  19.292  20.087  1.00  0.00     0.009 C 
ENDBRANCH  25  26
ENDBRANCH   1  25
BRANCH   6  29
HETATM   29  C8  UNL     1      18.455  17.190  13.980  1.00  0.00     0.038 C 
BRANCH  29  30
HETATM   30  C9  UNL     1      17.157  16.472  13.977  1.00  0.00    -0.020 C 
HETATM   31  C10 UNL     1      16.921  15.922  12.561  1.00  0.00     0.009 C 
HETATM   32  C11 UNL     1      15.930  17.213  14.350  1.00  0.00     0.009 C 
ENDBRANCH  29  30
ENDBRANCH   6  29
BRANCH  11  33
HETATM   33  C14 UNL     1      22.960  14.831  14.148  1.00  0.00     0.038 C 
BRANCH  33  34
HETATM   34  C15 UNL     1      23.967  15.698  13.520  1.00  0.00    -0.020 C 
HETATM   35  C16 UNL     1      24.165  17.066  14.049  1.00  0.00     0.009 C 
HETATM   36  C17 UNL     1      25.324  14.973  13.681  1.00  0.00     0.009 C 
ENDBRANCH  33  34
ENDBRANCH  11  33
BRANCH  16  37
HETATM   37  C20 UNL     1      25.135  17.148  18.243  1.00  0.00    -0.010 C 
HETATM   38  C21 UNL     1      25.845  18.411  17.923  1.00  0.00     0.010 C 
HETATM   39  C22 UNL     1      26.027  15.970  17.986  1.00  0.00     0.010 C 
ENDBRANCH  16  37
TORSDOF 7
ENDMDL
MODEL 5
REMARK VINA RESULT: -6.702295981      3.031      4.581
REMARK  7 active torsions:
REMARK  status: ('A' for Active; 'I' for Inactive)
REMARK    1  A    between atoms: C2_2  and  C4_4 
REMARK    2  A    between atoms: C4_4  and  C5_5 
REMARK    3  A    between atoms: C7_10  and  C8_11 
REMARK    4  A    between atoms: C8_11  and  C9_12 
REMARK    5  A    between atoms: C13_19  and  C14_20 
REMARK    6  A    between atoms: C14_20  and  C15_21 
REMARK    7  A    between atoms: C19_28  and  C20_29 
ROOT
HETATM    1  C5  UNL     1      21.796  15.014  15.919  1.00  0.00     0.177 C 
HETATM    2  N1  UNL     1      21.386  16.090  16.770  1.00  0.00    -0.346 N 
ATOM      3  H1  UNL     1      20.387  16.121  16.972  1.00  0.00     0.163 HD
HETATM    4  C6  UNL     1      22.140  17.109  17.369  1.00  0.00     0.241 C 
HETATM    5  O1  UNL     1      22.100  17.301  18.616  1.00  0.00    -0.271 OA
HETATM    6  C7  UNL     1      23.061  18.076  16.641  1.00  0.00     0.177 C 
HETATM    7  N2  UNL     1      23.089  19.309  17.431  1.00  0.00    -0.346 N 
ATOM      8  H2  UNL     1      23.901  19.478  18.024  1.00  0.00     0.163 HD
HETATM    9  C12 UNL     1      22.054  20.285  17.423  1.00  0.00     0.241 C 
HETATM   10  O2  UNL     1      21.613  20.705  18.561  1.00  0.00    -0.271 OA
HETATM   11  C13 UNL     1      21.426  20.866  16.241  1.00  0.00     0.177 C 
HETATM   12  N3  UNL     1      20.067  21.252  16.602  1.00  0.00    -0.347 N 
ATOM     13  H3  UNL     1      19.944  22.127  17.111  1.00  0.00     0.163 HD
HETATM   14  C18 UNL     1      18.914  20.507  16.298  1.00  0.00     0.222 C 
HETATM   15  O3  UNL     1      18.023  20.349  17.193  1.00  0.00    -0.273 OA
HETATM   16  C19 UNL     1      18.667  19.879  14.973  1.00  0.00     0.081 C 
HETATM   17  C23 UNL     1      18.591  18.351  15.088  1.00  0.00     0.024 C 
HETATM   18  C24 UNL     1      19.583  17.785  14.140  1.00  0.00     0.104 C 
HETATM   19  C25 UNL     1      19.493  16.325  13.907  1.00  0.00     0.224 C 
HETATM   20  O4  UNL     1      18.359  15.792  13.935  1.00  0.00    -0.273 OA
HETATM   21  N4  UNL     1      20.614  15.481  13.654  1.00  0.00    -0.296 N 
ATOM     22  H4  UNL     1      20.578  14.913  12.808  1.00  0.00     0.171 HD
HETATM   23  C26 UNL     1      21.773  15.353  14.460  1.00  0.00     0.247 C 
HETATM   24  O5  UNL     1      22.890  15.548  13.861  1.00  0.00    -0.271 OA
ENDROOT
BRANCH   1  25
HETATM   25  C4  UNL     1      21.095  13.695  16.166  1.00  0.00     0.038 C 
BRANCH  25  26
HETATM   26  C2  UNL     1      21.898  12.677  16.859  1.00  0.00    -0.020 C 
HETATM   27  C1  UNL     1      22.631  13.083  18.082  1.00  0.00     0.009 C 
HETATM   28  C3  UNL     1      21.080  11.402  17.076  1.00  0.00     0.009 C 
ENDBRANCH  25  26
ENDBRANCH   1  25
BRANCH   6  29
HETATM   29  C8  UNL     1      24.442  17.512  16.566  1.00  0.00     0.038 C 
BRANCH  29  30
HETATM   30  C9  UNL     1      24.813  16.445  17.527  1.00  0.00    -0.020 C 
HETATM   31  C10 UNL     1      25.791  17.045  18.550  1.00  0.00     0.009 C 
HETATM   32  C11 UNL     1      25.449  15.211  17.012  1.00  0.00     0.009 C 
ENDBRANCH  29  30
ENDBRANCH   6  29
BRANCH  11  33
HETATM   33  C14 UNL     1      22.196  21.983  15.641  1.00  0.00     0.038 C 
BRANCH  33  34
HETATM   34  C15 UNL     1      22.680  21.903  14.256  1.00  0.00    -0.020 C 
HETATM   35  C16 UNL     1      23.466  20.721  13.840  1.00  0.00     0.009 C 
HETATM   36  C17 UNL     1      21.422  21.925  13.355  1.00  0.00     0.009 C 
ENDBRANCH  33  34
ENDBRANCH  11  33
BRANCH  16  37
HETATM   37  C20 UNL     1      17.427  20.437  14.322  1.00  0.00    -0.010 C 
HETATM   38  C21 UNL     1      16.306  19.474  14.189  1.00  0.00     0.010 C 
HETATM   39  C22 UNL     1      17.706  21.096  13.004  1.00  0.00     0.010 C 
ENDBRANCH  16  37
TORSDOF 7
ENDMDL
