MODEL 1
REMARK VINA RESULT: -9.568677301      0.000      0.000
REMARK  8 active torsions:
REMARK  status: ('A' for Active; 'I' for Inactive)
REMARK       I    between atoms: C1_2  and  N1_3 
REMARK       I    between atoms: C1_2  and  N4_27 
REMARK    1  A    between atoms: N1_3  and  C2_5 
REMARK    2  A    between atoms: C2_5  and  C3_6 
REMARK    3  A    between atoms: C2_5  and  C13_20 
REMARK    4  A    between atoms: C3_6  and  S1_7 
REMARK    5  A    between atoms: S1_7  and  N2_10 
REMARK       I    between atoms: C13_20  and  N3_22 
REMARK    6  A    between atoms: N3_22  and  C14_24 
REMARK    7  A    between atoms: C14_24  and  O5_25 
REMARK    8  A    between atoms: N4_27  and  C15_29 
ROOT
HETATM    1  C2  UNL     1      19.096  10.202  18.673  1.00  0.00     0.194 C 
ENDROOT
BRANCH   1   2
HETATM    2  N1  UNL     1      17.788  10.785  18.460  1.00  0.00    -0.329 N 
HETATM    3  C1  UNL     1      16.595  10.029  18.430  1.00  0.00     0.317 C 
HETATM    4  O1  UNL     1      16.662   8.793  18.593  1.00  0.00    -0.247 OA
HETATM    5  N4  UNL     1      15.342  10.640  18.220  1.00  0.00    -0.334 N 
ATOM      6  H4  UNL     1      15.330  11.651  18.087  1.00  0.00     0.165 HD
ATOM      7  H1  UNL     1      17.723  11.795  18.324  1.00  0.00     0.165 HD
BRANCH   5   8
HETATM    8  C15 UNL     1      14.085   9.955  18.178  1.00  0.00     0.035 C 
HETATM    9  C16 UNL     1      12.963  10.956  17.868  1.00  0.00     0.035 C 
HETATM   10  C17 UNL     1      11.614  10.313  17.936  1.00  0.00    -0.012 C 
HETATM   11  C18 UNL     1      11.545   9.229  16.894  1.00  0.00     0.009 C 
HETATM   12  C22 UNL     1      11.383   9.710  19.306  1.00  0.00     0.009 C 
HETATM   13  C19 UNL     1      12.673   8.251  17.142  1.00  0.00    -0.012 C 
HETATM   14  C20 UNL     1      12.489   7.627  18.490  1.00  0.00     0.009 C 
HETATM   15  C24 UNL     1      14.027   8.911  17.099  1.00  0.00     0.035 C 
HETATM   16  C21 UNL     1      12.445   8.686  19.555  1.00  0.00    -0.012 C 
HETATM   17  C23 UNL     1      13.795   9.397  19.557  1.00  0.00     0.035 C 
ENDBRANCH   5   8
ENDBRANCH   1   2
BRANCH   1  18
HETATM   18  C3  UNL     1      20.181  10.792  17.825  1.00  0.00     0.198 C 
BRANCH  18  19
HETATM   19  S1  UNL     1      20.379  12.525  17.962  1.00  0.00     0.231 S 
HETATM   20  O2  UNL     1      18.993  13.158  17.932  1.00  0.00    -0.206 OA
HETATM   21  O3  UNL     1      20.981  12.939  19.273  1.00  0.00    -0.206 OA
BRANCH  19  22
HETATM   22  N2  UNL     1      21.286  13.222  16.709  1.00  0.00    -0.310 N 
HETATM   23  C4  UNL     1      20.585  14.133  15.871  1.00  0.00     0.135 C 
HETATM   24  C5  UNL     1      21.448  14.914  14.940  1.00  0.00     0.025 C 
HETATM   25  C6  UNL     1      22.752  14.210  14.635  1.00  0.00    -0.007 C 
HETATM   26  C7  UNL     1      23.594  15.046  13.731  1.00  0.00     0.005 C 
HETATM   27  C11 UNL     1      23.497  13.966  15.928  1.00  0.00     0.008 C 
HETATM   28  C8  UNL     1      25.088  14.792  13.924  1.00  0.00     0.000 C 
HETATM   29  C9  UNL     1      25.523  15.228  15.306  1.00  0.00     0.000 C 
HETATM   30  C10 UNL     1      24.335  15.193  16.254  1.00  0.00     0.007 C 
HETATM   31  C12 UNL     1      22.611  13.609  17.068  1.00  0.00     0.140 C 
ENDBRANCH  19  22
ENDBRANCH  18  19
ENDBRANCH   1  18
BRANCH   1  32
HETATM   32  C13 UNL     1      19.443  10.100  20.092  1.00  0.00     0.243 C 
HETATM   33  O4  UNL     1      18.586   9.715  20.915  1.00  0.00    -0.271 OA
HETATM   34  N3  UNL     1      20.734  10.430  20.554  1.00  0.00    -0.338 N 
ATOM     35  H3  UNL     1      21.439  10.744  19.886  1.00  0.00     0.164 HD
BRANCH  34  36
HETATM   36  C14 UNL     1      21.078  10.330  21.952  1.00  0.00     0.290 C 
BRANCH  36  37
HETATM   37  O5  UNL     1      20.198  11.118  22.697  1.00  0.00    -0.382 OA
ATOM     38  H5  UNL     1      19.349  11.125  22.272  1.00  0.00     0.211 HD
ENDBRANCH  36  37
ENDBRANCH  34  36
ENDBRANCH   1  32
TORSDOF 8
ENDMDL
MODEL 2
REMARK VINA RESULT: -9.553740670      2.347      6.978
REMARK  8 active torsions:
REMARK  status: ('A' for Active; 'I' for Inactive)
REMARK       I    between atoms: C1_2  and  N1_3 
REMARK       I    between atoms: C1_2  and  N4_27 
REMARK    1  A    between atoms: N1_3  and  C2_5 
REMARK    2  A    between atoms: C2_5  and  C3_6 
REMARK    3  A    between atoms: C2_5  and  C13_20 
REMARK    4  A    between atoms: C3_6  and  S1_7 
REMARK    5  A    between atoms: S1_7  and  N2_10 
REMARK       I    between atoms: C13_20  and  N3_22 
REMARK    6  A    between atoms: N3_22  and  C14_24 
REMARK    7  A    between atoms: C14_24  and  O5_25 
REMARK    8  A    between atoms: N4_27  and  C15_29 
ROOT
HETATM    1  C2  UNL     1      19.179  10.404  18.738  1.00  0.00     0.194 C 
ENDROOT
BRANCH   1   2
HETATM    2  N1  UNL     1      19.300  11.847  18.695  1.00  0.00    -0.329 N 
HETATM    3  C1  UNL     1      19.885  12.547  17.616  1.00  0.00     0.317 C 
HETATM    4  O1  UNL     1      20.325  11.896  16.646  1.00  0.00    -0.247 OA
HETATM    5  N4  UNL     1      19.981  13.952  17.617  1.00  0.00    -0.334 N 
ATOM      6  H4  UNL     1      19.612  14.447  18.430  1.00  0.00     0.165 HD
ATOM      7  H1  UNL     1      18.944  12.387  19.484  1.00  0.00     0.165 HD
BRANCH   5   8
HETATM    8  C15 UNL     1      20.553  14.743  16.568  1.00  0.00     0.035 C 
HETATM    9  C16 UNL     1      21.010  16.095  17.133  1.00  0.00     0.035 C 
HETATM   10  C17 UNL     1      21.502  17.008  16.055  1.00  0.00    -0.012 C 
HETATM   11  C18 UNL     1      22.697  16.372  15.396  1.00  0.00     0.009 C 
HETATM   12  C22 UNL     1      20.420  17.238  15.021  1.00  0.00     0.009 C 
HETATM   13  C19 UNL     1      22.290  15.012  14.872  1.00  0.00    -0.012 C 
HETATM   14  C20 UNL     1      21.216  15.187  13.843  1.00  0.00     0.009 C 
HETATM   15  C24 UNL     1      21.771  14.108  15.959  1.00  0.00     0.035 C 
HETATM   16  C21 UNL     1      20.041  15.915  14.432  1.00  0.00    -0.012 C 
HETATM   17  C23 UNL     1      19.472  15.046  15.550  1.00  0.00     0.035 C 
ENDBRANCH   5   8
ENDBRANCH   1   2
BRANCH   1  18
HETATM   18  C3  UNL     1      20.301   9.712  19.448  1.00  0.00     0.198 C 
BRANCH  18  19
HETATM   19  S1  UNL     1      21.084  10.647  20.703  1.00  0.00     0.231 S 
HETATM   20  O2  UNL     1      20.003  11.157  21.648  1.00  0.00    -0.206 OA
HETATM   21  O3  UNL     1      22.005   9.822  21.552  1.00  0.00    -0.206 OA
BRANCH  19  22
HETATM   22  N2  UNL     1      21.941  11.995  20.131  1.00  0.00    -0.310 N 
HETATM   23  C4  UNL     1      21.966  13.124  20.997  1.00  0.00     0.135 C 
HETATM   24  C5  UNL     1      22.919  14.197  20.593  1.00  0.00     0.025 C 
HETATM   25  C6  UNL     1      23.219  14.175  19.110  1.00  0.00    -0.007 C 
HETATM   26  C7  UNL     1      24.203  15.242  18.764  1.00  0.00     0.005 C 
HETATM   27  C11 UNL     1      23.794  12.826  18.742  1.00  0.00     0.008 C 
HETATM   28  C8  UNL     1      25.051  14.881  17.546  1.00  0.00     0.000 C 
HETATM   29  C9  UNL     1      25.927  13.685  17.850  1.00  0.00     0.000 C 
HETATM   30  C10 UNL     1      25.299  12.855  18.958  1.00  0.00     0.007 C 
HETATM   31  C12 UNL     1      23.172  11.692  19.477  1.00  0.00     0.140 C 
ENDBRANCH  19  22
ENDBRANCH  18  19
ENDBRANCH   1  18
BRANCH   1  32
HETATM   32  C13 UNL     1      17.849   9.963  19.162  1.00  0.00     0.243 C 
HETATM   33  O4  UNL     1      17.688   9.477  20.301  1.00  0.00    -0.271 OA
HETATM   34  N3  UNL     1      16.734  10.078  18.304  1.00  0.00    -0.338 N 
ATOM     35  H3  UNL     1      16.858  10.476  17.373  1.00  0.00     0.164 HD
BRANCH  34  36
HETATM   36  C14 UNL     1      15.422   9.644  18.719  1.00  0.00     0.290 C 
BRANCH  36  37
HETATM   37  O5  UNL     1      15.068  10.312  19.893  1.00  0.00    -0.382 OA
ATOM     38  H5  UNL     1      14.259   9.945  20.229  1.00  0.00     0.211 HD
ENDBRANCH  36  37
ENDBRANCH  34  36
ENDBRANCH   1  32
TORSDOF 8
ENDMDL
MODEL 3
REMARK VINA RESULT: -9.514805694      3.892     11.562
REMARK  8 active torsions:
REMARK  status: ('A' for Active; 'I' for Inactive)
REMARK       I    between atoms: C1_2  and  N1_3 
REMARK       I    between atoms: C1_2  and  N4_27 
REMARK    1  A    between atoms: N1_3  and  C2_5 
REMARK    2  A    between atoms: C2_5  and  C3_6 
REMARK    3  A    between atoms: C2_5  and  C13_20 
REMARK    4  A    between atoms: C3_6  and  S1_7 
REMARK    5  A    between atoms: S1_7  and  N2_10 
REMARK       I    between atoms: C13_20  and  N3_22 
REMARK    6  A    between atoms: N3_22  and  C14_24 
REMARK    7  A    between atoms: C14_24  and  O5_25 
REMARK    8  A    between atoms: N4_27  and  C15_29 
ROOT
HETATM    1  C2  UNL     1      14.366   8.806  19.323  1.00  0.00     0.194 C 
ENDROOT
BRANCH   1   2
HETATM    2  N1  UNL     1      15.567   9.150  20.056  1.00  0.00    -0.329 N 
HETATM    3  C1  UNL     1      16.771   9.551  19.433  1.00  0.00     0.317 C 
HETATM    4  O1  UNL     1      16.811   9.611  18.187  1.00  0.00    -0.247 OA
HETATM    5  N4  UNL     1      17.915   9.877  20.188  1.00  0.00    -0.334 N 
ATOM      6  H4  UNL     1      17.842   9.811  21.203  1.00  0.00     0.165 HD
ATOM      7  H1  UNL     1      15.544   9.102  21.075  1.00  0.00     0.165 HD
BRANCH   5   8
HETATM    8  C15 UNL     1      19.173  10.295  19.643  1.00  0.00     0.035 C 
HETATM    9  C16 UNL     1      20.014  10.961  20.741  1.00  0.00     0.035 C 
HETATM   10  C17 UNL     1      21.287  11.527  20.197  1.00  0.00    -0.012 C 
HETATM   11  C18 UNL     1      22.108  10.401  19.626  1.00  0.00     0.009 C 
HETATM   12  C22 UNL     1      20.994  12.538  19.108  1.00  0.00     0.009 C 
HETATM   13  C19 UNL     1      21.285   9.691  18.574  1.00  0.00    -0.012 C 
HETATM   14  C20 UNL     1      20.967  10.654  17.471  1.00  0.00     0.009 C 
HETATM   15  C24 UNL     1      19.992   9.147  19.124  1.00  0.00     0.035 C 
HETATM   16  C21 UNL     1      20.238  11.849  18.016  1.00  0.00    -0.012 C 
HETATM   17  C23 UNL     1      18.914  11.359  18.596  1.00  0.00     0.035 C 
ENDBRANCH   5   8
ENDBRANCH   1   2
BRANCH   1  18
HETATM   18  C3  UNL     1      13.184   8.494  20.187  1.00  0.00     0.198 C 
BRANCH  18  19
HETATM   19  S1  UNL     1      11.679   8.236  19.332  1.00  0.00     0.231 S 
HETATM   20  O2  UNL     1      11.190   9.588  18.828  1.00  0.00    -0.206 OA
HETATM   21  O3  UNL     1      11.846   7.386  18.106  1.00  0.00    -0.206 OA
BRANCH  19  22
HETATM   22  N2  UNL     1      10.444   7.569  20.286  1.00  0.00    -0.310 N 
HETATM   23  C4  UNL     1      10.817   6.455  21.088  1.00  0.00     0.135 C 
HETATM   24  C5  UNL     1       9.796   6.042  22.093  1.00  0.00     0.025 C 
HETATM   25  C6  UNL     1       8.396   6.456  21.697  1.00  0.00    -0.007 C 
HETATM   26  C7  UNL     1       7.418   6.054  22.750  1.00  0.00     0.005 C 
HETATM   27  C11 UNL     1       8.354   7.958  21.524  1.00  0.00     0.008 C 
HETATM   28  C8  UNL     1       6.200   6.974  22.798  1.00  0.00     0.000 C 
HETATM   29  C9  UNL     1       6.610   8.369  23.218  1.00  0.00     0.000 C 
HETATM   30  C10 UNL     1       8.071   8.602  22.872  1.00  0.00     0.007 C 
HETATM   31  C12 UNL     1       9.588   8.522  20.913  1.00  0.00     0.140 C 
ENDBRANCH  19  22
ENDBRANCH  18  19
ENDBRANCH   1  18
BRANCH   1  32
HETATM   32  C13 UNL     1      14.078   9.749  18.241  1.00  0.00     0.243 C 
HETATM   33  O4  UNL     1      14.130   9.367  17.052  1.00  0.00    -0.271 OA
HETATM   34  N3  UNL     1      13.738  11.091  18.513  1.00  0.00    -0.338 N 
ATOM     35  H3  UNL     1      13.692  11.409  19.482  1.00  0.00     0.164 HD
BRANCH  34  36
HETATM   36  C14 UNL     1      13.453  12.022  17.449  1.00  0.00     0.290 C 
BRANCH  36  37
HETATM   37  O5  UNL     1      14.651  12.566  16.982  1.00  0.00    -0.382 OA
ATOM     38  H5  UNL     1      15.348  11.931  17.098  1.00  0.00     0.211 HD
ENDBRANCH  36  37
ENDBRANCH  34  36
ENDBRANCH   1  32
TORSDOF 8
ENDMDL
MODEL 4
REMARK VINA RESULT: -9.488564516      4.326     11.658
REMARK  8 active torsions:
REMARK  status: ('A' for Active; 'I' for Inactive)
REMARK       I    between atoms: C1_2  and  N1_3 
REMARK       I    between atoms: C1_2  and  N4_27 
REMARK    1  A    between atoms: N1_3  and  C2_5 
REMARK    2  A    between atoms: C2_5  and  C3_6 
REMARK    3  A    between atoms: C2_5  and  C13_20 
REMARK    4  A    between atoms: C3_6  and  S1_7 
REMARK    5  A    between atoms: S1_7  and  N2_10 
REMARK       I    between atoms: C13_20  and  N3_22 
REMARK    6  A    between atoms: N3_22  and  C14_24 
REMARK    7  A    between atoms: C14_24  and  O5_25 
REMARK    8  A    between atoms: N4_27  and  C15_29 
ROOT
HETATM    1  C2  UNL     1      14.037   9.330  18.895  1.00  0.00     0.194 C 
ENDROOT
BRANCH   1   2
HETATM    2  N1  UNL     1      15.157  10.034  19.484  1.00  0.00    -0.329 N 
HETATM    3  C1  UNL     1      16.490   9.570  19.414  1.00  0.00     0.317 C 
HETATM    4  O1  UNL     1      16.724   8.499  18.819  1.00  0.00    -0.247 OA
HETATM    5  N4  UNL     1      17.549  10.290  20.002  1.00  0.00    -0.334 N 
ATOM      6  H4  UNL     1      17.316  11.160  20.483  1.00  0.00     0.165 HD
ATOM      7  H1  UNL     1      14.975  10.910  19.974  1.00  0.00     0.165 HD
BRANCH   5   8
HETATM    8  C15 UNL     1      18.927   9.900  19.978  1.00  0.00     0.035 C 
HETATM    9  C16 UNL     1      19.596  10.290  21.304  1.00  0.00     0.035 C 
HETATM   10  C17 UNL     1      21.067  10.016  21.284  1.00  0.00    -0.012 C 
HETATM   11  C18 UNL     1      21.278   8.537  21.095  1.00  0.00     0.009 C 
HETATM   12  C22 UNL     1      21.729  10.768  20.148  1.00  0.00     0.009 C 
HETATM   13  C19 UNL     1      20.585   8.112  19.818  1.00  0.00    -0.012 C 
HETATM   14  C20 UNL     1      21.206   8.832  18.662  1.00  0.00     0.009 C 
HETATM   15  C24 UNL     1      19.109   8.415  19.836  1.00  0.00     0.035 C 
HETATM   16  C21 UNL     1      21.113  10.319  18.861  1.00  0.00    -0.012 C 
HETATM   17  C23 UNL     1      19.632  10.689  18.894  1.00  0.00     0.035 C 
ENDBRANCH   5   8
ENDBRANCH   1   2
BRANCH   1  18
HETATM   18  C3  UNL     1      12.744   9.501  19.631  1.00  0.00     0.198 C 
BRANCH  18  19
HETATM   19  S1  UNL     1      11.767   8.057  19.776  1.00  0.00     0.231 S 
HETATM   20  O2  UNL     1      11.365   7.622  18.371  1.00  0.00    -0.206 OA
HETATM   21  O3  UNL     1      12.525   6.899  20.354  1.00  0.00    -0.206 OA
BRANCH  19  22
HETATM   22  N2  UNL     1      10.342   8.269  20.672  1.00  0.00    -0.310 N 
HETATM   23  C4  UNL     1       9.416   9.212  20.145  1.00  0.00     0.135 C 
HETATM   24  C5  UNL     1       8.078   9.204  20.804  1.00  0.00     0.025 C 
HETATM   25  C6  UNL     1       8.133   8.668  22.217  1.00  0.00    -0.007 C 
HETATM   26  C7  UNL     1       6.767   8.646  22.817  1.00  0.00     0.005 C 
HETATM   27  C11 UNL     1       8.690   7.262  22.192  1.00  0.00     0.008 C 
HETATM   28  C8  UNL     1       6.610   7.552  23.872  1.00  0.00     0.000 C 
HETATM   29  C9  UNL     1       6.731   6.185  23.234  1.00  0.00     0.000 C 
HETATM   30  C10 UNL     1       7.550   6.284  21.957  1.00  0.00     0.007 C 
HETATM   31  C12 UNL     1       9.773   7.069  21.191  1.00  0.00     0.140 C 
ENDBRANCH  19  22
ENDBRANCH  18  19
ENDBRANCH   1  18
BRANCH   1  32
HETATM   32  C13 UNL     1      13.930   9.549  17.451  1.00  0.00     0.243 C 
HETATM   33  O4  UNL     1      13.413  10.601  17.018  1.00  0.00    -0.271 OA
HETATM   34  N3  UNL     1      14.403   8.590  16.530  1.00  0.00    -0.338 N 
ATOM     35  H3  UNL     1      14.828   7.730  16.877  1.00  0.00     0.164 HD
BRANCH  34  36
HETATM   36  C14 UNL     1      14.299   8.804  15.107  1.00  0.00     0.290 C 
BRANCH  36  37
HETATM   37  O5  UNL     1      15.109   9.882  14.745  1.00  0.00    -0.382 OA
ATOM     38  H5  UNL     1      15.840   9.940  15.348  1.00  0.00     0.211 HD
ENDBRANCH  36  37
ENDBRANCH  34  36
ENDBRANCH   1  32
TORSDOF 8
ENDMDL
MODEL 5
REMARK VINA RESULT: -9.440731335      2.074      3.615
REMARK  8 active torsions:
REMARK  status: ('A' for Active; 'I' for Inactive)
REMARK       I    between atoms: C1_2  and  N1_3 
REMARK       I    between atoms: C1_2  and  N4_27 
REMARK    1  A    between atoms: N1_3  and  C2_5 
REMARK    2  A    between atoms: C2_5  and  C3_6 
REMARK    3  A    between atoms: C2_5  and  C13_20 
REMARK    4  A    between atoms: C3_6  and  S1_7 
REMARK    5  A    between atoms: S1_7  and  N2_10 
REMARK       I    between atoms: C13_20  and  N3_22 
REMARK    6  A    between atoms: N3_22  and  C14_24 
REMARK    7  A    between atoms: C14_24  and  O5_25 
REMARK    8  A    between atoms: N4_27  and  C15_29 
ROOT
HETATM    1  C2  UNL     1      19.096   9.931  19.651  1.00  0.00     0.194 C 
ENDROOT
BRANCH   1   2
HETATM    2  N1  UNL     1      18.050   9.033  19.205  1.00  0.00    -0.329 N 
HETATM    3  C1  UNL     1      16.711   9.438  19.004  1.00  0.00     0.317 C 
HETATM    4  O1  UNL     1      16.405  10.628  19.220  1.00  0.00    -0.247 OA
HETATM    5  N4  UNL     1      15.727   8.529  18.568  1.00  0.00    -0.334 N 
ATOM      6  H4  UNL     1      16.018   7.564  18.407  1.00  0.00     0.165 HD
ATOM      7  H1  UNL     1      18.292   8.058  19.028  1.00  0.00     0.165 HD
BRANCH   5   8
HETATM    8  C15 UNL     1      14.351   8.850  18.335  1.00  0.00     0.035 C 
HETATM    9  C16 UNL     1      13.457   7.932  19.179  1.00  0.00     0.035 C 
HETATM   10  C17 UNL     1      12.007   8.142  18.879  1.00  0.00    -0.012 C 
HETATM   11  C18 UNL     1      11.644   9.561  19.227  1.00  0.00     0.009 C 
HETATM   12  C22 UNL     1      11.729   7.897  17.410  1.00  0.00     0.009 C 
HETATM   13  C19 UNL     1      12.546  10.492  18.446  1.00  0.00    -0.012 C 
HETATM   14  C20 UNL     1      12.309  10.287  16.982  1.00  0.00     0.009 C 
HETATM   15  C24 UNL     1      14.006  10.257  18.734  1.00  0.00     0.035 C 
HETATM   16  C21 UNL     1      12.556   8.853  16.609  1.00  0.00    -0.012 C 
HETATM   17  C23 UNL     1      14.026   8.550  16.885  1.00  0.00     0.035 C 
ENDBRANCH   5   8
ENDBRANCH   1   2
BRANCH   1  18
HETATM   18  C3  UNL     1      20.237   9.254  20.346  1.00  0.00     0.198 C 
BRANCH  18  19
HETATM   19  S1  UNL     1      21.219  10.291  21.357  1.00  0.00     0.231 S 
HETATM   20  O2  UNL     1      20.339  10.810  22.488  1.00  0.00    -0.206 OA
HETATM   21  O3  UNL     1      22.341   9.554  22.027  1.00  0.00    -0.206 OA
BRANCH  19  22
HETATM   22  N2  UNL     1      21.864  11.638  20.551  1.00  0.00    -0.310 N 
HETATM   23  C4  UNL     1      21.765  12.877  21.243  1.00  0.00     0.135 C 
HETATM   24  C5  UNL     1      22.548  13.992  20.638  1.00  0.00     0.025 C 
HETATM   25  C6  UNL     1      22.796  13.788  19.160  1.00  0.00    -0.007 C 
HETATM   26  C7  UNL     1      23.612  14.909  18.610  1.00  0.00     0.005 C 
HETATM   27  C11 UNL     1      23.536  12.485  18.957  1.00  0.00     0.008 C 
HETATM   28  C8  UNL     1      24.457  14.483  17.411  1.00  0.00     0.000 C 
HETATM   29  C9  UNL     1      25.498  13.470  17.835  1.00  0.00     0.000 C 
HETATM   30  C10 UNL     1      25.029  12.741  19.084  1.00  0.00     0.007 C 
HETATM   31  C12 UNL     1      23.101  11.403  19.880  1.00  0.00     0.140 C 
ENDBRANCH  19  22
ENDBRANCH  18  19
ENDBRANCH   1  18
BRANCH   1  32
HETATM   32  C13 UNL     1      19.511  10.872  18.609  1.00  0.00     0.243 C 
HETATM   33  O4  UNL     1      20.384  10.536  17.779  1.00  0.00    -0.271 OA
HETATM   34  N3  UNL     1      18.943  12.160  18.519  1.00  0.00    -0.338 N 
ATOM     35  H3  UNL     1      18.229  12.440  19.192  1.00  0.00     0.164 HD
BRANCH  34  36
HETATM   36  C14 UNL     1      19.351  13.089  17.493  1.00  0.00     0.290 C 
BRANCH  36  37
HETATM   37  O5  UNL     1      18.375  14.078  17.355  1.00  0.00    -0.382 OA
ATOM     38  H5  UNL     1      18.524  14.553  16.546  1.00  0.00     0.211 HD
ENDBRANCH  36  37
ENDBRANCH  34  36
ENDBRANCH   1  32
TORSDOF 8
ENDMDL
