MODEL 1
REMARK VINA RESULT: -8.616514558      0.000      0.000
REMARK  9 active torsions:
REMARK  status: ('A' for Active; 'I' for Inactive)
REMARK    1  A    between atoms: C2_2  and  C3_3 
REMARK       I    between atoms: N1_6  and  C6_7 
REMARK    2  A    between atoms: C8_10  and  N2_11 
REMARK    3  A    between atoms: C8_10  and  C26_37 
REMARK       I    between atoms: N2_11  and  C9_13 
REMARK    4  A    between atoms: C9_13  and  C10_15 
REMARK       I    between atoms: N3_19  and  C14_20 
REMARK    5  A    between atoms: C14_20  and  C15_22 
REMARK    6  A    between atoms: C15_22  and  O4_23 
REMARK    7  A    between atoms: C15_22  and  C16_25 
REMARK    8  A    between atoms: C16_25  and  C18_27 
REMARK    9  A    between atoms: C23_32  and  O5_34 
ROOT
HETATM    1  C10 UNL     1      21.653  14.264  16.232  1.00  0.00     0.179 C 
HETATM    2  C11 UNL     1      22.663  13.972  15.175  1.00  0.00     0.037 C 
HETATM    3  C12 UNL     1      23.944  14.403  15.797  1.00  0.00     0.022 C 
HETATM    4  C13 UNL     1      23.677  14.545  17.303  1.00  0.00     0.127 C 
HETATM    5  N3  UNL     1      22.339  14.012  17.476  1.00  0.00    -0.337 N 
HETATM    6  C14 UNL     1      21.783  13.314  18.626  1.00  0.00     0.249 C 
HETATM    7  O3  UNL     1      20.614  12.895  18.422  1.00  0.00    -0.270 OA
ENDROOT
BRANCH   1   8
HETATM    8  C9  UNL     1      21.045  15.610  16.097  1.00  0.00     0.243 C 
HETATM    9  N2  UNL     1      20.427  16.351  17.103  1.00  0.00    -0.323 N 
ATOM     10  H2  UNL     1      20.391  15.899  18.016  1.00  0.00     0.165 HD
HETATM   11  O2  UNL     1      21.134  16.076  14.896  1.00  0.00    -0.271 OA
BRANCH   9  12
HETATM   12  C8  UNL     1      19.834  17.661  17.044  1.00  0.00     0.208 C 
HETATM   13  C3  UNL     1      20.784  18.600  16.241  1.00  0.00     0.069 C 
HETATM   14  C4  UNL     1      19.909  19.778  15.955  1.00  0.00     0.033 C 
HETATM   15  C5  UNL     1      18.542  19.227  15.844  1.00  0.00     0.130 C 
HETATM   16  N1  UNL     1      18.687  17.770  16.179  1.00  0.00    -0.316 N 
HETATM   17  C6  UNL     1      17.763  16.886  15.602  1.00  0.00     0.218 C 
HETATM   18  C7  UNL     1      16.630  17.374  14.721  1.00  0.00     0.117 C 
HETATM   19  O1  UNL     1      17.792  15.665  15.758  1.00  0.00    -0.274 OA
BRANCH  13  20
HETATM   20  C2  UNL     1      21.900  19.035  17.089  1.00  0.00    -0.027 C 
HETATM   21  C1  UNL     1      23.132  18.685  16.785  1.00  0.00     0.007 C 
ENDBRANCH  13  20
BRANCH  12  22
HETATM   22  C26 UNL     1      19.585  18.240  18.359  1.00  0.00     0.225 C 
HETATM   23  O6  UNL     1      18.419  18.592  18.776  1.00  0.00    -0.645 OA
HETATM   24  O7  UNL     1      20.576  18.471  19.299  1.00  0.00    -0.645 OA
ENDBRANCH  12  22
ENDBRANCH   9  12
ENDBRANCH   1   8
BRANCH   6  25
HETATM   25  C15 UNL     1      22.594  13.184  19.810  1.00  0.00     0.214 C 
BRANCH  25  26
HETATM   26  O4  UNL     1      22.023  13.960  20.846  1.00  0.00    -0.386 OA
ATOM     27  H4  UNL     1      21.502  13.394  21.403  1.00  0.00     0.210 HD
ENDBRANCH  25  26
BRANCH  25  28
HETATM   28  C16 UNL     1      23.029  11.896  20.329  1.00  0.00     0.028 C 
HETATM   29  C17 UNL     1      24.417  11.845  20.922  1.00  0.00     0.014 C 
BRANCH  28  30
HETATM   30  C18 UNL     1      22.059  10.989  21.022  1.00  0.00    -0.035 C 
HETATM   31  C19 UNL     1      22.930  10.069  21.910  1.00  0.00     0.016 C 
HETATM   32  C20 UNL     1      20.990  11.635  21.822  1.00  0.00     0.010 C 
HETATM   33  C21 UNL     1      20.254  10.562  22.608  1.00  0.00     0.004 C 
HETATM   34  C22 UNL     1      19.700   9.489  21.743  1.00  0.00     0.037 C 
HETATM   35  C23 UNL     1      20.027   9.666  20.282  1.00  0.00     0.055 C 
HETATM   36  C24 UNL     1      19.781   8.303  19.621  1.00  0.00     0.045 C 
HETATM   37  C25 UNL     1      21.434  10.051  20.017  1.00  0.00     0.046 C 
BRANCH  35  38
HETATM   38  O5  UNL     1      19.098  10.536  19.713  1.00  0.00    -0.390 OA
ATOM     39  H5  UNL     1      18.307  10.052  19.511  1.00  0.00     0.210 HD
ENDBRANCH  35  38
ENDBRANCH  28  30
ENDBRANCH  25  28
ENDBRANCH   6  25
TORSDOF 9
ENDMDL
MODEL 2
REMARK VINA RESULT: -8.414218956      1.178      1.241
REMARK  9 active torsions:
REMARK  status: ('A' for Active; 'I' for Inactive)
REMARK    1  A    between atoms: C2_2  and  C3_3 
REMARK       I    between atoms: N1_6  and  C6_7 
REMARK    2  A    between atoms: C8_10  and  N2_11 
REMARK    3  A    between atoms: C8_10  and  C26_37 
REMARK       I    between atoms: N2_11  and  C9_13 
REMARK    4  A    between atoms: C9_13  and  C10_15 
REMARK       I    between atoms: N3_19  and  C14_20 
REMARK    5  A    between atoms: C14_20  and  C15_22 
REMARK    6  A    between atoms: C15_22  and  O4_23 
REMARK    7  A    between atoms: C15_22  and  C16_25 
REMARK    8  A    between atoms: C16_25  and  C18_27 
REMARK    9  A    between atoms: C23_32  and  O5_34 
ROOT
HETATM    1  C10 UNL     1      21.240  14.159  16.196  1.00  0.00     0.179 C 
HETATM    2  C11 UNL     1      22.220  14.060  15.077  1.00  0.00     0.037 C 
HETATM    3  C12 UNL     1      23.455  14.659  15.650  1.00  0.00     0.022 C 
HETATM    4  C13 UNL     1      23.256  14.709  17.173  1.00  0.00     0.127 C 
HETATM    5  N3  UNL     1      22.026  13.973  17.392  1.00  0.00    -0.337 N 
HETATM    6  C14 UNL     1      21.647  13.161  18.540  1.00  0.00     0.249 C 
HETATM    7  O3  UNL     1      20.544  12.576  18.379  1.00  0.00    -0.270 OA
ENDROOT
BRANCH   1   8
HETATM    8  C9  UNL     1      20.429  15.400  16.148  1.00  0.00     0.243 C 
HETATM    9  N2  UNL     1      20.691  16.540  15.390  1.00  0.00    -0.323 N 
ATOM     10  H2  UNL     1      21.539  16.500  14.825  1.00  0.00     0.165 HD
HETATM   11  O2  UNL     1      19.391  15.343  16.914  1.00  0.00    -0.271 OA
BRANCH   9  12
HETATM   12  C8  UNL     1      19.942  17.764  15.286  1.00  0.00     0.208 C 
HETATM   13  C3  UNL     1      20.825  18.825  14.560  1.00  0.00     0.069 C 
HETATM   14  C4  UNL     1      19.834  19.885  14.207  1.00  0.00     0.033 C 
HETATM   15  C5  UNL     1      18.560  19.167  13.988  1.00  0.00     0.130 C 
HETATM   16  N1  UNL     1      18.862  17.736  14.332  1.00  0.00    -0.316 N 
HETATM   17  C6  UNL     1      18.106  16.749  13.683  1.00  0.00     0.218 C 
HETATM   18  C7  UNL     1      16.993  17.099  12.715  1.00  0.00     0.117 C 
HETATM   19  O1  UNL     1      18.277  15.539  13.840  1.00  0.00    -0.274 OA
BRANCH  13  20
HETATM   20  C2  UNL     1      21.807  19.389  15.495  1.00  0.00    -0.027 C 
HETATM   21  C1  UNL     1      23.095  19.260  15.251  1.00  0.00     0.007 C 
ENDBRANCH  13  20
BRANCH  12  22
HETATM   22  C26 UNL     1      19.519  18.294  16.577  1.00  0.00     0.225 C 
HETATM   23  O6  UNL     1      18.301  18.602  16.859  1.00  0.00    -0.645 OA
HETATM   24  O7  UNL     1      20.382  18.519  17.637  1.00  0.00    -0.645 OA
ENDBRANCH  12  22
ENDBRANCH   9  12
ENDBRANCH   1   8
BRANCH   6  25
HETATM   25  C15 UNL     1      22.534  13.118  19.674  1.00  0.00     0.214 C 
BRANCH  25  26
HETATM   26  O4  UNL     1      22.032  13.973  20.683  1.00  0.00    -0.386 OA
ATOM     27  H4  UNL     1      22.570  13.880  21.461  1.00  0.00     0.210 HD
ENDBRANCH  25  26
BRANCH  25  28
HETATM   28  C16 UNL     1      23.004  11.870  20.260  1.00  0.00     0.028 C 
HETATM   29  C17 UNL     1      24.388  11.890  20.861  1.00  0.00     0.014 C 
BRANCH  28  30
HETATM   30  C18 UNL     1      22.056  10.971  20.992  1.00  0.00    -0.035 C 
HETATM   31  C19 UNL     1      22.950  10.102  21.908  1.00  0.00     0.016 C 
HETATM   32  C20 UNL     1      20.979  11.626  21.774  1.00  0.00     0.010 C 
HETATM   33  C21 UNL     1      20.269  10.568  22.605  1.00  0.00     0.004 C 
HETATM   34  C22 UNL     1      19.731   9.454  21.784  1.00  0.00     0.037 C 
HETATM   35  C23 UNL     1      20.046   9.583  20.315  1.00  0.00     0.055 C 
HETATM   36  C24 UNL     1      19.823   8.191  19.707  1.00  0.00     0.045 C 
HETATM   37  C25 UNL     1      21.444   9.985  20.026  1.00  0.00     0.046 C 
BRANCH  35  38
HETATM   38  O5  UNL     1      19.097  10.413  19.721  1.00  0.00    -0.390 OA
ATOM     39  H5  UNL     1      19.002  10.167  18.808  1.00  0.00     0.210 HD
ENDBRANCH  35  38
ENDBRANCH  28  30
ENDBRANCH  25  28
ENDBRANCH   6  25
TORSDOF 9
ENDMDL
MODEL 3
REMARK VINA RESULT: -8.301387578      1.240      2.624
REMARK  9 active torsions:
REMARK  status: ('A' for Active; 'I' for Inactive)
REMARK    1  A    between atoms: C2_2  and  C3_3 
REMARK       I    between atoms: N1_6  and  C6_7 
REMARK    2  A    between atoms: C8_10  and  N2_11 
REMARK    3  A    between atoms: C8_10  and  C26_37 
REMARK       I    between atoms: N2_11  and  C9_13 
REMARK    4  A    between atoms: C9_13  and  C10_15 
REMARK       I    between atoms: N3_19  and  C14_20 
REMARK    5  A    between atoms: C14_20  and  C15_22 
REMARK    6  A    between atoms: C15_22  and  O4_23 
REMARK    7  A    between atoms: C15_22  and  C16_25 
REMARK    8  A    between atoms: C16_25  and  C18_27 
REMARK    9  A    between atoms: C23_32  and  O5_34 
ROOT
HETATM    1  C10 UNL     1      21.196  14.304  16.257  1.00  0.00     0.179 C 
HETATM    2  C11 UNL     1      22.185  14.312  15.141  1.00  0.00     0.037 C 
HETATM    3  C12 UNL     1      23.391  14.929  15.757  1.00  0.00     0.022 C 
HETATM    4  C13 UNL     1      23.182  14.881  17.279  1.00  0.00     0.127 C 
HETATM    5  N3  UNL     1      21.983  14.082  17.445  1.00  0.00    -0.337 N 
HETATM    6  C14 UNL     1      21.633  13.189  18.541  1.00  0.00     0.249 C 
HETATM    7  O3  UNL     1      20.558  12.568  18.339  1.00  0.00    -0.270 OA
ENDROOT
BRANCH   1   8
HETATM    8  C9  UNL     1      20.333  15.511  16.276  1.00  0.00     0.243 C 
HETATM    9  N2  UNL     1      20.647  16.770  15.769  1.00  0.00    -0.323 N 
ATOM     10  H2  UNL     1      21.577  16.853  15.356  1.00  0.00     0.165 HD
HETATM   11  O2  UNL     1      19.190  15.293  16.836  1.00  0.00    -0.271 OA
BRANCH   9  12
HETATM   12  C8  UNL     1      19.856  17.972  15.740  1.00  0.00     0.208 C 
HETATM   13  C3  UNL     1      18.390  17.591  15.368  1.00  0.00     0.069 C 
HETATM   14  C4  UNL     1      17.635  18.831  15.721  1.00  0.00     0.033 C 
HETATM   15  C5  UNL     1      18.371  19.424  16.858  1.00  0.00     0.130 C 
HETATM   16  N1  UNL     1      19.578  18.546  17.032  1.00  0.00    -0.316 N 
HETATM   17  C6  UNL     1      20.123  18.457  18.322  1.00  0.00     0.218 C 
HETATM   18  C7  UNL     1      19.561  19.248  19.486  1.00  0.00     0.117 C 
HETATM   19  O1  UNL     1      21.084  17.744  18.613  1.00  0.00    -0.274 OA
BRANCH  13  20
HETATM   20  C2  UNL     1      18.279  17.365  13.922  1.00  0.00    -0.027 C 
HETATM   21  C1  UNL     1      17.915  16.185  13.468  1.00  0.00     0.007 C 
ENDBRANCH  13  20
BRANCH  12  22
HETATM   22  C26 UNL     1      20.350  18.965  14.793  1.00  0.00     0.225 C 
HETATM   23  O6  UNL     1      21.549  19.432  14.807  1.00  0.00    -0.645 OA
HETATM   24  O7  UNL     1      19.581  19.510  13.779  1.00  0.00    -0.645 OA
ENDBRANCH  12  22
ENDBRANCH   9  12
ENDBRANCH   1   8
BRANCH   6  25
HETATM   25  C15 UNL     1      22.516  13.117  19.677  1.00  0.00     0.214 C 
BRANCH  25  26
HETATM   26  O4  UNL     1      22.009  13.943  20.707  1.00  0.00    -0.386 OA
ATOM     27  H4  UNL     1      21.669  14.742  20.322  1.00  0.00     0.210 HD
ENDBRANCH  25  26
BRANCH  25  28
HETATM   28  C16 UNL     1      22.986  11.855  20.231  1.00  0.00     0.028 C 
HETATM   29  C17 UNL     1      24.389  11.846  20.788  1.00  0.00     0.014 C 
BRANCH  28  30
HETATM   30  C18 UNL     1      22.049  10.959  20.982  1.00  0.00    -0.035 C 
HETATM   31  C19 UNL     1      22.956  10.094  21.888  1.00  0.00     0.016 C 
HETATM   32  C20 UNL     1      20.983  11.618  21.776  1.00  0.00     0.010 C 
HETATM   33  C21 UNL     1      20.285  10.564  22.622  1.00  0.00     0.004 C 
HETATM   34  C22 UNL     1      19.735   9.446  21.814  1.00  0.00     0.037 C 
HETATM   35  C23 UNL     1      20.029   9.567  20.340  1.00  0.00     0.055 C 
HETATM   36  C24 UNL     1      19.798   8.172  19.742  1.00  0.00     0.045 C 
HETATM   37  C25 UNL     1      21.423   9.968  20.029  1.00  0.00     0.046 C 
BRANCH  35  38
HETATM   38  O5  UNL     1      19.072  10.394  19.755  1.00  0.00    -0.390 OA
ATOM     39  H5  UNL     1      19.089  10.267  18.814  1.00  0.00     0.210 HD
ENDBRANCH  35  38
ENDBRANCH  28  30
ENDBRANCH  25  28
ENDBRANCH   6  25
TORSDOF 9
ENDMDL
MODEL 4
REMARK VINA RESULT: -8.262808762      1.335      2.395
REMARK  9 active torsions:
REMARK  status: ('A' for Active; 'I' for Inactive)
REMARK    1  A    between atoms: C2_2  and  C3_3 
REMARK       I    between atoms: N1_6  and  C6_7 
REMARK    2  A    between atoms: C8_10  and  N2_11 
REMARK    3  A    between atoms: C8_10  and  C26_37 
REMARK       I    between atoms: N2_11  and  C9_13 
REMARK    4  A    between atoms: C9_13  and  C10_15 
REMARK       I    between atoms: N3_19  and  C14_20 
REMARK    5  A    between atoms: C14_20  and  C15_22 
REMARK    6  A    between atoms: C15_22  and  O4_23 
REMARK    7  A    between atoms: C15_22  and  C16_25 
REMARK    8  A    between atoms: C16_25  and  C18_27 
REMARK    9  A    between atoms: C23_32  and  O5_34 
ROOT
HETATM    1  C10 UNL     1      21.794  14.469  16.299  1.00  0.00     0.179 C 
HETATM    2  C11 UNL     1      22.768  14.159  15.214  1.00  0.00     0.037 C 
HETATM    3  C12 UNL     1      24.081  14.490  15.828  1.00  0.00     0.022 C 
HETATM    4  C13 UNL     1      23.848  14.590  17.343  1.00  0.00     0.127 C 
HETATM    5  N3  UNL     1      22.484  14.130  17.521  1.00  0.00    -0.337 N 
HETATM    6  C14 UNL     1      21.905  13.422  18.654  1.00  0.00     0.249 C 
HETATM    7  O3  UNL     1      20.711  13.080  18.456  1.00  0.00    -0.270 OA
ENDROOT
BRANCH   1   8
HETATM    8  C9  UNL     1      21.263  15.852  16.226  1.00  0.00     0.243 C 
HETATM    9  N2  UNL     1      21.559  16.906  17.088  1.00  0.00    -0.323 N 
ATOM     10  H2  UNL     1      22.200  16.679  17.848  1.00  0.00     0.165 HD
HETATM   11  O2  UNL     1      20.450  16.019  15.236  1.00  0.00    -0.271 OA
BRANCH   9  12
HETATM   12  C8  UNL     1      21.095  18.268  17.065  1.00  0.00     0.208 C 
HETATM   13  C3  UNL     1      21.463  18.940  18.423  1.00  0.00     0.069 C 
HETATM   14  C4  UNL     1      21.260  20.391  18.132  1.00  0.00     0.033 C 
HETATM   15  C5  UNL     1      21.578  20.547  16.697  1.00  0.00     0.130 C 
HETATM   16  N1  UNL     1      21.846  19.151  16.210  1.00  0.00    -0.316 N 
HETATM   17  C6  UNL     1      22.725  19.011  15.125  1.00  0.00     0.218 C 
HETATM   18  C7  UNL     1      23.341  20.210  14.432  1.00  0.00     0.117 C 
HETATM   19  O1  UNL     1      23.064  17.925  14.654  1.00  0.00    -0.274 OA
BRANCH  13  20
HETATM   20  C2  UNL     1      20.512  18.529  19.464  1.00  0.00    -0.027 C 
HETATM   21  C1  UNL     1      20.258  19.332  20.476  1.00  0.00     0.007 C 
ENDBRANCH  13  20
BRANCH  12  22
HETATM   22  C26 UNL     1      19.658  18.384  16.845  1.00  0.00     0.225 C 
HETATM   23  O6  UNL     1      18.772  17.864  17.621  1.00  0.00    -0.645 OA
HETATM   24  O7  UNL     1      19.094  19.067  15.781  1.00  0.00    -0.645 OA
ENDBRANCH  12  22
ENDBRANCH   9  12
ENDBRANCH   1   8
BRANCH   6  25
HETATM   25  C15 UNL     1      22.726  13.200  19.817  1.00  0.00     0.214 C 
BRANCH  25  26
HETATM   26  O4  UNL     1      22.209  13.955  20.896  1.00  0.00    -0.386 OA
ATOM     27  H4  UNL     1      22.587  14.827  20.871  1.00  0.00     0.210 HD
ENDBRANCH  25  26
BRANCH  25  28
HETATM   28  C16 UNL     1      23.106  11.870  20.272  1.00  0.00     0.028 C 
HETATM   29  C17 UNL     1      24.510  11.718  20.806  1.00  0.00     0.014 C 
BRANCH  28  30
HETATM   30  C18 UNL     1      22.112  10.993  20.969  1.00  0.00    -0.035 C 
HETATM   31  C19 UNL     1      22.957  10.057  21.865  1.00  0.00     0.016 C 
HETATM   32  C20 UNL     1      21.058  11.672  21.762  1.00  0.00     0.010 C 
HETATM   33  C21 UNL     1      20.294  10.623  22.554  1.00  0.00     0.004 C 
HETATM   34  C22 UNL     1      19.713   9.560  21.696  1.00  0.00     0.037 C 
HETATM   35  C23 UNL     1      20.048   9.718  20.234  1.00  0.00     0.055 C 
HETATM   36  C24 UNL     1      19.768   8.356  19.582  1.00  0.00     0.045 C 
HETATM   37  C25 UNL     1      21.465  10.065  19.968  1.00  0.00     0.046 C 
BRANCH  35  38
HETATM   38  O5  UNL     1      19.143  10.607  19.658  1.00  0.00    -0.390 OA
ATOM     39  H5  UNL     1      19.499  10.918  18.834  1.00  0.00     0.210 HD
ENDBRANCH  35  38
ENDBRANCH  28  30
ENDBRANCH  25  28
ENDBRANCH   6  25
TORSDOF 9
ENDMDL
MODEL 5
REMARK VINA RESULT: -8.092638219      1.395      1.656
REMARK  9 active torsions:
REMARK  status: ('A' for Active; 'I' for Inactive)
REMARK    1  A    between atoms: C2_2  and  C3_3 
REMARK       I    between atoms: N1_6  and  C6_7 
REMARK    2  A    between atoms: C8_10  and  N2_11 
REMARK    3  A    between atoms: C8_10  and  C26_37 
REMARK       I    between atoms: N2_11  and  C9_13 
REMARK    4  A    between atoms: C9_13  and  C10_15 
REMARK       I    between atoms: N3_19  and  C14_20 
REMARK    5  A    between atoms: C14_20  and  C15_22 
REMARK    6  A    between atoms: C15_22  and  O4_23 
REMARK    7  A    between atoms: C15_22  and  C16_25 
REMARK    8  A    between atoms: C16_25  and  C18_27 
REMARK    9  A    between atoms: C23_32  and  O5_34 
ROOT
HETATM    1  C10 UNL     1      20.825  14.742  15.958  1.00  0.00     0.179 C 
HETATM    2  C11 UNL     1      21.650  14.732  14.716  1.00  0.00     0.037 C 
HETATM    3  C12 UNL     1      22.952  15.294  15.164  1.00  0.00     0.022 C 
HETATM    4  C13 UNL     1      22.955  15.229  16.700  1.00  0.00     0.127 C 
HETATM    5  N3  UNL     1      21.760  14.472  17.023  1.00  0.00    -0.337 N 
HETATM    6  C14 UNL     1      21.532  13.575  18.147  1.00  0.00     0.249 C 
HETATM    7  O3  UNL     1      20.416  12.998  18.090  1.00  0.00    -0.270 OA
ENDROOT
BRANCH   1   8
HETATM    8  C9  UNL     1      20.020  15.979  16.109  1.00  0.00     0.243 C 
HETATM    9  N2  UNL     1      19.915  17.024  15.194  1.00  0.00    -0.323 N 
ATOM     10  H2  UNL     1      20.465  16.912  14.342  1.00  0.00     0.165 HD
HETATM   11  O2  UNL     1      19.381  16.019  17.231  1.00  0.00    -0.271 OA
BRANCH   9  12
HETATM   12  C8  UNL     1      19.145  18.237  15.270  1.00  0.00     0.208 C 
HETATM   13  C3  UNL     1      19.637  19.208  14.154  1.00  0.00     0.069 C 
HETATM   14  C4  UNL     1      18.551  20.233  14.115  1.00  0.00     0.033 C 
HETATM   15  C5  UNL     1      17.318  19.508  14.487  1.00  0.00     0.130 C 
HETATM   16  N1  UNL     1      17.779  18.118  14.826  1.00  0.00    -0.316 N 
HETATM   17  C6  UNL     1      16.862  17.075  14.630  1.00  0.00     0.218 C 
HETATM   18  C7  UNL     1      15.448  17.331  14.148  1.00  0.00     0.117 C 
HETATM   19  O1  UNL     1      17.122  15.887  14.827  1.00  0.00    -0.274 OA
BRANCH  13  20
HETATM   20  C2  UNL     1      20.887  19.858  14.565  1.00  0.00    -0.027 C 
HETATM   21  C1  UNL     1      21.191  21.051  14.100  1.00  0.00     0.007 C 
ENDBRANCH  13  20
BRANCH  12  22
HETATM   22  C26 UNL     1      19.244  18.903  16.564  1.00  0.00     0.225 C 
HETATM   23  O6  UNL     1      20.358  19.270  17.095  1.00  0.00    -0.645 OA
HETATM   24  O7  UNL     1      18.152  19.211  17.357  1.00  0.00    -0.645 OA
ENDBRANCH  12  22
ENDBRANCH   9  12
ENDBRANCH   1   8
BRANCH   6  25
HETATM   25  C15 UNL     1      22.561  13.453  19.148  1.00  0.00     0.214 C 
BRANCH  25  26
HETATM   26  O4  UNL     1      22.234  14.283  20.246  1.00  0.00    -0.386 OA
ATOM     27  H4  UNL     1      21.467  13.931  20.682  1.00  0.00     0.210 HD
ENDBRANCH  25  26
BRANCH  25  28
HETATM   28  C16 UNL     1      23.051  12.166  19.620  1.00  0.00     0.028 C 
HETATM   29  C17 UNL     1      24.523  12.088  19.949  1.00  0.00     0.014 C 
BRANCH  28  30
HETATM   30  C18 UNL     1      22.203  11.308  20.508  1.00  0.00    -0.035 C 
HETATM   31  C19 UNL     1      23.204  10.528  21.392  1.00  0.00     0.016 C 
HETATM   32  C20 UNL     1      21.191  12.001  21.343  1.00  0.00     0.010 C 
HETATM   33  C21 UNL     1      20.593  10.998  22.316  1.00  0.00     0.004 C 
HETATM   34  C22 UNL     1      20.006   9.815  21.638  1.00  0.00     0.037 C 
HETATM   35  C23 UNL     1      20.172   9.836  20.139  1.00  0.00     0.055 C 
HETATM   36  C24 UNL     1      19.926   8.398  19.661  1.00  0.00     0.045 C 
HETATM   37  C25 UNL     1      21.525  10.240  19.684  1.00  0.00     0.046 C 
BRANCH  35  38
HETATM   38  O5  UNL     1      19.149  10.601  19.583  1.00  0.00    -0.390 OA
ATOM     39  H5  UNL     1      19.447  11.499  19.499  1.00  0.00     0.210 HD
ENDBRANCH  35  38
ENDBRANCH  28  30
ENDBRANCH  25  28
ENDBRANCH   6  25
TORSDOF 9
ENDMDL
