MODEL 1
REMARK VINA RESULT: -6.875379614      0.000      0.000
REMARK  10 active torsions:
REMARK  status: ('A' for Active; 'I' for Inactive)
REMARK    1  A    between atoms: S1_2  and  C2_3 
REMARK    2  A    between atoms: C2_3  and  N1_5 
REMARK       I    between atoms: C3_7  and  N2_8 
REMARK       I    between atoms: C3_7  and  N4_27 
REMARK    3  A    between atoms: N2_8  and  C4_10 
REMARK    4  A    between atoms: C4_10  and  C5_11 
REMARK    5  A    between atoms: C4_10  and  C8_16 
REMARK    6  A    between atoms: C5_11  and  C6_12 
REMARK    7  A    between atoms: C6_12  and  C7_13 
REMARK       I    between atoms: C8_16  and  N3_18 
REMARK    8  A    between atoms: C11_21  and  C12_22 
REMARK    9  A    between atoms: C17_30  and  C18_31 
REMARK   10  A    between atoms: C18_31  and  N5_32 
ROOT
HETATM    1  N1  UNL     1      21.386  18.524  16.708  1.00  0.00    -0.176 N 
ATOM      2  H1  UNL     1      21.442  19.041  17.586  1.00  0.00     0.185 HD
HETATM    3  C3  UNL     1      20.193  18.240  16.241  1.00  0.00     0.678 C 
HETATM    4  N2  UNL     1      20.183  17.529  15.029  1.00  0.00    -0.213 N 
ATOM      5  H2  UNL     1      20.602  17.979  14.215  1.00  0.00     0.178 HD
HETATM    6  N4  UNL     1      19.134  18.697  17.024  1.00  0.00    -0.218 N 
HETATM    7  C15 UNL     1      18.202  19.727  16.646  1.00  0.00     0.141 C 
HETATM    8  C16 UNL     1      17.921  20.728  17.711  1.00  0.00     0.027 C 
HETATM    9  C17 UNL     1      18.375  20.436  19.086  1.00  0.00     0.014 C 
HETATM   10  C19 UNL     1      19.267  19.267  19.295  1.00  0.00     0.027 C 
HETATM   11  C20 UNL     1      18.935  18.139  18.348  1.00  0.00     0.141 C 
ENDROOT
BRANCH   4  12
HETATM   12  C4  UNL     1      19.617  16.186  14.843  1.00  0.00     0.192 C 
BRANCH  12  13
HETATM   13  C5  UNL     1      18.822  16.177  13.544  1.00  0.00     0.046 C 
BRANCH  13  14
HETATM   14  C6  UNL     1      17.711  17.217  13.594  1.00  0.00     0.116 C 
BRANCH  14  15
HETATM   15  C7  UNL     1      16.509  16.618  12.972  1.00  0.00     0.172 C 
HETATM   16  O1  UNL     1      15.434  16.505  13.633  1.00  0.00    -0.648 OA
HETATM   17  O2  UNL     1      16.562  16.181  11.664  1.00  0.00    -0.648 OA
ENDBRANCH  14  15
ENDBRANCH  13  14
ENDBRANCH  12  13
BRANCH  12  18
HETATM   18  C8  UNL     1      20.682  15.160  14.867  1.00  0.00     0.243 C 
HETATM   19  O3  UNL     1      21.378  15.045  13.808  1.00  0.00    -0.271 OA
HETATM   20  N3  UNL     1      21.011  14.306  15.920  1.00  0.00    -0.350 N 
HETATM   21  C9  UNL     1      20.343  14.363  17.191  1.00  0.00     0.127 C 
HETATM   22  C14 UNL     1      22.053  13.323  15.775  1.00  0.00     0.127 C 
HETATM   23  C10 UNL     1      19.722  13.024  17.479  1.00  0.00     0.035 C 
HETATM   24  C11 UNL     1      20.798  11.986  17.521  1.00  0.00     0.090 C 
HETATM   25  C13 UNL     1      21.739  11.991  16.365  1.00  0.00     0.035 C 
BRANCH  24  26
HETATM   26  C12 UNL     1      21.468  11.992  18.843  1.00  0.00     0.177 C 
HETATM   27  O4  UNL     1      20.853  11.585  19.840  1.00  0.00    -0.648 OA
HETATM   28  O5  UNL     1      22.776  12.449  18.973  1.00  0.00    -0.648 OA
ENDBRANCH  24  26
ENDBRANCH  12  18
ENDBRANCH   4  12
BRANCH   1  29
HETATM   29  C2  UNL     1      22.575  18.172  16.091  1.00  0.00     0.153 C 
HETATM   30  S2  UNL     1      23.159  19.010  14.835  1.00  0.00    -0.052 SA
BRANCH  29  31
HETATM   31  S1  UNL     1      23.477  16.770  16.691  1.00  0.00    -0.104 SA
HETATM   32  C1  UNL     1      23.161  16.363  18.400  1.00  0.00     0.098 C 
ENDBRANCH  29  31
ENDBRANCH   1  29
BRANCH   9  33
HETATM   33  C18 UNL     1      17.216  20.365  20.089  1.00  0.00     0.234 C 
BRANCH  33  34
HETATM   34  N5  UNL     1      17.325  21.459  21.043  1.00  0.00    -0.079 N 
ATOM     35  H53 UNL     1      17.086  21.167  21.991  1.00  0.00     0.274 HD
ATOM     36  H52 UNL     1      18.296  21.725  21.212  1.00  0.00     0.274 HD
ATOM     37  H51 UNL     1      16.760  22.247  20.729  1.00  0.00     0.274 HD
ENDBRANCH  33  34
ENDBRANCH   9  33
TORSDOF 10
ENDMDL
MODEL 2
REMARK VINA RESULT: -6.827502441      3.163      5.923
REMARK  10 active torsions:
REMARK  status: ('A' for Active; 'I' for Inactive)
REMARK    1  A    between atoms: S1_2  and  C2_3 
REMARK    2  A    between atoms: C2_3  and  N1_5 
REMARK       I    between atoms: C3_7  and  N2_8 
REMARK       I    between atoms: C3_7  and  N4_27 
REMARK    3  A    between atoms: N2_8  and  C4_10 
REMARK    4  A    between atoms: C4_10  and  C5_11 
REMARK    5  A    between atoms: C4_10  and  C8_16 
REMARK    6  A    between atoms: C5_11  and  C6_12 
REMARK    7  A    between atoms: C6_12  and  C7_13 
REMARK       I    between atoms: C8_16  and  N3_18 
REMARK    8  A    between atoms: C11_21  and  C12_22 
REMARK    9  A    between atoms: C17_30  and  C18_31 
REMARK   10  A    between atoms: C18_31  and  N5_32 
ROOT
HETATM    1  N1  UNL     1      20.297  16.957  17.297  1.00  0.00    -0.176 N 
ATOM      2  H1  UNL     1      20.678  17.047  18.239  1.00  0.00     0.185 HD
HETATM    3  C3  UNL     1      19.601  17.962  16.820  1.00  0.00     0.678 C 
HETATM    4  N2  UNL     1      19.104  17.776  15.518  1.00  0.00    -0.213 N 
ATOM      5  H2  UNL     1      19.784  17.645  14.769  1.00  0.00     0.178 HD
HETATM    6  N4  UNL     1      19.475  19.048  17.683  1.00  0.00    -0.218 N 
HETATM    7  C15 UNL     1      20.060  20.348  17.479  1.00  0.00     0.141 C 
HETATM    8  C16 UNL     1      20.714  20.929  18.683  1.00  0.00     0.027 C 
HETATM    9  C17 UNL     1      20.472  20.287  19.991  1.00  0.00     0.014 C 
HETATM   10  C19 UNL     1      19.766  18.980  20.010  1.00  0.00     0.027 C 
HETATM   11  C20 UNL     1      18.727  18.895  18.917  1.00  0.00     0.141 C 
ENDROOT
BRANCH   4  12
HETATM   12  C4  UNL     1      17.682  17.755  15.153  1.00  0.00     0.192 C 
BRANCH  12  13
HETATM   13  C5  UNL     1      17.206  19.194  15.000  1.00  0.00     0.046 C 
BRANCH  13  14
HETATM   14  C6  UNL     1      17.986  19.898  13.898  1.00  0.00     0.116 C 
BRANCH  14  15
HETATM   15  C7  UNL     1      17.006  20.431  12.928  1.00  0.00     0.172 C 
HETATM   16  O1  UNL     1      16.970  19.986  11.741  1.00  0.00    -0.648 OA
HETATM   17  O2  UNL     1      16.124  21.418  13.319  1.00  0.00    -0.648 OA
ENDBRANCH  14  15
ENDBRANCH  13  14
ENDBRANCH  12  13
BRANCH  12  18
HETATM   18  C8  UNL     1      17.467  16.952  13.930  1.00  0.00     0.243 C 
HETATM   19  O3  UNL     1      18.505  16.438  13.402  1.00  0.00    -0.271 OA
HETATM   20  N3  UNL     1      16.253  16.692  13.291  1.00  0.00    -0.350 N 
HETATM   21  C9  UNL     1      14.998  17.164  13.807  1.00  0.00     0.127 C 
HETATM   22  C14 UNL     1      16.210  15.922  12.074  1.00  0.00     0.127 C 
HETATM   23  C10 UNL     1      14.336  18.027  12.769  1.00  0.00     0.035 C 
HETATM   24  C11 UNL     1      14.100  17.213  11.536  1.00  0.00     0.090 C 
HETATM   25  C13 UNL     1      15.279  16.448  11.038  1.00  0.00     0.035 C 
BRANCH  24  26
HETATM   26  C12 UNL     1      12.871  16.397  11.685  1.00  0.00     0.177 C 
HETATM   27  O4  UNL     1      12.727  15.380  10.989  1.00  0.00    -0.648 OA
HETATM   28  O5  UNL     1      11.884  16.761  12.595  1.00  0.00    -0.648 OA
ENDBRANCH  24  26
ENDBRANCH  12  18
ENDBRANCH   4  12
BRANCH   1  29
HETATM   29  C2  UNL     1      20.552  15.781  16.610  1.00  0.00     0.153 C 
HETATM   30  S2  UNL     1      19.506  14.547  16.627  1.00  0.00    -0.052 SA
BRANCH  29  31
HETATM   31  S1  UNL     1      22.060  15.627  15.691  1.00  0.00    -0.104 SA
HETATM   32  C1  UNL     1      21.836  15.305  13.949  1.00  0.00     0.098 C 
ENDBRANCH  29  31
ENDBRANCH   1  29
BRANCH   9  33
HETATM   33  C18 UNL     1      19.802  21.230  20.998  1.00  0.00     0.234 C 
BRANCH  33  34
HETATM   34  N5  UNL     1      19.183  22.342  20.291  1.00  0.00    -0.079 N 
ATOM     35  H53 UNL     1      19.851  22.847  19.709  1.00  0.00     0.274 HD
ATOM     36  H52 UNL     1      18.554  22.026  19.553  1.00  0.00     0.274 HD
ATOM     37  H51 UNL     1      18.715  22.956  20.958  1.00  0.00     0.274 HD
ENDBRANCH  33  34
ENDBRANCH   9  33
TORSDOF 10
ENDMDL
MODEL 3
REMARK VINA RESULT: -6.692692513      0.752      1.332
REMARK  10 active torsions:
REMARK  status: ('A' for Active; 'I' for Inactive)
REMARK    1  A    between atoms: S1_2  and  C2_3 
REMARK    2  A    between atoms: C2_3  and  N1_5 
REMARK       I    between atoms: C3_7  and  N2_8 
REMARK       I    between atoms: C3_7  and  N4_27 
REMARK    3  A    between atoms: N2_8  and  C4_10 
REMARK    4  A    between atoms: C4_10  and  C5_11 
REMARK    5  A    between atoms: C4_10  and  C8_16 
REMARK    6  A    between atoms: C5_11  and  C6_12 
REMARK    7  A    between atoms: C6_12  and  C7_13 
REMARK       I    between atoms: C8_16  and  N3_18 
REMARK    8  A    between atoms: C11_21  and  C12_22 
REMARK    9  A    between atoms: C17_30  and  C18_31 
REMARK   10  A    between atoms: C18_31  and  N5_32 
ROOT
HETATM    1  N1  UNL     1      21.732  18.146  17.337  1.00  0.00    -0.176 N 
ATOM      2  H1  UNL     1      21.675  18.627  18.235  1.00  0.00     0.185 HD
HETATM    3  C3  UNL     1      20.635  18.056  16.622  1.00  0.00     0.678 C 
HETATM    4  N2  UNL     1      20.780  17.382  15.396  1.00  0.00    -0.213 N 
ATOM      5  H2  UNL     1      21.420  17.783  14.711  1.00  0.00     0.178 HD
HETATM    6  N4  UNL     1      19.512  18.648  17.195  1.00  0.00    -0.218 N 
HETATM    7  C15 UNL     1      18.836  19.815  16.692  1.00  0.00     0.141 C 
HETATM    8  C16 UNL     1      18.483  20.822  17.729  1.00  0.00     0.027 C 
HETATM    9  C17 UNL     1      18.591  20.433  19.150  1.00  0.00     0.014 C 
HETATM   10  C19 UNL     1      19.245  19.138  19.473  1.00  0.00     0.027 C 
HETATM   11  C20 UNL     1      18.961  18.096  18.418  1.00  0.00     0.141 C 
ENDROOT
BRANCH   4  12
HETATM   12  C4  UNL     1      20.080  16.145  15.026  1.00  0.00     0.192 C 
BRANCH  12  13
HETATM   13  C5  UNL     1      19.426  16.353  13.666  1.00  0.00     0.046 C 
BRANCH  13  14
HETATM   14  C6  UNL     1      18.214  17.266  13.794  1.00  0.00     0.116 C 
BRANCH  14  15
HETATM   15  C7  UNL     1      17.016  16.468  13.453  1.00  0.00     0.172 C 
HETATM   16  O1  UNL     1      16.986  15.775  12.392  1.00  0.00    -0.648 OA
HETATM   17  O2  UNL     1      15.925  16.478  14.299  1.00  0.00    -0.648 OA
ENDBRANCH  14  15
ENDBRANCH  13  14
ENDBRANCH  12  13
BRANCH  12  18
HETATM   18  C8  UNL     1      21.007  14.993  15.042  1.00  0.00     0.243 C 
HETATM   19  O3  UNL     1      21.699  14.811  13.990  1.00  0.00    -0.271 OA
HETATM   20  N3  UNL     1      21.211  14.086  16.083  1.00  0.00    -0.350 N 
HETATM   21  C9  UNL     1      20.538  14.203  17.346  1.00  0.00     0.127 C 
HETATM   22  C14 UNL     1      22.124  12.982  15.930  1.00  0.00     0.127 C 
HETATM   23  C10 UNL     1      19.750  12.948  17.600  1.00  0.00     0.035 C 
HETATM   24  C11 UNL     1      20.687  11.782  17.635  1.00  0.00     0.090 C 
HETATM   25  C13 UNL     1      21.637  11.690  16.490  1.00  0.00     0.035 C 
BRANCH  24  26
HETATM   26  C12 UNL     1      21.334  11.680  18.965  1.00  0.00     0.177 C 
HETATM   27  O4  UNL     1      20.673  11.277  19.934  1.00  0.00    -0.648 OA
HETATM   28  O5  UNL     1      22.670  12.032  19.132  1.00  0.00    -0.648 OA
ENDBRANCH  24  26
ENDBRANCH  12  18
ENDBRANCH   4  12
BRANCH   1  29
HETATM   29  C2  UNL     1      22.962  17.634  16.958  1.00  0.00     0.153 C 
HETATM   30  S2  UNL     1      23.581  16.313  17.658  1.00  0.00    -0.052 SA
BRANCH  29  31
HETATM   31  S1  UNL     1      23.878  18.446  15.676  1.00  0.00    -0.104 SA
HETATM   32  C1  UNL     1      24.474  17.360  14.391  1.00  0.00     0.098 C 
ENDBRANCH  29  31
ENDBRANCH   1  29
BRANCH   9  33
HETATM   33  C18 UNL     1      17.250  20.514  19.889  1.00  0.00     0.234 C 
BRANCH  33  34
HETATM   34  N5  UNL     1      17.361  21.437  21.009  1.00  0.00    -0.079 N 
ATOM     35  H53 UNL     1      17.959  22.235  20.791  1.00  0.00     0.274 HD
ATOM     36  H52 UNL     1      16.492  21.945  21.176  1.00  0.00     0.274 HD
ATOM     37  H51 UNL     1      17.679  20.935  21.838  1.00  0.00     0.274 HD
ENDBRANCH  33  34
ENDBRANCH   9  33
TORSDOF 10
ENDMDL
MODEL 4
REMARK VINA RESULT: -6.685883202      3.190      7.025
REMARK  10 active torsions:
REMARK  status: ('A' for Active; 'I' for Inactive)
REMARK    1  A    between atoms: S1_2  and  C2_3 
REMARK    2  A    between atoms: C2_3  and  N1_5 
REMARK       I    between atoms: C3_7  and  N2_8 
REMARK       I    between atoms: C3_7  and  N4_27 
REMARK    3  A    between atoms: N2_8  and  C4_10 
REMARK    4  A    between atoms: C4_10  and  C5_11 
REMARK    5  A    between atoms: C4_10  and  C8_16 
REMARK    6  A    between atoms: C5_11  and  C6_12 
REMARK    7  A    between atoms: C6_12  and  C7_13 
REMARK       I    between atoms: C8_16  and  N3_18 
REMARK    8  A    between atoms: C11_21  and  C12_22 
REMARK    9  A    between atoms: C17_30  and  C18_31 
REMARK   10  A    between atoms: C18_31  and  N5_32 
ROOT
HETATM    1  N1  UNL     1      23.566  13.792  17.226  1.00  0.00    -0.176 N 
ATOM      2  H1  UNL     1      23.524  12.773  17.228  1.00  0.00     0.185 HD
HETATM    3  C3  UNL     1      22.998  14.429  18.224  1.00  0.00     0.678 C 
HETATM    4  N2  UNL     1      23.090  15.830  18.162  1.00  0.00    -0.213 N 
ATOM      5  H2  UNL     1      24.022  16.242  18.180  1.00  0.00     0.178 HD
HETATM    6  N4  UNL     1      22.405  13.608  19.180  1.00  0.00    -0.218 N 
HETATM    7  C15 UNL     1      22.857  13.447  20.538  1.00  0.00     0.141 C 
HETATM    8  C16 UNL     1      22.899  12.038  21.014  1.00  0.00     0.027 C 
HETATM    9  C17 UNL     1      22.237  11.001  20.196  1.00  0.00     0.014 C 
HETATM   10  C19 UNL     1      21.750  11.381  18.845  1.00  0.00     0.027 C 
HETATM   11  C20 UNL     1      21.252  12.806  18.815  1.00  0.00     0.141 C 
ENDROOT
BRANCH   4  12
HETATM   12  C4  UNL     1      21.946  16.747  18.074  1.00  0.00     0.192 C 
BRANCH  12  13
HETATM   13  C5  UNL     1      22.187  17.908  19.029  1.00  0.00     0.046 C 
BRANCH  13  14
HETATM   14  C6  UNL     1      20.945  18.783  19.126  1.00  0.00     0.116 C 
BRANCH  14  15
HETATM   15  C7  UNL     1      21.377  20.190  18.976  1.00  0.00     0.172 C 
HETATM   16  O1  UNL     1      22.063  20.547  17.971  1.00  0.00    -0.648 OA
HETATM   17  O2  UNL     1      21.027  21.119  19.935  1.00  0.00    -0.648 OA
ENDBRANCH  14  15
ENDBRANCH  13  14
ENDBRANCH  12  13
BRANCH  12  18
HETATM   18  C8  UNL     1      21.737  17.192  16.678  1.00  0.00     0.243 C 
HETATM   19  O3  UNL     1      22.720  17.777  16.120  1.00  0.00    -0.271 OA
HETATM   20  N3  UNL     1      20.586  17.038  15.905  1.00  0.00    -0.350 N 
HETATM   21  C9  UNL     1      19.422  16.349  16.390  1.00  0.00     0.127 C 
HETATM   22  C14 UNL     1      20.521  17.567  14.567  1.00  0.00     0.127 C 
HETATM   23  C10 UNL     1      18.246  17.286  16.349  1.00  0.00     0.035 C 
HETATM   24  C11 UNL     1      18.020  17.724  14.936  1.00  0.00     0.090 C 
HETATM   25  C13 UNL     1      19.229  18.223  14.220  1.00  0.00     0.035 C 
BRANCH  24  26
HETATM   26  C12 UNL     1      17.262  16.691  14.191  1.00  0.00     0.177 C 
HETATM   27  O4  UNL     1      16.208  16.246  14.669  1.00  0.00    -0.648 OA
HETATM   28  O5  UNL     1      17.722  16.221  12.965  1.00  0.00    -0.648 OA
ENDBRANCH  24  26
ENDBRANCH  12  18
ENDBRANCH   4  12
BRANCH   1  29
HETATM   29  C2  UNL     1      24.217  14.408  16.169  1.00  0.00     0.153 C 
HETATM   30  S2  UNL     1      25.736  14.946  16.309  1.00  0.00    -0.052 SA
BRANCH  29  31
HETATM   31  S1  UNL     1      23.363  14.611  14.629  1.00  0.00    -0.104 SA
HETATM   32  C1  UNL     1      24.063  15.851  13.553  1.00  0.00     0.098 C 
ENDBRANCH  29  31
ENDBRANCH   1  29
BRANCH   9  33
HETATM   33  C18 UNL     1      21.109  10.284  20.950  1.00  0.00     0.234 C 
BRANCH  33  34
HETATM   34  N5  UNL     1      20.788  11.018  22.166  1.00  0.00    -0.079 N 
ATOM     35  H53 UNL     1      21.580  11.567  22.504  1.00  0.00     0.274 HD
ATOM     36  H52 UNL     1      20.140  11.787  21.991  1.00  0.00     0.274 HD
ATOM     37  H51 UNL     1      20.438  10.374  22.874  1.00  0.00     0.274 HD
ENDBRANCH  33  34
ENDBRANCH   9  33
TORSDOF 10
ENDMDL
MODEL 5
REMARK VINA RESULT: -6.682915949      3.273      5.837
REMARK  10 active torsions:
REMARK  status: ('A' for Active; 'I' for Inactive)
REMARK    1  A    between atoms: S1_2  and  C2_3 
REMARK    2  A    between atoms: C2_3  and  N1_5 
REMARK       I    between atoms: C3_7  and  N2_8 
REMARK       I    between atoms: C3_7  and  N4_27 
REMARK    3  A    between atoms: N2_8  and  C4_10 
REMARK    4  A    between atoms: C4_10  and  C5_11 
REMARK    5  A    between atoms: C4_10  and  C8_16 
REMARK    6  A    between atoms: C5_11  and  C6_12 
REMARK    7  A    between atoms: C6_12  and  C7_13 
REMARK       I    between atoms: C8_16  and  N3_18 
REMARK    8  A    between atoms: C11_21  and  C12_22 
REMARK    9  A    between atoms: C17_30  and  C18_31 
REMARK   10  A    between atoms: C18_31  and  N5_32 
ROOT
HETATM    1  N1  UNL     1      23.820  16.017  16.365  1.00  0.00    -0.176 N 
ATOM      2  H1  UNL     1      23.923  17.008  16.585  1.00  0.00     0.185 HD
HETATM    3  C3  UNL     1      22.738  15.406  16.789  1.00  0.00     0.678 C 
HETATM    4  N2  UNL     1      22.656  14.043  16.454  1.00  0.00    -0.213 N 
ATOM      5  H2  UNL     1      22.633  13.802  15.464  1.00  0.00     0.178 HD
HETATM    6  N4  UNL     1      21.849  16.213  17.495  1.00  0.00    -0.218 N 
HETATM    7  C15 UNL     1      20.535  16.598  17.048  1.00  0.00     0.141 C 
HETATM    8  C16 UNL     1      20.212  18.037  17.244  1.00  0.00     0.027 C 
HETATM    9  C17 UNL     1      21.105  18.848  18.096  1.00  0.00     0.014 C 
HETATM   10  C19 UNL     1      22.388  18.243  18.539  1.00  0.00     0.027 C 
HETATM   11  C20 UNL     1      22.248  16.759  18.779  1.00  0.00     0.141 C 
ENDROOT
BRANCH   4  12
HETATM   12  C4  UNL     1      22.600  12.939  17.421  1.00  0.00     0.192 C 
BRANCH  12  13
HETATM   13  C5  UNL     1      23.156  13.437  18.749  1.00  0.00     0.046 C 
BRANCH  13  14
HETATM   14  C6  UNL     1      24.572  12.916  18.960  1.00  0.00     0.116 C 
BRANCH  14  15
HETATM   15  C7  UNL     1      24.573  12.118  20.205  1.00  0.00     0.172 C 
HETATM   16  O1  UNL     1      25.169  11.000  20.251  1.00  0.00    -0.648 OA
HETATM   17  O2  UNL     1      23.922  12.597  21.325  1.00  0.00    -0.648 OA
ENDBRANCH  14  15
ENDBRANCH  13  14
ENDBRANCH  12  13
BRANCH  12  18
HETATM   18  C8  UNL     1      21.221  12.417  17.541  1.00  0.00     0.243 C 
HETATM   19  O3  UNL     1      20.312  13.081  16.946  1.00  0.00    -0.271 OA
HETATM   20  N3  UNL     1      20.805  11.277  18.231  1.00  0.00    -0.350 N 
HETATM   21  C9  UNL     1      21.730  10.407  18.902  1.00  0.00     0.127 C 
HETATM   22  C14 UNL     1      19.411  10.920  18.293  1.00  0.00     0.127 C 
HETATM   23  C10 UNL     1      21.364  10.332  20.359  1.00  0.00     0.035 C 
HETATM   24  C11 UNL     1      19.976   9.787  20.486  1.00  0.00     0.090 C 
HETATM   25  C13 UNL     1      18.950  10.444  19.627  1.00  0.00     0.035 C 
BRANCH  24  26
HETATM   26  C12 UNL     1      19.992   8.308  20.383  1.00  0.00     0.177 C 
HETATM   27  O4  UNL     1      19.238   7.746  19.574  1.00  0.00    -0.648 OA
HETATM   28  O5  UNL     1      20.841   7.551  21.183  1.00  0.00    -0.648 OA
ENDBRANCH  24  26
ENDBRANCH  12  18
ENDBRANCH   4  12
BRANCH   1  29
HETATM   29  C2  UNL     1      24.832  15.409  15.640  1.00  0.00     0.153 C 
HETATM   30  S2  UNL     1      26.160  14.831  16.360  1.00  0.00    -0.052 SA
BRANCH  29  31
HETATM   31  S1  UNL     1      24.667  15.264  13.881  1.00  0.00    -0.104 SA
HETATM   32  C1  UNL     1      26.187  14.890  13.024  1.00  0.00     0.098 C 
ENDBRANCH  29  31
ENDBRANCH   1  29
BRANCH   9  33
HETATM   33  C18 UNL     1      20.384  19.439  19.314  1.00  0.00     0.234 C 
BRANCH  33  34
HETATM   34  N5  UNL     1      19.329  18.534  19.746  1.00  0.00    -0.079 N 
ATOM     35  H53 UNL     1      18.476  19.032  20.001  1.00  0.00     0.274 HD
ATOM     36  H52 UNL     1      18.954  17.985  18.973  1.00  0.00     0.274 HD
ATOM     37  H51 UNL     1      19.672  17.945  20.505  1.00  0.00     0.274 HD
ENDBRANCH  33  34
ENDBRANCH   9  33
TORSDOF 10
ENDMDL
