MODEL 1
REMARK VINA RESULT: -8.059499082      0.000      0.000
REMARK  8 active torsions:
REMARK  status: ('A' for Active; 'I' for Inactive)
REMARK    1  A    between atoms: C1_2  and  C2_4 
REMARK    2  A    between atoms: C2_4  and  C3_5 
REMARK    3  A    between atoms: C2_4  and  N1_11 
REMARK    4  A    between atoms: C13_16  and  C14_17 
REMARK    5  A    between atoms: C16_21  and  C17_22 
REMARK       I    between atoms: C17_22  and  N2_24 
REMARK    6  A    between atoms: N2_24  and  C18_26 
REMARK    7  A    between atoms: C18_26  and  C19_27 
REMARK       I    between atoms: C19_27  and  N3_29 
REMARK    8  A    between atoms: N3_29  and  C20_31 
ROOT
HETATM    1  N1  UNL     1      23.684  15.731  16.325  1.00  0.00    -0.360 N 
HETATM    2  C9  UNL     1      23.433  17.091  16.431  1.00  0.00     0.065 C 
HETATM    3  C10 UNL     1      24.694  17.908  16.645  1.00  0.00     0.025 C 
HETATM    4  C11 UNL     1      25.641  17.659  15.512  1.00  0.00     0.011 C 
HETATM    5  C12 UNL     1      26.512  16.491  15.952  1.00  0.00     0.024 C 
HETATM    6  C13 UNL     1      25.911  16.038  17.289  1.00  0.00     0.078 C 
HETATM    7  C15 UNL     1      25.463  17.375  17.829  1.00  0.00     0.033 C 
HETATM    8  C16 UNL     1      24.751  15.130  17.031  1.00  0.00     0.196 C 
ENDROOT
BRANCH   8   9
HETATM    9  C17 UNL     1      24.287  14.493  18.311  1.00  0.00     0.242 C 
HETATM   10  O5  UNL     1      23.698  15.151  19.222  1.00  0.00    -0.271 OA
HETATM   11  N2  UNL     1      24.503  13.116  18.524  1.00  0.00    -0.341 N 
ATOM     12  H2  UNL     1      24.973  12.610  17.774  1.00  0.00     0.163 HD
BRANCH  11  13
HETATM   13  C18 UNL     1      24.134  12.344  19.678  1.00  0.00     0.114 A 
HETATM   14  C26 UNL     1      25.116  12.381  20.841  1.00  0.00     0.044 A 
HETATM   15  C27 UNL     1      24.999  11.160  20.022  1.00  0.00     0.044 A 
BRANCH  13  16
HETATM   16  C19 UNL     1      22.686  12.193  19.974  1.00  0.00     0.246 C 
HETATM   17  O6  UNL     1      22.111  13.036  20.708  1.00  0.00    -0.271 OA
HETATM   18  N3  UNL     1      21.958  11.118  19.443  1.00  0.00    -0.354 N 
ATOM     19  H3  UNL     1      22.420  10.430  18.849  1.00  0.00     0.162 HD
BRANCH  18  20
HETATM   20  C20 UNL     1      20.519  10.990  19.751  1.00  0.00     0.084 C 
HETATM   21  C21 UNL     1      19.811  10.651  18.447  1.00  0.00     0.025 C 
HETATM   22  C22 UNL     1      18.356  10.403  18.737  1.00  0.00     0.002 C 
HETATM   23  C23 UNL     1      18.228   9.165  19.620  1.00  0.00     0.000 C 
HETATM   24  C24 UNL     1      18.960   9.391  20.899  1.00  0.00     0.002 C 
HETATM   25  C25 UNL     1      20.339   9.928  20.756  1.00  0.00     0.025 C 
ENDBRANCH  18  20
ENDBRANCH  13  16
ENDBRANCH  11  13
ENDBRANCH   8   9
BRANCH   1  26
HETATM   26  C2  UNL     1      22.745  14.817  15.821  1.00  0.00     0.215 C 
BRANCH  26  27
HETATM   27  C1  UNL     1      22.649  14.927  14.307  1.00  0.00     0.201 C 
HETATM   28  O1  UNL     1      21.607  15.005  13.656  1.00  0.00    -0.646 OA
HETATM   29  O2  UNL     1      23.884  14.937  13.618  1.00  0.00    -0.646 OA
ENDBRANCH  26  27
BRANCH  26  30
HETATM   30  C3  UNL     1      21.351  14.976  16.339  1.00  0.00    -0.051 C 
HETATM   31  C4  UNL     1      20.658  13.856  16.623  1.00  0.00    -0.021 C 
HETATM   32  C5  UNL     1      19.290  13.935  17.136  1.00  0.00     0.027 C 
HETATM   33  C6  UNL     1      18.469  15.018  16.500  1.00  0.00     0.004 C 
HETATM   34  C7  UNL     1      19.240  16.229  16.116  1.00  0.00     0.005 C 
HETATM   35  C8  UNL     1      20.677  16.257  16.553  1.00  0.00     0.036 C 
ENDBRANCH  26  30
ENDBRANCH   1  26
BRANCH   6  36
HETATM   36  C14 UNL     1      26.961  15.392  18.115  1.00  0.00     0.184 C 
HETATM   37  O3  UNL     1      27.451  14.314  17.787  1.00  0.00    -0.647 OA
HETATM   38  O4  UNL     1      27.355  16.065  19.264  1.00  0.00    -0.647 OA
ENDBRANCH   6  36
TORSDOF 8
ENDMDL
MODEL 2
REMARK VINA RESULT: -8.053196816      1.234      1.551
REMARK  8 active torsions:
REMARK  status: ('A' for Active; 'I' for Inactive)
REMARK    1  A    between atoms: C1_2  and  C2_4 
REMARK    2  A    between atoms: C2_4  and  C3_5 
REMARK    3  A    between atoms: C2_4  and  N1_11 
REMARK    4  A    between atoms: C13_16  and  C14_17 
REMARK    5  A    between atoms: C16_21  and  C17_22 
REMARK       I    between atoms: C17_22  and  N2_24 
REMARK    6  A    between atoms: N2_24  and  C18_26 
REMARK    7  A    between atoms: C18_26  and  C19_27 
REMARK       I    between atoms: C19_27  and  N3_29 
REMARK    8  A    between atoms: N3_29  and  C20_31 
ROOT
HETATM    1  N1  UNL     1      22.591  15.773  17.072  1.00  0.00    -0.360 N 
HETATM    2  C9  UNL     1      22.408  17.107  17.401  1.00  0.00     0.065 C 
HETATM    3  C10 UNL     1      23.702  17.901  17.382  1.00  0.00     0.025 C 
HETATM    4  C11 UNL     1      24.323  17.798  16.023  1.00  0.00     0.011 C 
HETATM    5  C12 UNL     1      25.249  16.592  16.083  1.00  0.00     0.024 C 
HETATM    6  C13 UNL     1      24.997  15.975  17.466  1.00  0.00     0.078 C 
HETATM    7  C15 UNL     1      24.733  17.234  18.258  1.00  0.00     0.033 C 
HETATM    8  C16 UNL     1      23.787  15.098  17.406  1.00  0.00     0.196 C 
ENDROOT
BRANCH   8   9
HETATM    9  C17 UNL     1      23.649  14.307  18.676  1.00  0.00     0.242 C 
HETATM   10  O5  UNL     1      23.179  14.811  19.742  1.00  0.00    -0.271 OA
HETATM   11  N2  UNL     1      24.047  12.954  18.704  1.00  0.00    -0.341 N 
ATOM     12  H2  UNL     1      24.415  12.573  17.833  1.00  0.00     0.163 HD
BRANCH  11  13
HETATM   13  C18 UNL     1      23.991  12.052  19.820  1.00  0.00     0.114 A 
HETATM   14  C26 UNL     1      25.119  12.181  20.834  1.00  0.00     0.044 A 
HETATM   15  C27 UNL     1      25.082  11.018  19.927  1.00  0.00     0.044 A 
BRANCH  13  16
HETATM   16  C19 UNL     1      22.650  11.626  20.299  1.00  0.00     0.246 C 
HETATM   17  O6  UNL     1      22.378  11.693  21.523  1.00  0.00    -0.271 OA
HETATM   18  N3  UNL     1      21.689  11.150  19.395  1.00  0.00    -0.354 N 
ATOM     19  H3  UNL     1      21.905  11.092  18.400  1.00  0.00     0.162 HD
BRANCH  18  20
HETATM   20  C20 UNL     1      20.363  10.734  19.895  1.00  0.00     0.084 C 
HETATM   21  C21 UNL     1      19.390  10.846  18.729  1.00  0.00     0.025 C 
HETATM   22  C22 UNL     1      18.049  10.326  19.167  1.00  0.00     0.002 C 
HETATM   23  C23 UNL     1      18.168   8.835  19.474  1.00  0.00     0.000 C 
HETATM   24  C24 UNL     1      19.163   8.633  20.567  1.00  0.00     0.002 C 
HETATM   25  C25 UNL     1      20.453   9.350  20.393  1.00  0.00     0.025 C 
ENDBRANCH  18  20
ENDBRANCH  13  16
ENDBRANCH  11  13
ENDBRANCH   8   9
BRANCH   1  26
HETATM   26  C2  UNL     1      21.533  14.920  16.720  1.00  0.00     0.215 C 
BRANCH  26  27
HETATM   27  C1  UNL     1      22.032  13.781  15.843  1.00  0.00     0.201 C 
HETATM   28  O1  UNL     1      22.583  13.905  14.750  1.00  0.00    -0.646 OA
HETATM   29  O2  UNL     1      21.827  12.481  16.359  1.00  0.00    -0.646 OA
ENDBRANCH  26  27
BRANCH  26  30
HETATM   30  C3  UNL     1      20.411  15.563  15.969  1.00  0.00    -0.051 C 
HETATM   31  C4  UNL     1      19.154  15.190  16.283  1.00  0.00    -0.021 C 
HETATM   32  C5  UNL     1      18.008  15.781  15.591  1.00  0.00     0.027 C 
HETATM   33  C6  UNL     1      18.234  15.996  14.123  1.00  0.00     0.004 C 
HETATM   34  C7  UNL     1      19.635  16.336  13.761  1.00  0.00     0.005 C 
HETATM   35  C8  UNL     1      20.574  16.561  14.912  1.00  0.00     0.036 C 
ENDBRANCH  26  30
ENDBRANCH   1  26
BRANCH   6  36
HETATM   36  C14 UNL     1      26.206  15.241  17.913  1.00  0.00     0.184 C 
HETATM   37  O3  UNL     1      26.902  15.668  18.831  1.00  0.00    -0.647 OA
HETATM   38  O4  UNL     1      26.504  14.061  17.245  1.00  0.00    -0.647 OA
ENDBRANCH   6  36
TORSDOF 8
ENDMDL
MODEL 3
REMARK VINA RESULT: -7.907095011      2.264      4.884
REMARK  8 active torsions:
REMARK  status: ('A' for Active; 'I' for Inactive)
REMARK    1  A    between atoms: C1_2  and  C2_4 
REMARK    2  A    between atoms: C2_4  and  C3_5 
REMARK    3  A    between atoms: C2_4  and  N1_11 
REMARK    4  A    between atoms: C13_16  and  C14_17 
REMARK    5  A    between atoms: C16_21  and  C17_22 
REMARK       I    between atoms: C17_22  and  N2_24 
REMARK    6  A    between atoms: N2_24  and  C18_26 
REMARK    7  A    between atoms: C18_26  and  C19_27 
REMARK       I    between atoms: C19_27  and  N3_29 
REMARK    8  A    between atoms: N3_29  and  C20_31 
ROOT
HETATM    1  N1  UNL     1      22.143  16.855  16.137  1.00  0.00    -0.360 N 
HETATM    2  C9  UNL     1      22.652  16.695  14.857  1.00  0.00     0.065 C 
HETATM    3  C10 UNL     1      21.935  15.615  14.068  1.00  0.00     0.025 C 
HETATM    4  C11 UNL     1      20.477  15.948  13.990  1.00  0.00     0.011 C 
HETATM    5  C12 UNL     1      19.835  15.274  15.193  1.00  0.00     0.024 C 
HETATM    6  C13 UNL     1      21.011  14.690  15.988  1.00  0.00     0.078 C 
HETATM    7  C15 UNL     1      21.928  14.322  14.845  1.00  0.00     0.033 C 
HETATM    8  C16 UNL     1      21.607  15.758  16.850  1.00  0.00     0.196 C 
ENDROOT
BRANCH   8   9
HETATM    9  C17 UNL     1      22.608  15.166  17.802  1.00  0.00     0.242 C 
HETATM   10  O5  UNL     1      22.559  15.372  19.053  1.00  0.00    -0.271 OA
HETATM   11  N2  UNL     1      23.643  14.346  17.307  1.00  0.00    -0.341 N 
ATOM     12  H2  UNL     1      23.655  14.192  16.299  1.00  0.00     0.163 HD
BRANCH  11  13
HETATM   13  C18 UNL     1      24.683  13.703  18.062  1.00  0.00     0.114 A 
HETATM   14  C26 UNL     1      25.872  14.579  18.432  1.00  0.00     0.044 A 
HETATM   15  C27 UNL     1      26.023  13.542  17.393  1.00  0.00     0.044 A 
BRANCH  13  16
HETATM   16  C19 UNL     1      24.288  12.610  18.988  1.00  0.00     0.246 C 
HETATM   17  O6  UNL     1      25.175  11.886  19.507  1.00  0.00    -0.271 OA
HETATM   18  N3  UNL     1      22.937  12.381  19.286  1.00  0.00    -0.354 N 
ATOM     19  H3  UNL     1      22.213  12.964  18.867  1.00  0.00     0.162 HD
BRANCH  18  20
HETATM   20  C20 UNL     1      22.570  11.289  20.210  1.00  0.00     0.084 C 
HETATM   21  C21 UNL     1      22.322  11.921  21.573  1.00  0.00     0.025 C 
HETATM   22  C22 UNL     1      21.839  10.856  22.519  1.00  0.00     0.002 C 
HETATM   23  C23 UNL     1      20.483  10.342  22.040  1.00  0.00     0.000 C 
HETATM   24  C24 UNL     1      20.627   9.767  20.672  1.00  0.00     0.002 C 
HETATM   25  C25 UNL     1      21.364  10.616  19.699  1.00  0.00     0.025 C 
ENDBRANCH  18  20
ENDBRANCH  13  16
ENDBRANCH  11  13
ENDBRANCH   8   9
BRANCH   1  26
HETATM   26  C2  UNL     1      22.419  17.976  16.935  1.00  0.00     0.215 C 
BRANCH  26  27
HETATM   27  C1  UNL     1      21.380  19.064  16.709  1.00  0.00     0.201 C 
HETATM   28  O1  UNL     1      20.624  19.146  15.741  1.00  0.00    -0.646 OA
HETATM   29  O2  UNL     1      21.302  20.051  17.718  1.00  0.00    -0.646 OA
ENDBRANCH  26  27
BRANCH  26  30
HETATM   30  C3  UNL     1      23.750  18.617  16.706  1.00  0.00    -0.051 C 
HETATM   31  C4  UNL     1      24.804  18.132  17.391  1.00  0.00    -0.021 C 
HETATM   32  C5  UNL     1      26.137  18.709  17.214  1.00  0.00     0.027 C 
HETATM   33  C6  UNL     1      26.134  20.203  17.072  1.00  0.00     0.004 C 
HETATM   34  C7  UNL     1      24.938  20.753  16.382  1.00  0.00     0.005 C 
HETATM   35  C8  UNL     1      23.994  19.739  15.799  1.00  0.00     0.036 C 
ENDBRANCH  26  30
ENDBRANCH   1  26
BRANCH   6  36
HETATM   36  C14 UNL     1      20.551  13.520  16.774  1.00  0.00     0.184 C 
HETATM   37  O3  UNL     1      19.542  13.582  17.472  1.00  0.00    -0.647 OA
HETATM   38  O4  UNL     1      21.315  12.364  16.681  1.00  0.00    -0.647 OA
ENDBRANCH   6  36
TORSDOF 8
ENDMDL
MODEL 4
REMARK VINA RESULT: -7.852709013      2.144      2.822
REMARK  8 active torsions:
REMARK  status: ('A' for Active; 'I' for Inactive)
REMARK    1  A    between atoms: C1_2  and  C2_4 
REMARK    2  A    between atoms: C2_4  and  C3_5 
REMARK    3  A    between atoms: C2_4  and  N1_11 
REMARK    4  A    between atoms: C13_16  and  C14_17 
REMARK    5  A    between atoms: C16_21  and  C17_22 
REMARK       I    between atoms: C17_22  and  N2_24 
REMARK    6  A    between atoms: N2_24  and  C18_26 
REMARK    7  A    between atoms: C18_26  and  C19_27 
REMARK       I    between atoms: C19_27  and  N3_29 
REMARK    8  A    between atoms: N3_29  and  C20_31 
ROOT
HETATM    1  N1  UNL     1      23.653  16.826  18.247  1.00  0.00    -0.360 N 
HETATM    2  C9  UNL     1      24.466  17.439  19.188  1.00  0.00     0.065 C 
HETATM    3  C10 UNL     1      25.928  17.461  18.781  1.00  0.00     0.025 C 
HETATM    4  C11 UNL     1      26.063  18.165  17.467  1.00  0.00     0.011 C 
HETATM    5  C12 UNL     1      25.946  17.082  16.404  1.00  0.00     0.024 C 
HETATM    6  C13 UNL     1      25.607  15.804  17.185  1.00  0.00     0.078 C 
HETATM    7  C15 UNL     1      26.394  16.065  18.448  1.00  0.00     0.033 C 
HETATM    8  C16 UNL     1      24.136  15.760  17.452  1.00  0.00     0.196 C 
ENDROOT
BRANCH   8   9
HETATM    9  C17 UNL     1      23.743  14.422  18.011  1.00  0.00     0.242 C 
HETATM   10  O5  UNL     1      23.011  13.607  17.370  1.00  0.00    -0.271 OA
HETATM   11  N2  UNL     1      24.196  14.038  19.290  1.00  0.00    -0.341 N 
ATOM     12  H2  UNL     1      24.787  14.710  19.780  1.00  0.00     0.163 HD
BRANCH  11  13
HETATM   13  C18 UNL     1      23.921  12.809  19.980  1.00  0.00     0.114 A 
HETATM   14  C26 UNL     1      24.991  12.345  20.958  1.00  0.00     0.044 A 
HETATM   15  C27 UNL     1      24.812  11.633  19.678  1.00  0.00     0.044 A 
BRANCH  13  16
HETATM   16  C19 UNL     1      22.501  12.485  20.273  1.00  0.00     0.246 C 
HETATM   17  O6  UNL     1      21.871  13.163  21.123  1.00  0.00    -0.271 OA
HETATM   18  N3  UNL     1      21.860  11.429  19.609  1.00  0.00    -0.354 N 
ATOM     19  H3  UNL     1      22.365  10.873  18.919  1.00  0.00     0.162 HD
BRANCH  18  20
HETATM   20  C20 UNL     1      20.447  11.126  19.917  1.00  0.00     0.084 C 
HETATM   21  C21 UNL     1      19.750  10.850  18.591  1.00  0.00     0.025 C 
HETATM   22  C22 UNL     1      18.333  10.430  18.869  1.00  0.00     0.002 C 
HETATM   23  C23 UNL     1      18.345   9.102  19.622  1.00  0.00     0.000 C 
HETATM   24  C24 UNL     1      19.077   9.271  20.910  1.00  0.00     0.002 C 
HETATM   25  C25 UNL     1      20.392   9.955  20.809  1.00  0.00     0.025 C 
ENDBRANCH  18  20
ENDBRANCH  13  16
ENDBRANCH  11  13
ENDBRANCH   8   9
BRANCH   1  26
HETATM   26  C2  UNL     1      22.256  16.955  18.242  1.00  0.00     0.215 C 
BRANCH  26  27
HETATM   27  C1  UNL     1      21.703  16.746  16.840  1.00  0.00     0.201 C 
HETATM   28  O1  UNL     1      22.115  17.291  15.816  1.00  0.00    -0.646 OA
HETATM   29  O2  UNL     1      20.622  15.841  16.741  1.00  0.00    -0.646 OA
ENDBRANCH  26  27
BRANCH  26  30
HETATM   30  C3  UNL     1      21.731  18.277  18.704  1.00  0.00    -0.051 C 
HETATM   31  C4  UNL     1      20.848  18.278  19.722  1.00  0.00    -0.021 C 
HETATM   32  C5  UNL     1      20.295  19.535  20.228  1.00  0.00     0.027 C 
HETATM   33  C6  UNL     1      19.989  20.535  19.153  1.00  0.00     0.004 C 
HETATM   34  C7  UNL     1      20.915  20.492  17.991  1.00  0.00     0.005 C 
HETATM   35  C8  UNL     1      22.095  19.572  18.127  1.00  0.00     0.036 C 
ENDBRANCH  26  30
ENDBRANCH   1  26
BRANCH   6  36
HETATM   36  C14 UNL     1      26.080  14.618  16.431  1.00  0.00     0.184 C 
HETATM   37  O3  UNL     1      26.497  13.621  17.015  1.00  0.00    -0.647 OA
HETATM   38  O4  UNL     1      26.025  14.694  15.046  1.00  0.00    -0.647 OA
ENDBRANCH   6  36
TORSDOF 8
ENDMDL
MODEL 5
REMARK VINA RESULT: -7.763376952      1.925      4.904
REMARK  8 active torsions:
REMARK  status: ('A' for Active; 'I' for Inactive)
REMARK    1  A    between atoms: C1_2  and  C2_4 
REMARK    2  A    between atoms: C2_4  and  C3_5 
REMARK    3  A    between atoms: C2_4  and  N1_11 
REMARK    4  A    between atoms: C13_16  and  C14_17 
REMARK    5  A    between atoms: C16_21  and  C17_22 
REMARK       I    between atoms: C17_22  and  N2_24 
REMARK    6  A    between atoms: N2_24  and  C18_26 
REMARK    7  A    between atoms: C18_26  and  C19_27 
REMARK       I    between atoms: C19_27  and  N3_29 
REMARK    8  A    between atoms: N3_29  and  C20_31 
ROOT
HETATM    1  N1  UNL     1      25.580  15.228  16.396  1.00  0.00    -0.360 N 
HETATM    2  C9  UNL     1      25.342  15.141  15.033  1.00  0.00     0.065 C 
HETATM    3  C10 UNL     1      24.161  15.983  14.586  1.00  0.00     0.025 C 
HETATM    4  C11 UNL     1      24.404  17.412  14.963  1.00  0.00     0.011 C 
HETATM    5  C12 UNL     1      23.798  17.582  16.348  1.00  0.00     0.024 C 
HETATM    6  C13 UNL     1      23.350  16.171  16.754  1.00  0.00     0.078 C 
HETATM    7  C15 UNL     1      22.939  15.639  15.401  1.00  0.00     0.033 C 
HETATM    8  C16 UNL     1      24.518  15.419  17.310  1.00  0.00     0.196 C 
ENDROOT
BRANCH   8   9
HETATM    9  C17 UNL     1      24.065  14.124  17.922  1.00  0.00     0.242 C 
HETATM   10  O5  UNL     1      23.427  13.247  17.262  1.00  0.00    -0.271 OA
HETATM   11  N2  UNL     1      24.354  13.852  19.275  1.00  0.00    -0.341 N 
ATOM     12  H2  UNL     1      24.873  14.570  19.780  1.00  0.00     0.163 HD
BRANCH  11  13
HETATM   13  C18 UNL     1      24.000  12.678  20.024  1.00  0.00     0.114 A 
HETATM   14  C26 UNL     1      25.003  12.238  21.081  1.00  0.00     0.044 A 
HETATM   15  C27 UNL     1      24.861  11.456  19.839  1.00  0.00     0.044 A 
BRANCH  13  16
HETATM   16  C19 UNL     1      22.556  12.420  20.262  1.00  0.00     0.246 C 
HETATM   17  O6  UNL     1      21.919  13.151  21.060  1.00  0.00    -0.271 OA
HETATM   18  N3  UNL     1      21.902  11.368  19.606  1.00  0.00    -0.354 N 
ATOM     19  H3  UNL     1      22.414  10.769  18.958  1.00  0.00     0.162 HD
BRANCH  18  20
HETATM   20  C20 UNL     1      20.466  11.132  19.859  1.00  0.00     0.084 C 
HETATM   21  C21 UNL     1      19.813  10.858  18.511  1.00  0.00     0.025 C 
HETATM   22  C22 UNL     1      18.369  10.505  18.736  1.00  0.00     0.002 C 
HETATM   23  C23 UNL     1      18.292   9.194  19.514  1.00  0.00     0.000 C 
HETATM   24  C24 UNL     1      18.977   9.358  20.829  1.00  0.00     0.002 C 
HETATM   25  C25 UNL     1      20.324   9.983  20.771  1.00  0.00     0.025 C 
ENDBRANCH  18  20
ENDBRANCH  13  16
ENDBRANCH  11  13
ENDBRANCH   8   9
BRANCH   1  26
HETATM   26  C2  UNL     1      26.777  14.804  16.992  1.00  0.00     0.215 C 
BRANCH  26  27
HETATM   27  C1  UNL     1      27.226  15.793  18.058  1.00  0.00     0.201 C 
HETATM   28  O1  UNL     1      27.026  17.006  18.042  1.00  0.00    -0.646 OA
HETATM   29  O2  UNL     1      27.932  15.234  19.149  1.00  0.00    -0.646 OA
ENDBRANCH  26  27
BRANCH  26  30
HETATM   30  C3  UNL     1      27.937  14.641  16.062  1.00  0.00    -0.051 C 
HETATM   31  C4  UNL     1      28.197  13.402  15.599  1.00  0.00    -0.021 C 
HETATM   32  C5  UNL     1      29.314  13.169  14.682  1.00  0.00     0.027 C 
HETATM   33  C6  UNL     1      30.540  13.970  15.008  1.00  0.00     0.004 C 
HETATM   34  C7  UNL     1      30.262  15.310  15.589  1.00  0.00     0.005 C 
HETATM   35  C8  UNL     1      28.817  15.723  15.622  1.00  0.00     0.036 C 
ENDBRANCH  26  30
ENDBRANCH   1  26
BRANCH   6  36
HETATM   36  C14 UNL     1      22.226  16.261  17.717  1.00  0.00     0.184 C 
HETATM   37  O3  UNL     1      22.354  16.852  18.787  1.00  0.00    -0.647 OA
HETATM   38  O4  UNL     1      21.035  15.649  17.349  1.00  0.00    -0.647 OA
ENDBRANCH   6  36
TORSDOF 8
ENDMDL
