MODEL 1
REMARK VINA RESULT: -10.354751928      0.000      0.000
REMARK  9 active torsions:
REMARK  status: ('A' for Active; 'I' for Inactive)
REMARK    1  A    between atoms: C2_2  and  C3_3 
REMARK    2  A    between atoms: C2_2  and  C18_23 
REMARK    3  A    between atoms: C3_3  and  C4_4 
REMARK    4  A    between atoms: C4_4  and  O1_5 
REMARK    5  A    between atoms: C6_8  and  C7_9 
REMARK    6  A    between atoms: C8_10  and  C9_11 
REMARK    7  A    between atoms: C13_16  and  C14_17 
REMARK    8  A    between atoms: C14_17  and  O2_20 
REMARK    9  A    between atoms: C18_23  and  C19_25 
ROOT
HETATM    1  C9  UNL     1      46.436  47.475  67.458  1.00  0.00     0.011 C 
HETATM    2  C10 UNL     1      46.324  48.268  68.537  1.00  0.00     0.093 C 
HETATM    3  C11 UNL     1      46.946  49.564  68.575  1.00  0.00     0.087 C 
HETATM    4  N1  UNL     1      47.449  50.600  68.625  1.00  0.00    -0.192 NA
ENDROOT
BRANCH   1   5
HETATM    5  C8  UNL     1      47.188  47.906  66.304  1.00  0.00    -0.003 C 
HETATM    6  C7  UNL     1      47.322  47.190  65.222  1.00  0.00    -0.022 C 
BRANCH   6   7
HETATM    7  C6  UNL     1      46.758  45.857  64.970  1.00  0.00     0.011 C 
HETATM    8  C5  UNL     1      47.461  45.131  63.851  1.00  0.00     0.046 C 
HETATM    9  C4  UNL     1      47.262  45.785  62.493  1.00  0.00     0.059 C 
HETATM   10  C17 UNL     1      45.825  46.271  62.346  1.00  0.00     0.045 C 
HETATM   11  C13 UNL     1      44.946  45.540  63.343  1.00  0.00     0.023 C 
HETATM   12  C12 UNL     1      45.268  45.977  64.752  1.00  0.00     0.016 C 
BRANCH   9  13
HETATM   13  C3  UNL     1      47.597  44.743  61.473  1.00  0.00     0.049 C 
BRANCH  13  14
HETATM   14  C2  UNL     1      47.947  45.190  60.110  1.00  0.00     0.054 C 
HETATM   15  C1  UNL     1      46.705  45.015  59.223  1.00  0.00     0.018 C 
BRANCH  14  16
HETATM   16  C18 UNL     1      49.043  44.489  59.422  1.00  0.00     0.135 C 
HETATM   17  O3  UNL     1      48.807  43.398  58.875  1.00  0.00    -0.297 OA
BRANCH  16  18
HETATM   18  C19 UNL     1      50.425  44.990  59.322  1.00  0.00     0.058 C 
HETATM   19  C20 UNL     1      51.508  44.009  59.126  1.00  0.00     0.013 C 
HETATM   20  C21 UNL     1      51.974  43.372  60.445  1.00  0.00     0.013 C 
HETATM   21  C22 UNL     1      52.551  44.482  61.259  1.00  0.00    -0.012 C 
HETATM   22  C23 UNL     1      53.506  45.246  60.328  1.00  0.00     0.018 C 
HETATM   23  C24 UNL     1      51.442  45.448  61.583  1.00  0.00     0.134 C 
HETATM   24  C29 UNL     1      53.288  44.064  62.474  1.00  0.00     0.024 A 
HETATM   25  C25 UNL     1      50.719  46.002  60.416  1.00  0.00     0.045 C 
HETATM   26  O4  UNL     1      50.545  44.898  62.459  1.00  0.00    -0.354 OA
HETATM   27  C26 UNL     1      51.064  44.368  63.605  1.00  0.00     0.279 C 
HETATM   28  O5  UNL     1      50.656  43.022  63.817  1.00  0.00    -0.288 OA
HETATM   29  C30 UNL     1      52.547  44.380  63.698  1.00  0.00     0.025 A 
HETATM   30  C27 UNL     1      51.690  42.219  63.358  1.00  0.00     0.266 C 
HETATM   31  O6  UNL     1      51.512  41.023  63.000  1.00  0.00    -0.265 OA
HETATM   32  C28 UNL     1      52.933  42.979  63.371  1.00  0.00     0.105 A 
HETATM   33  C31 UNL     1      53.220  45.138  64.810  1.00  0.00     0.022 C 
ENDBRANCH  16  18
ENDBRANCH  14  16
ENDBRANCH  13  14
ENDBRANCH   9  13
BRANCH   9  34
HETATM   34  O1  UNL     1      48.102  46.863  62.428  1.00  0.00    -0.390 OA
ATOM     35  H1  UNL     1      48.182  47.308  63.264  1.00  0.00     0.210 HD
ENDBRANCH   9  34
BRANCH  11  36
HETATM   36  C14 UNL     1      43.504  45.760  62.990  1.00  0.00     0.054 C 
HETATM   37  C15 UNL     1      42.735  46.335  64.157  1.00  0.00     0.045 C 
HETATM   38  C16 UNL     1      43.305  46.632  61.797  1.00  0.00     0.045 C 
BRANCH  36  39
HETATM   39  O2  UNL     1      42.954  44.496  62.711  1.00  0.00    -0.390 OA
ATOM     40  H2  UNL     1      42.734  44.489  61.787  1.00  0.00     0.210 HD
ENDBRANCH  36  39
ENDBRANCH  11  36
ENDBRANCH   6   7
ENDBRANCH   1   5
TORSDOF 9
ENDMDL
MODEL 2
REMARK VINA RESULT: -10.048372202      1.383      1.633
REMARK  9 active torsions:
REMARK  status: ('A' for Active; 'I' for Inactive)
REMARK    1  A    between atoms: C2_2  and  C3_3 
REMARK    2  A    between atoms: C2_2  and  C18_23 
REMARK    3  A    between atoms: C3_3  and  C4_4 
REMARK    4  A    between atoms: C4_4  and  O1_5 
REMARK    5  A    between atoms: C6_8  and  C7_9 
REMARK    6  A    between atoms: C8_10  and  C9_11 
REMARK    7  A    between atoms: C13_16  and  C14_17 
REMARK    8  A    between atoms: C14_17  and  O2_20 
REMARK    9  A    between atoms: C18_23  and  C19_25 
ROOT
HETATM    1  C9  UNL     1      48.890  47.301  67.043  1.00  0.00     0.011 C 
HETATM    2  C10 UNL     1      50.181  46.980  66.859  1.00  0.00     0.093 C 
HETATM    3  C11 UNL     1      50.906  47.444  65.706  1.00  0.00     0.087 C 
HETATM    4  N1  UNL     1      51.497  47.797  64.781  1.00  0.00    -0.192 NA
ENDROOT
BRANCH   1   5
HETATM    5  C8  UNL     1      48.193  48.124  66.082  1.00  0.00    -0.003 C 
HETATM    6  C7  UNL     1      47.316  47.659  65.237  1.00  0.00    -0.022 C 
BRANCH   6   7
HETATM    7  C6  UNL     1      46.877  46.264  65.098  1.00  0.00     0.011 C 
HETATM    8  C5  UNL     1      47.644  45.517  64.036  1.00  0.00     0.046 C 
HETATM    9  C4  UNL     1      47.386  46.037  62.631  1.00  0.00     0.059 C 
HETATM   10  C17 UNL     1      45.910  46.376  62.456  1.00  0.00     0.045 C 
HETATM   11  C13 UNL     1      45.102  45.651  63.515  1.00  0.00     0.023 C 
HETATM   12  C12 UNL     1      45.382  46.229  64.882  1.00  0.00     0.016 C 
BRANCH   9  13
HETATM   13  C3  UNL     1      47.816  44.951  61.697  1.00  0.00     0.049 C 
BRANCH  13  14
HETATM   14  C2  UNL     1      48.226  45.331  60.330  1.00  0.00     0.054 C 
HETATM   15  C1  UNL     1      47.042  45.061  59.389  1.00  0.00     0.018 C 
BRANCH  14  16
HETATM   16  C18 UNL     1      49.381  44.629  59.745  1.00  0.00     0.135 C 
HETATM   17  O3  UNL     1      49.195  43.542  59.171  1.00  0.00    -0.297 OA
BRANCH  16  18
HETATM   18  C19 UNL     1      50.768  45.127  59.780  1.00  0.00     0.058 C 
HETATM   19  C20 UNL     1      51.858  44.165  59.534  1.00  0.00     0.013 C 
HETATM   20  C21 UNL     1      52.247  43.377  60.795  1.00  0.00     0.013 C 
HETATM   21  C22 UNL     1      52.779  44.382  61.762  1.00  0.00    -0.012 C 
HETATM   22  C23 UNL     1      53.788  45.238  60.979  1.00  0.00     0.018 C 
HETATM   23  C24 UNL     1      51.657  45.314  62.132  1.00  0.00     0.134 C 
HETATM   24  C29 UNL     1      53.446  43.820  62.961  1.00  0.00     0.024 A 
HETATM   25  C25 UNL     1      51.002  46.004  60.997  1.00  0.00     0.045 C 
HETATM   26  O4  UNL     1      50.711  44.676  62.888  1.00  0.00    -0.354 OA
HETATM   27  C26 UNL     1      51.163  44.014  63.993  1.00  0.00     0.279 C 
HETATM   28  O5  UNL     1      50.739  42.656  64.027  1.00  0.00    -0.288 OA
HETATM   29  C30 UNL     1      52.638  44.002  64.169  1.00  0.00     0.025 A 
HETATM   30  C27 UNL     1      51.795  41.901  63.537  1.00  0.00     0.266 C 
HETATM   31  O6  UNL     1      51.635  40.755  63.035  1.00  0.00    -0.265 OA
HETATM   32  C28 UNL     1      53.038  42.644  63.706  1.00  0.00     0.105 A 
HETATM   33  C31 UNL     1      53.249  44.622  65.397  1.00  0.00     0.022 C 
ENDBRANCH  16  18
ENDBRANCH  14  16
ENDBRANCH  13  14
ENDBRANCH   9  13
BRANCH   9  34
HETATM   34  O1  UNL     1      48.123  47.179  62.473  1.00  0.00    -0.390 OA
ATOM     35  H1  UNL     1      49.050  46.998  62.367  1.00  0.00     0.210 HD
ENDBRANCH   9  34
BRANCH  11  36
HETATM   36  C14 UNL     1      43.646  45.709  63.155  1.00  0.00     0.054 C 
HETATM   37  C15 UNL     1      42.812  46.192  64.320  1.00  0.00     0.045 C 
HETATM   38  C16 UNL     1      43.356  46.556  61.963  1.00  0.00     0.045 C 
BRANCH  36  39
HETATM   39  O2  UNL     1      43.243  44.392  62.872  1.00  0.00    -0.390 OA
ATOM     40  H2  UNL     1      43.389  43.883  63.661  1.00  0.00     0.210 HD
ENDBRANCH  36  39
ENDBRANCH  11  36
ENDBRANCH   6   7
ENDBRANCH   1   5
TORSDOF 9
ENDMDL
MODEL 3
REMARK VINA RESULT: -10.018973086      2.655      5.793
REMARK  9 active torsions:
REMARK  status: ('A' for Active; 'I' for Inactive)
REMARK    1  A    between atoms: C2_2  and  C3_3 
REMARK    2  A    between atoms: C2_2  and  C18_23 
REMARK    3  A    between atoms: C3_3  and  C4_4 
REMARK    4  A    between atoms: C4_4  and  O1_5 
REMARK    5  A    between atoms: C6_8  and  C7_9 
REMARK    6  A    between atoms: C8_10  and  C9_11 
REMARK    7  A    between atoms: C13_16  and  C14_17 
REMARK    8  A    between atoms: C14_17  and  O2_20 
REMARK    9  A    between atoms: C18_23  and  C19_25 
ROOT
HETATM    1  C9  UNL     1      44.418  45.518  62.222  1.00  0.00     0.011 C 
HETATM    2  C10 UNL     1      43.686  45.264  63.320  1.00  0.00     0.093 C 
HETATM    3  C11 UNL     1      43.978  45.907  64.573  1.00  0.00     0.087 C 
HETATM    4  N1  UNL     1      44.208  46.405  65.588  1.00  0.00    -0.192 NA
ENDROOT
BRANCH   1   5
HETATM    5  C8  UNL     1      45.522  46.447  62.273  1.00  0.00    -0.003 C 
HETATM    6  C7  UNL     1      46.741  46.136  61.931  1.00  0.00    -0.022 C 
BRANCH   6   7
HETATM    7  C6  UNL     1      47.218  44.834  61.445  1.00  0.00     0.011 C 
HETATM    8  C5  UNL     1      47.881  44.018  62.526  1.00  0.00     0.046 C 
HETATM    9  C4  UNL     1      49.181  44.627  63.025  1.00  0.00     0.059 C 
HETATM   10  C17 UNL     1      49.978  45.201  61.860  1.00  0.00     0.045 C 
HETATM   11  C13 UNL     1      49.495  44.571  60.567  1.00  0.00     0.023 C 
HETATM   12  C12 UNL     1      48.100  45.043  60.237  1.00  0.00     0.016 C 
BRANCH   9  13
HETATM   13  C3  UNL     1      49.924  43.525  63.710  1.00  0.00     0.049 C 
BRANCH  13  14
HETATM   14  C2  UNL     1      51.393  43.635  63.814  1.00  0.00     0.054 C 
HETATM   15  C1  UNL     1      52.003  42.320  63.303  1.00  0.00     0.018 C 
BRANCH  14  16
HETATM   16  C18 UNL     1      51.967  43.859  65.151  1.00  0.00     0.135 C 
HETATM   17  O3  UNL     1      52.164  42.881  65.892  1.00  0.00    -0.297 OA
BRANCH  16  18
HETATM   18  C19 UNL     1      52.342  45.179  65.690  1.00  0.00     0.058 C 
HETATM   19  C20 UNL     1      52.187  46.356  64.815  1.00  0.00     0.013 C 
HETATM   20  C21 UNL     1      53.381  46.551  63.868  1.00  0.00     0.013 C 
HETATM   21  C22 UNL     1      54.561  46.824  64.741  1.00  0.00    -0.012 C 
HETATM   22  C23 UNL     1      54.114  47.905  65.740  1.00  0.00     0.018 C 
HETATM   23  C24 UNL     1      54.826  45.593  65.567  1.00  0.00     0.134 C 
HETATM   24  C29 UNL     1      55.780  47.287  64.037  1.00  0.00     0.024 A 
HETATM   25  C25 UNL     1      53.688  45.121  66.390  1.00  0.00     0.045 C 
HETATM   26  O4  UNL     1      55.288  44.565  64.791  1.00  0.00    -0.354 OA
HETATM   27  C26 UNL     1      56.360  44.842  63.993  1.00  0.00     0.279 C 
HETATM   28  O5  UNL     1      56.126  44.509  62.629  1.00  0.00    -0.288 OA
HETATM   29  C30 UNL     1      56.819  46.255  64.011  1.00  0.00     0.025 A 
HETATM   30  C27 UNL     1      55.756  45.686  61.994  1.00  0.00     0.266 C 
HETATM   31  O6  UNL     1      55.083  45.698  60.928  1.00  0.00    -0.265 OA
HETATM   32  C28 UNL     1      56.264  46.823  62.751  1.00  0.00     0.105 A 
HETATM   33  C31 UNL     1      58.215  46.581  64.469  1.00  0.00     0.022 C 
ENDBRANCH  16  18
ENDBRANCH  14  16
ENDBRANCH  13  14
ENDBRANCH   9  13
BRANCH   9  34
HETATM   34  O1  UNL     1      48.856  45.644  63.882  1.00  0.00    -0.390 OA
ATOM     35  H1  UNL     1      48.353  45.340  64.628  1.00  0.00     0.210 HD
ENDBRANCH   9  34
BRANCH  11  36
HETATM   36  C14 UNL     1      50.477  44.871  59.471  1.00  0.00     0.054 C 
HETATM   37  C15 UNL     1      50.455  46.337  59.102  1.00  0.00     0.045 C 
HETATM   38  C16 UNL     1      51.876  44.470  59.792  1.00  0.00     0.045 C 
BRANCH  36  39
HETATM   39  O2  UNL     1      50.058  44.151  58.339  1.00  0.00    -0.390 OA
ATOM     40  H2  UNL     1      50.365  43.259  58.450  1.00  0.00     0.210 HD
ENDBRANCH  36  39
ENDBRANCH  11  36
ENDBRANCH   6   7
ENDBRANCH   1   5
TORSDOF 9
ENDMDL
MODEL 4
REMARK VINA RESULT: -10.014537678      2.974      6.093
REMARK  9 active torsions:
REMARK  status: ('A' for Active; 'I' for Inactive)
REMARK    1  A    between atoms: C2_2  and  C3_3 
REMARK    2  A    between atoms: C2_2  and  C18_23 
REMARK    3  A    between atoms: C3_3  and  C4_4 
REMARK    4  A    between atoms: C4_4  and  O1_5 
REMARK    5  A    between atoms: C6_8  and  C7_9 
REMARK    6  A    between atoms: C8_10  and  C9_11 
REMARK    7  A    between atoms: C13_16  and  C14_17 
REMARK    8  A    between atoms: C14_17  and  O2_20 
REMARK    9  A    between atoms: C18_23  and  C19_25 
ROOT
HETATM    1  C9  UNL     1      44.905  45.478  63.191  1.00  0.00     0.011 C 
HETATM    2  C10 UNL     1      43.761  45.545  62.490  1.00  0.00     0.093 C 
HETATM    3  C11 UNL     1      43.555  46.563  61.496  1.00  0.00     0.087 C 
HETATM    4  N1  UNL     1      43.371  47.381  60.704  1.00  0.00    -0.192 NA
ENDROOT
BRANCH   1   5
HETATM    5  C8  UNL     1      45.964  46.433  62.961  1.00  0.00    -0.003 C 
HETATM    6  C7  UNL     1      47.090  46.133  62.377  1.00  0.00    -0.022 C 
BRANCH   6   7
HETATM    7  C6  UNL     1      47.492  44.820  61.856  1.00  0.00     0.011 C 
HETATM    8  C5  UNL     1      48.265  44.006  62.863  1.00  0.00     0.046 C 
HETATM    9  C4  UNL     1      49.621  44.604  63.204  1.00  0.00     0.059 C 
HETATM   10  C17 UNL     1      50.286  45.155  61.948  1.00  0.00     0.045 C 
HETATM   11  C13 UNL     1      49.652  44.517  60.726  1.00  0.00     0.023 C 
HETATM   12  C12 UNL     1      48.233  45.004  60.553  1.00  0.00     0.016 C 
BRANCH   9  13
HETATM   13  C3  UNL     1      50.425  43.499  63.813  1.00  0.00     0.049 C 
BRANCH  13  14
HETATM   14  C2  UNL     1      51.856  43.746  64.081  1.00  0.00     0.054 C 
HETATM   15  C1  UNL     1      52.642  42.506  63.628  1.00  0.00     0.018 C 
BRANCH  14  16
HETATM   16  C18 UNL     1      52.255  43.996  65.476  1.00  0.00     0.135 C 
HETATM   17  O3  UNL     1      52.163  43.071  66.302  1.00  0.00    -0.297 OA
BRANCH  16  18
HETATM   18  C19 UNL     1      52.772  45.280  65.981  1.00  0.00     0.058 C 
HETATM   19  C20 UNL     1      52.574  46.483  65.152  1.00  0.00     0.013 C 
HETATM   20  C21 UNL     1      53.645  46.632  64.059  1.00  0.00     0.013 C 
HETATM   21  C22 UNL     1      54.942  46.819  64.775  1.00  0.00    -0.012 C 
HETATM   22  C23 UNL     1      54.692  47.901  65.839  1.00  0.00     0.018 C 
HETATM   23  C24 UNL     1      55.240  45.558  65.541  1.00  0.00     0.134 C 
HETATM   24  C29 UNL     1      56.085  47.228  63.925  1.00  0.00     0.024 A 
HETATM   25  C25 UNL     1      54.193  45.132  66.498  1.00  0.00     0.045 C 
HETATM   26  O4  UNL     1      55.536  44.522  64.696  1.00  0.00    -0.354 OA
HETATM   27  C26 UNL     1      56.510  44.756  63.769  1.00  0.00     0.279 C 
HETATM   28  O5  UNL     1      56.083  44.468  62.443  1.00  0.00    -0.288 OA
HETATM   29  C30 UNL     1      57.050  46.141  63.747  1.00  0.00     0.025 A 
HETATM   30  C27 UNL     1      55.703  45.677  61.879  1.00  0.00     0.266 C 
HETATM   31  O6  UNL     1      54.899  45.751  60.910  1.00  0.00    -0.265 OA
HETATM   32  C28 UNL     1      56.370  46.767  62.579  1.00  0.00     0.105 A 
HETATM   33  C31 UNL     1      58.510  46.378  64.024  1.00  0.00     0.022 C 
ENDBRANCH  16  18
ENDBRANCH  14  16
ENDBRANCH  13  14
ENDBRANCH   9  13
BRANCH   9  34
HETATM   34  O1  UNL     1      49.409  45.635  64.079  1.00  0.00    -0.390 OA
ATOM     35  H1  UNL     1      48.636  46.141  63.859  1.00  0.00     0.210 HD
ENDBRANCH   9  34
BRANCH  11  36
HETATM   36  C14 UNL     1      50.505  44.792  59.522  1.00  0.00     0.054 C 
HETATM   37  C15 UNL     1      50.453  46.253  59.136  1.00  0.00     0.045 C 
HETATM   38  C16 UNL     1      51.928  44.382  59.689  1.00  0.00     0.045 C 
BRANCH  36  39
HETATM   39  O2  UNL     1      49.954  44.061  58.455  1.00  0.00    -0.390 OA
ATOM     40  H2  UNL     1      50.321  43.186  58.502  1.00  0.00     0.210 HD
ENDBRANCH  36  39
ENDBRANCH  11  36
ENDBRANCH   6   7
ENDBRANCH   1   5
TORSDOF 9
ENDMDL
MODEL 5
REMARK VINA RESULT: -9.822214263      2.639      5.343
REMARK  9 active torsions:
REMARK  status: ('A' for Active; 'I' for Inactive)
REMARK    1  A    between atoms: C2_2  and  C3_3 
REMARK    2  A    between atoms: C2_2  and  C18_23 
REMARK    3  A    between atoms: C3_3  and  C4_4 
REMARK    4  A    between atoms: C4_4  and  O1_5 
REMARK    5  A    between atoms: C6_8  and  C7_9 
REMARK    6  A    between atoms: C8_10  and  C9_11 
REMARK    7  A    between atoms: C13_16  and  C14_17 
REMARK    8  A    between atoms: C14_17  and  O2_20 
REMARK    9  A    between atoms: C18_23  and  C19_25 
ROOT
HETATM    1  C9  UNL     1      44.032  44.830  62.958  1.00  0.00     0.011 C 
HETATM    2  C10 UNL     1      42.840  44.963  63.564  1.00  0.00     0.093 C 
HETATM    3  C11 UNL     1      42.066  46.168  63.427  1.00  0.00     0.087 C 
HETATM    4  N1  UNL     1      41.439  47.131  63.337  1.00  0.00    -0.192 NA
ENDROOT
BRANCH   1   5
HETATM    5  C8  UNL     1      44.567  45.900  62.148  1.00  0.00    -0.003 C 
HETATM    6  C7  UNL     1      45.813  45.960  61.767  1.00  0.00    -0.022 C 
BRANCH   6   7
HETATM    7  C6  UNL     1      46.877  44.993  62.070  1.00  0.00     0.011 C 
HETATM    8  C5  UNL     1      47.909  45.544  63.023  1.00  0.00     0.046 C 
HETATM    9  C4  UNL     1      48.721  46.685  62.433  1.00  0.00     0.059 C 
HETATM   10  C17 UNL     1      49.060  46.394  60.975  1.00  0.00     0.045 C 
HETATM   11  C13 UNL     1      48.925  44.905  60.718  1.00  0.00     0.023 C 
HETATM   12  C12 UNL     1      47.476  44.487  60.780  1.00  0.00     0.016 C 
BRANCH   9  13
HETATM   13  C3  UNL     1      49.954  46.798  63.272  1.00  0.00     0.049 C 
BRANCH  13  14
HETATM   14  C2  UNL     1      49.950  46.164  64.606  1.00  0.00     0.054 C 
HETATM   15  C1  UNL     1      49.895  47.281  65.659  1.00  0.00     0.018 C 
BRANCH  14  16
HETATM   16  C18 UNL     1      51.102  45.321  64.964  1.00  0.00     0.135 C 
HETATM   17  O3  UNL     1      52.126  45.864  65.415  1.00  0.00    -0.297 OA
BRANCH  16  18
HETATM   18  C19 UNL     1      51.138  43.854  64.834  1.00  0.00     0.058 C 
HETATM   19  C20 UNL     1      52.334  43.141  65.320  1.00  0.00     0.013 C 
HETATM   20  C21 UNL     1      53.475  43.128  64.290  1.00  0.00     0.013 C 
HETATM   21  C22 UNL     1      52.966  42.353  63.120  1.00  0.00    -0.012 C 
HETATM   22  C23 UNL     1      52.356  41.063  63.693  1.00  0.00     0.018 C 
HETATM   23  C24 UNL     1      51.814  43.114  62.520  1.00  0.00     0.134 C 
HETATM   24  C29 UNL     1      53.982  41.999  62.101  1.00  0.00     0.024 A 
HETATM   25  C25 UNL     1      50.699  43.418  63.447  1.00  0.00     0.045 C 
HETATM   26  O4  UNL     1      52.240  44.269  61.922  1.00  0.00    -0.354 OA
HETATM   27  C26 UNL     1      53.252  44.145  61.015  1.00  0.00     0.279 C 
HETATM   28  O5  UNL     1      54.349  45.006  61.299  1.00  0.00    -0.288 OA
HETATM   29  C30 UNL     1      53.814  42.776  60.871  1.00  0.00     0.025 A 
HETATM   30  C27 UNL     1      55.289  44.238  61.972  1.00  0.00     0.266 C 
HETATM   31  O6  UNL     1      56.161  44.744  62.729  1.00  0.00    -0.265 OA
HETATM   32  C28 UNL     1      55.082  42.831  61.651  1.00  0.00     0.105 A 
HETATM   33  C31 UNL     1      53.742  42.076  59.541  1.00  0.00     0.022 C 
ENDBRANCH  16  18
ENDBRANCH  14  16
ENDBRANCH  13  14
ENDBRANCH   9  13
BRANCH   9  34
HETATM   34  O1  UNL     1      47.949  47.813  62.490  1.00  0.00    -0.390 OA
ATOM     35  H1  UNL     1      47.050  47.623  62.731  1.00  0.00     0.210 HD
ENDBRANCH   9  34
BRANCH  11  36
HETATM   36  C14 UNL     1      49.565  44.568  59.403  1.00  0.00     0.054 C 
HETATM   37  C15 UNL     1      50.448  45.696  58.918  1.00  0.00     0.045 C 
HETATM   38  C16 UNL     1      50.356  43.305  59.427  1.00  0.00     0.045 C 
BRANCH  36  39
HETATM   39  O2  UNL     1      48.525  44.422  58.469  1.00  0.00    -0.390 OA
ATOM     40  H2  UNL     1      48.850  44.753  57.640  1.00  0.00     0.210 HD
ENDBRANCH  36  39
ENDBRANCH  11  36
ENDBRANCH   6   7
ENDBRANCH   1   5
TORSDOF 9
ENDMDL
