MODEL 1
REMARK VINA RESULT: -9.059980433      0.000      0.000
REMARK  9 active torsions:
REMARK  status: ('A' for Active; 'I' for Inactive)
REMARK    1  A    between atoms: O1_2  and  C2_3 
REMARK    2  A    between atoms: C2_3  and  C3_5 
REMARK    3  A    between atoms: C3_5  and  C4_6 
REMARK    4  A    between atoms: C4_6  and  C5_7 
REMARK    5  A    between atoms: C6_8  and  C7_9 
REMARK    6  A    between atoms: C10_12  and  C11_13 
REMARK    7  A    between atoms: C12_14  and  C13_15 
REMARK    8  A    between atoms: C25_29  and  O5_30 
REMARK    9  A    between atoms: C28_34  and  O6_35 
ROOT
HETATM    1  C7  UNL     1      50.736  45.459  62.271  1.00  0.00     0.029 C 
HETATM    2  C8  UNL     1      50.719  45.752  63.761  1.00  0.00     0.010 C 
HETATM    3  C9  UNL     1      51.692  46.830  64.026  1.00  0.00     0.010 C 
HETATM    4  C10 UNL     1      53.075  46.450  64.419  1.00  0.00     0.019 C 
HETATM    5  C20 UNL     1      53.841  45.600  63.458  1.00  0.00     0.064 C 
HETATM    6  C21 UNL     1      54.441  44.347  64.052  1.00  0.00     0.013 C 
HETATM    7  C22 UNL     1      54.202  43.150  63.114  1.00  0.00     0.008 C 
HETATM    8  C23 UNL     1      52.777  42.760  63.348  1.00  0.00     0.017 C 
HETATM    9  C24 UNL     1      52.675  41.228  63.427  1.00  0.00     0.013 C 
HETATM   10  C25 UNL     1      51.868  43.167  62.208  1.00  0.00     0.079 C 
HETATM   11  C26 UNL     1      52.412  42.399  60.987  1.00  0.00     0.042 C 
HETATM   12  C27 UNL     1      52.659  43.455  59.918  1.00  0.00     0.036 C 
HETATM   13  C28 UNL     1      51.707  44.506  60.330  1.00  0.00     0.138 C 
HETATM   14  C29 UNL     1      51.862  44.584  61.857  1.00  0.00     0.085 C 
HETATM   15  C30 UNL     1      53.116  45.319  62.189  1.00  0.00     0.146 C 
HETATM   16  O7  UNL     1      53.645  45.779  61.201  1.00  0.00    -0.296 OA
ENDROOT
BRANCH   4  17
HETATM   17  C11 UNL     1      53.059  45.967  65.826  1.00  0.00    -0.025 C 
HETATM   18  C12 UNL     1      52.495  46.655  66.801  1.00  0.00    -0.026 C 
BRANCH  18  19
HETATM   19  C13 UNL     1      52.435  46.260  68.204  1.00  0.00     0.009 C 
HETATM   20  C14 UNL     1      53.736  45.708  68.690  1.00  0.00     0.016 C 
HETATM   21  C15 UNL     1      53.315  44.834  69.846  1.00  0.00     0.024 C 
HETATM   22  C16 UNL     1      54.282  43.690  70.060  1.00  0.00     0.184 C 
HETATM   23  C18 UNL     1      52.127  44.086  69.257  1.00  0.00     0.092 C 
HETATM   24  O3  UNL     1      54.150  42.909  68.904  1.00  0.00    -0.321 OA
HETATM   25  C17 UNL     1      52.831  43.025  68.482  1.00  0.00     0.263 C 
HETATM   26  O4  UNL     1      52.271  42.347  67.575  1.00  0.00    -0.265 OA
HETATM   27  C19 UNL     1      51.461  45.104  68.364  1.00  0.00     0.023 C 
ENDBRANCH  18  19
ENDBRANCH   4  17
BRANCH   1  28
HETATM   28  C6  UNL     1      49.406  45.150  61.734  1.00  0.00    -0.025 C 
HETATM   29  C5  UNL     1      48.326  45.039  62.495  1.00  0.00    -0.030 C 
BRANCH  29  30
HETATM   30  C4  UNL     1      46.985  44.737  62.052  1.00  0.00     0.037 C 
BRANCH  30  31
HETATM   31  C3  UNL     1      45.969  45.383  62.981  1.00  0.00     0.115 C 
BRANCH  31  32
HETATM   32  C2  UNL     1      44.613  45.352  62.366  1.00  0.00     0.258 C 
HETATM   33  O2  UNL     1      43.615  44.932  62.960  1.00  0.00    -0.265 OA
BRANCH  32  34
HETATM   34  O1  UNL     1      44.505  45.827  61.054  1.00  0.00    -0.326 OA
HETATM   35  C1  UNL     1      43.672  46.959  60.773  1.00  0.00     0.213 C 
ENDBRANCH  32  34
ENDBRANCH  31  32
ENDBRANCH  30  31
ENDBRANCH  29  30
ENDBRANCH   1  28
BRANCH  10  36
HETATM   36  O5  UNL     1      50.648  42.599  62.485  1.00  0.00    -0.388 OA
ATOM     37  H5  UNL     1      50.391  42.143  61.692  1.00  0.00     0.210 HD
ENDBRANCH  10  36
BRANCH  13  38
HETATM   38  O6  UNL     1      51.778  45.702  59.708  1.00  0.00    -0.394 OA
ATOM     39  H6  UNL     1      51.689  45.718  58.763  1.00  0.00     0.210 HD
ENDBRANCH  13  38
TORSDOF 9
ENDMDL
MODEL 2
REMARK VINA RESULT: -8.533250367      0.761      1.004
REMARK  9 active torsions:
REMARK  status: ('A' for Active; 'I' for Inactive)
REMARK    1  A    between atoms: O1_2  and  C2_3 
REMARK    2  A    between atoms: C2_3  and  C3_5 
REMARK    3  A    between atoms: C3_5  and  C4_6 
REMARK    4  A    between atoms: C4_6  and  C5_7 
REMARK    5  A    between atoms: C6_8  and  C7_9 
REMARK    6  A    between atoms: C10_12  and  C11_13 
REMARK    7  A    between atoms: C12_14  and  C13_15 
REMARK    8  A    between atoms: C25_29  and  O5_30 
REMARK    9  A    between atoms: C28_34  and  O6_35 
ROOT
HETATM    1  C7  UNL     1      50.558  45.530  62.680  1.00  0.00     0.029 C 
HETATM    2  C8  UNL     1      50.727  45.884  64.147  1.00  0.00     0.010 C 
HETATM    3  C9  UNL     1      51.746  46.947  64.245  1.00  0.00     0.010 C 
HETATM    4  C10 UNL     1      53.160  46.550  64.486  1.00  0.00     0.019 C 
HETATM    5  C20 UNL     1      53.786  45.642  63.477  1.00  0.00     0.064 C 
HETATM    6  C21 UNL     1      54.429  44.399  64.049  1.00  0.00     0.013 C 
HETATM    7  C22 UNL     1      54.055  43.171  63.201  1.00  0.00     0.008 C 
HETATM    8  C23 UNL     1      52.660  42.827  63.621  1.00  0.00     0.017 C 
HETATM    9  C24 UNL     1      52.539  41.303  63.780  1.00  0.00     0.013 C 
HETATM   10  C25 UNL     1      51.629  43.209  62.582  1.00  0.00     0.079 C 
HETATM   11  C26 UNL     1      52.005  42.379  61.339  1.00  0.00     0.042 C 
HETATM   12  C27 UNL     1      52.141  43.382  60.203  1.00  0.00     0.036 C 
HETATM   13  C28 UNL     1      51.267  44.474  60.680  1.00  0.00     0.138 C 
HETATM   14  C29 UNL     1      51.608  44.610  62.173  1.00  0.00     0.085 C 
HETATM   15  C30 UNL     1      52.907  45.327  62.318  1.00  0.00     0.146 C 
HETATM   16  O7  UNL     1      53.321  45.733  61.254  1.00  0.00    -0.296 OA
ENDROOT
BRANCH   4  17
HETATM   17  C11 UNL     1      53.304  46.126  65.904  1.00  0.00    -0.025 C 
HETATM   18  C12 UNL     1      52.581  46.652  66.875  1.00  0.00    -0.026 C 
BRANCH  18  19
HETATM   19  C13 UNL     1      52.658  46.299  68.288  1.00  0.00     0.009 C 
HETATM   20  C14 UNL     1      53.982  45.706  68.649  1.00  0.00     0.016 C 
HETATM   21  C15 UNL     1      53.655  44.883  69.871  1.00  0.00     0.024 C 
HETATM   22  C16 UNL     1      54.593  43.706  70.017  1.00  0.00     0.184 C 
HETATM   23  C18 UNL     1      52.381  44.171  69.438  1.00  0.00     0.092 C 
HETATM   24  O3  UNL     1      54.305  42.899  68.908  1.00  0.00    -0.321 OA
HETATM   25  C17 UNL     1      52.953  43.059  68.627  1.00  0.00     0.263 C 
HETATM   26  O4  UNL     1      52.272  42.381  67.808  1.00  0.00    -0.265 OA
HETATM   27  C19 UNL     1      51.663  45.191  68.589  1.00  0.00     0.023 C 
ENDBRANCH  18  19
ENDBRANCH   4  17
BRANCH   1  28
HETATM   28  C6  UNL     1      49.167  45.232  62.322  1.00  0.00    -0.025 C 
HETATM   29  C5  UNL     1      48.164  45.308  63.185  1.00  0.00    -0.030 C 
BRANCH  29  30
HETATM   30  C4  UNL     1      46.771  45.033  62.919  1.00  0.00     0.037 C 
BRANCH  30  31
HETATM   31  C3  UNL     1      46.116  46.236  62.259  1.00  0.00     0.115 C 
BRANCH  31  32
HETATM   32  C2  UNL     1      45.415  45.823  61.011  1.00  0.00     0.258 C 
HETATM   33  O2  UNL     1      44.261  46.171  60.743  1.00  0.00    -0.265 OA
BRANCH  32  34
HETATM   34  O1  UNL     1      46.128  45.004  60.130  1.00  0.00    -0.326 OA
HETATM   35  C1  UNL     1      47.261  45.530  59.427  1.00  0.00     0.213 C 
ENDBRANCH  32  34
ENDBRANCH  31  32
ENDBRANCH  30  31
ENDBRANCH  29  30
ENDBRANCH   1  28
BRANCH  10  36
HETATM   36  O5  UNL     1      50.440  42.684  63.029  1.00  0.00    -0.388 OA
ATOM     37  H5  UNL     1      49.854  42.701  62.281  1.00  0.00     0.210 HD
ENDBRANCH  10  36
BRANCH  13  38
HETATM   38  O6  UNL     1      51.286  45.641  60.002  1.00  0.00    -0.394 OA
ATOM     39  H6  UNL     1      52.035  45.820  59.446  1.00  0.00     0.210 HD
ENDBRANCH  13  38
TORSDOF 9
ENDMDL
MODEL 3
REMARK VINA RESULT: -8.429349388      1.226      1.442
REMARK  9 active torsions:
REMARK  status: ('A' for Active; 'I' for Inactive)
REMARK    1  A    between atoms: O1_2  and  C2_3 
REMARK    2  A    between atoms: C2_3  and  C3_5 
REMARK    3  A    between atoms: C3_5  and  C4_6 
REMARK    4  A    between atoms: C4_6  and  C5_7 
REMARK    5  A    between atoms: C6_8  and  C7_9 
REMARK    6  A    between atoms: C10_12  and  C11_13 
REMARK    7  A    between atoms: C12_14  and  C13_15 
REMARK    8  A    between atoms: C25_29  and  O5_30 
REMARK    9  A    between atoms: C28_34  and  O6_35 
ROOT
HETATM    1  C7  UNL     1      50.564  45.723  63.146  1.00  0.00     0.029 C 
HETATM    2  C8  UNL     1      50.968  46.117  64.555  1.00  0.00     0.010 C 
HETATM    3  C9  UNL     1      52.062  47.102  64.457  1.00  0.00     0.010 C 
HETATM    4  C10 UNL     1      53.464  46.607  64.513  1.00  0.00     0.019 C 
HETATM    5  C20 UNL     1      53.873  45.618  63.470  1.00  0.00     0.064 C 
HETATM    6  C21 UNL     1      54.503  44.352  64.003  1.00  0.00     0.013 C 
HETATM    7  C22 UNL     1      53.924  43.126  63.275  1.00  0.00     0.008 C 
HETATM    8  C23 UNL     1      52.585  42.904  63.905  1.00  0.00     0.017 C 
HETATM    9  C24 UNL     1      52.381  41.400  64.151  1.00  0.00     0.013 C 
HETATM   10  C25 UNL     1      51.443  43.325  63.006  1.00  0.00     0.079 C 
HETATM   11  C26 UNL     1      51.576  42.424  61.763  1.00  0.00     0.042 C 
HETATM   12  C27 UNL     1      51.616  43.372  60.573  1.00  0.00     0.036 C 
HETATM   13  C28 UNL     1      50.899  44.543  61.117  1.00  0.00     0.138 C 
HETATM   14  C29 UNL     1      51.462  44.708  62.538  1.00  0.00     0.085 C 
HETATM   15  C30 UNL     1      52.815  45.328  62.464  1.00  0.00     0.146 C 
HETATM   16  O7  UNL     1      53.098  45.663  61.334  1.00  0.00    -0.296 OA
ENDROOT
BRANCH   4  17
HETATM   17  C11 UNL     1      53.783  46.226  65.915  1.00  0.00    -0.025 C 
HETATM   18  C12 UNL     1      53.452  46.982  66.945  1.00  0.00    -0.026 C 
BRANCH  18  19
HETATM   19  C13 UNL     1      53.726  46.688  68.347  1.00  0.00     0.009 C 
HETATM   20  C14 UNL     1      54.853  45.719  68.509  1.00  0.00     0.016 C 
HETATM   21  C15 UNL     1      54.567  45.101  69.856  1.00  0.00     0.024 C 
HETATM   22  C16 UNL     1      55.112  43.693  69.949  1.00  0.00     0.184 C 
HETATM   23  C18 UNL     1      53.075  44.815  69.760  1.00  0.00     0.092 C 
HETATM   24  O3  UNL     1      54.357  42.971  69.015  1.00  0.00    -0.321 OA
HETATM   25  C17 UNL     1      53.090  43.543  68.984  1.00  0.00     0.263 C 
HETATM   26  O4  UNL     1      52.074  43.082  68.394  1.00  0.00    -0.265 OA
HETATM   27  C19 UNL     1      52.532  45.972  68.957  1.00  0.00     0.023 C 
ENDBRANCH  18  19
ENDBRANCH   4  17
BRANCH   1  28
HETATM   28  C6  UNL     1      49.117  45.519  63.002  1.00  0.00    -0.025 C 
HETATM   29  C5  UNL     1      48.234  45.952  63.890  1.00  0.00    -0.030 C 
BRANCH  29  30
HETATM   30  C4  UNL     1      46.799  45.794  63.829  1.00  0.00     0.037 C 
BRANCH  30  31
HETATM   31  C3  UNL     1      46.148  46.459  65.032  1.00  0.00     0.115 C 
BRANCH  31  32
HETATM   32  C2  UNL     1      44.682  46.194  65.038  1.00  0.00     0.258 C 
HETATM   33  O2  UNL     1      43.946  46.511  65.977  1.00  0.00    -0.265 OA
BRANCH  32  34
HETATM   34  O1  UNL     1      44.153  45.556  63.911  1.00  0.00    -0.326 OA
HETATM   35  C1  UNL     1      42.804  45.824  63.508  1.00  0.00     0.213 C 
ENDBRANCH  32  34
ENDBRANCH  31  32
ENDBRANCH  30  31
ENDBRANCH  29  30
ENDBRANCH   1  28
BRANCH  10  36
HETATM   36  O5  UNL     1      50.298  42.909  63.642  1.00  0.00    -0.388 OA
ATOM     37  H5  UNL     1      50.557  42.711  64.534  1.00  0.00     0.210 HD
ENDBRANCH  10  36
BRANCH  13  38
HETATM   38  O6  UNL     1      50.902  45.680  60.389  1.00  0.00    -0.394 OA
ATOM     39  H6  UNL     1      50.067  46.100  60.218  1.00  0.00     0.210 HD
ENDBRANCH  13  38
TORSDOF 9
ENDMDL
MODEL 4
REMARK VINA RESULT: -8.385081712      2.995      6.640
REMARK  9 active torsions:
REMARK  status: ('A' for Active; 'I' for Inactive)
REMARK    1  A    between atoms: O1_2  and  C2_3 
REMARK    2  A    between atoms: C2_3  and  C3_5 
REMARK    3  A    between atoms: C3_5  and  C4_6 
REMARK    4  A    between atoms: C4_6  and  C5_7 
REMARK    5  A    between atoms: C6_8  and  C7_9 
REMARK    6  A    between atoms: C10_12  and  C11_13 
REMARK    7  A    between atoms: C12_14  and  C13_15 
REMARK    8  A    between atoms: C25_29  and  O5_30 
REMARK    9  A    between atoms: C28_34  and  O6_35 
ROOT
HETATM    1  C7  UNL     1      51.706  42.860  64.229  1.00  0.00     0.029 C 
HETATM    2  C8  UNL     1      50.748  44.017  64.454  1.00  0.00     0.010 C 
HETATM    3  C9  UNL     1      49.621  43.865  63.513  1.00  0.00     0.010 C 
HETATM    4  C10 UNL     1      49.694  44.570  62.205  1.00  0.00     0.019 C 
HETATM    5  C20 UNL     1      50.853  44.236  61.323  1.00  0.00     0.064 C 
HETATM    6  C21 UNL     1      51.645  45.426  60.831  1.00  0.00     0.013 C 
HETATM    7  C22 UNL     1      53.153  45.144  60.951  1.00  0.00     0.008 C 
HETATM    8  C23 UNL     1      53.465  45.345  62.401  1.00  0.00     0.017 C 
HETATM    9  C24 UNL     1      54.782  46.125  62.535  1.00  0.00     0.013 C 
HETATM   10  C25 UNL     1      53.693  44.039  63.133  1.00  0.00     0.079 C 
HETATM   11  C26 UNL     1      54.913  43.410  62.432  1.00  0.00     0.042 C 
HETATM   12  C27 UNL     1      54.473  42.013  62.021  1.00  0.00     0.036 C 
HETATM   13  C28 UNL     1      53.405  41.749  63.007  1.00  0.00     0.138 C 
HETATM   14  C29 UNL     1      52.610  43.062  63.069  1.00  0.00     0.085 C 
HETATM   15  C30 UNL     1      51.738  43.168  61.864  1.00  0.00     0.146 C 
HETATM   16  O7  UNL     1      51.768  42.159  61.194  1.00  0.00    -0.296 OA
ENDROOT
BRANCH   4  17
HETATM   17  C11 UNL     1      49.459  46.022  62.428  1.00  0.00    -0.025 C 
HETATM   18  C12 UNL     1      49.034  46.498  63.583  1.00  0.00    -0.026 C 
BRANCH  18  19
HETATM   19  C13 UNL     1      48.775  47.901  63.888  1.00  0.00     0.009 C 
HETATM   20  C14 UNL     1      50.014  48.733  63.806  1.00  0.00     0.016 C 
HETATM   21  C15 UNL     1      49.692  49.897  64.711  1.00  0.00     0.024 C 
HETATM   22  C16 UNL     1      50.944  50.490  65.320  1.00  0.00     0.184 C 
HETATM   23  C18 UNL     1      49.099  49.195  65.924  1.00  0.00     0.092 C 
HETATM   24  O3  UNL     1      51.439  49.471  66.145  1.00  0.00    -0.321 OA
HETATM   25  C17 UNL     1      50.342  48.766  66.626  1.00  0.00     0.263 C 
HETATM   26  O4  UNL     1      50.355  47.881  67.527  1.00  0.00    -0.265 OA
HETATM   27  C19 UNL     1      48.338  48.031  65.338  1.00  0.00     0.023 C 
ENDBRANCH  18  19
ENDBRANCH   4  17
BRANCH   1  28
HETATM   28  C6  UNL     1      52.303  42.364  65.474  1.00  0.00    -0.025 C 
HETATM   29  C5  UNL     1      52.020  42.870  66.666  1.00  0.00    -0.030 C 
BRANCH  29  30
HETATM   30  C4  UNL     1      52.561  42.446  67.936  1.00  0.00     0.037 C 
BRANCH  30  31
HETATM   31  C3  UNL     1      52.875  43.655  68.802  1.00  0.00     0.115 C 
BRANCH  31  32
HETATM   32  C2  UNL     1      54.284  43.594  69.283  1.00  0.00     0.258 C 
HETATM   33  O2  UNL     1      54.615  43.011  70.320  1.00  0.00    -0.265 OA
BRANCH  32  34
HETATM   34  O1  UNL     1      55.246  44.239  68.499  1.00  0.00    -0.326 OA
HETATM   35  C1  UNL     1      54.882  45.395  67.733  1.00  0.00     0.213 C 
ENDBRANCH  32  34
ENDBRANCH  31  32
ENDBRANCH  30  31
ENDBRANCH  29  30
ENDBRANCH   1  28
BRANCH  10  36
HETATM   36  O5  UNL     1      54.129  44.389  64.388  1.00  0.00    -0.388 OA
ATOM     37  H5  UNL     1      53.593  45.129  64.649  1.00  0.00     0.210 HD
ENDBRANCH  10  36
BRANCH  13  38
HETATM   38  O6  UNL     1      52.640  40.650  62.831  1.00  0.00    -0.394 OA
ATOM     39  H6  UNL     1      51.704  40.734  62.967  1.00  0.00     0.210 HD
ENDBRANCH  13  38
TORSDOF 9
ENDMDL
MODEL 5
REMARK VINA RESULT: -8.383969396      3.340      5.986
REMARK  9 active torsions:
REMARK  status: ('A' for Active; 'I' for Inactive)
REMARK    1  A    between atoms: O1_2  and  C2_3 
REMARK    2  A    between atoms: C2_3  and  C3_5 
REMARK    3  A    between atoms: C3_5  and  C4_6 
REMARK    4  A    between atoms: C4_6  and  C5_7 
REMARK    5  A    between atoms: C6_8  and  C7_9 
REMARK    6  A    between atoms: C10_12  and  C11_13 
REMARK    7  A    between atoms: C12_14  and  C13_15 
REMARK    8  A    between atoms: C25_29  and  O5_30 
REMARK    9  A    between atoms: C28_34  and  O6_35 
ROOT
HETATM    1  C7  UNL     1      49.303  46.853  64.803  1.00  0.00     0.029 C 
HETATM    2  C8  UNL     1      50.500  46.245  64.093  1.00  0.00     0.010 C 
HETATM    3  C9  UNL     1      51.141  45.288  65.015  1.00  0.00     0.010 C 
HETATM    4  C10 UNL     1      52.265  45.768  65.863  1.00  0.00     0.019 C 
HETATM    5  C20 UNL     1      51.974  46.907  66.786  1.00  0.00     0.064 C 
HETATM    6  C21 UNL     1      52.927  48.076  66.677  1.00  0.00     0.013 C 
HETATM    7  C22 UNL     1      52.142  49.399  66.677  1.00  0.00     0.008 C 
HETATM    8  C23 UNL     1      51.596  49.520  65.290  1.00  0.00     0.017 C 
HETATM    9  C24 UNL     1      51.765  50.968  64.801  1.00  0.00     0.013 C 
HETATM   10  C25 UNL     1      50.110  49.243  65.224  1.00  0.00     0.079 C 
HETATM   11  C26 UNL     1      49.473  50.326  66.117  1.00  0.00     0.042 C 
HETATM   12  C27 UNL     1      48.612  49.574  67.121  1.00  0.00     0.036 C 
HETATM   13  C28 UNL     1      48.323  48.332  66.374  1.00  0.00     0.138 C 
HETATM   14  C29 UNL     1      49.667  47.950  65.736  1.00  0.00     0.085 C 
HETATM   15  C30 UNL     1      50.553  47.349  66.774  1.00  0.00     0.146 C 
HETATM   16  O7  UNL     1      49.974  47.193  67.827  1.00  0.00    -0.296 OA
ENDROOT
BRANCH   4  17
HETATM   17  C11 UNL     1      53.473  45.928  65.011  1.00  0.00    -0.025 C 
HETATM   18  C12 UNL     1      54.197  44.899  64.613  1.00  0.00    -0.026 C 
BRANCH  18  19
HETATM   19  C13 UNL     1      55.395  44.964  63.782  1.00  0.00     0.009 C 
HETATM   20  C14 UNL     1      56.630  45.194  64.592  1.00  0.00     0.016 C 
HETATM   21  C15 UNL     1      57.567  45.829  63.594  1.00  0.00     0.024 C 
HETATM   22  C16 UNL     1      58.567  46.739  64.272  1.00  0.00     0.184 C 
HETATM   23  C18 UNL     1      56.664  46.857  62.927  1.00  0.00     0.092 C 
HETATM   24  O3  UNL     1      57.785  47.777  64.797  1.00  0.00    -0.321 OA
HETATM   25  C17 UNL     1      56.710  47.955  63.934  1.00  0.00     0.263 C 
HETATM   26  O4  UNL     1      55.871  48.898  63.966  1.00  0.00    -0.265 OA
HETATM   27  C19 UNL     1      55.317  46.181  62.875  1.00  0.00     0.023 C 
ENDBRANCH  18  19
ENDBRANCH   4  17
BRANCH   1  28
HETATM   28  C6  UNL     1      48.161  47.076  63.909  1.00  0.00    -0.025 C 
HETATM   29  C5  UNL     1      47.474  46.089  63.353  1.00  0.00    -0.030 C 
BRANCH  29  30
HETATM   30  C4  UNL     1      46.343  46.217  62.464  1.00  0.00     0.037 C 
BRANCH  30  31
HETATM   31  C3  UNL     1      45.172  45.399  62.984  1.00  0.00     0.115 C 
BRANCH  31  32
HETATM   32  C2  UNL     1      43.899  45.866  62.365  1.00  0.00     0.258 C 
HETATM   33  O2  UNL     1      42.854  46.010  63.006  1.00  0.00    -0.265 OA
BRANCH  32  34
HETATM   34  O1  UNL     1      43.930  46.141  60.994  1.00  0.00    -0.326 OA
HETATM   35  C1  UNL     1      43.350  47.354  60.498  1.00  0.00     0.213 C 
ENDBRANCH  32  34
ENDBRANCH  31  32
ENDBRANCH  30  31
ENDBRANCH  29  30
ENDBRANCH   1  28
BRANCH  10  36
HETATM   36  O5  UNL     1      49.731  49.556  63.940  1.00  0.00    -0.388 OA
ATOM     37  H5  UNL     1      49.514  50.481  63.955  1.00  0.00     0.210 HD
ENDBRANCH  10  36
BRANCH  13  38
HETATM   38  O6  UNL     1      47.721  47.321  67.037  1.00  0.00    -0.394 OA
ATOM     39  H6  UNL     1      47.205  46.704  66.532  1.00  0.00     0.210 HD
ENDBRANCH  13  38
TORSDOF 9
ENDMDL
