MODEL 1
REMARK VINA RESULT: -6.149443557      0.000      0.000
REMARK  8 active torsions:
REMARK  status: ('A' for Active; 'I' for Inactive)
REMARK    1  A    between atoms: C2_2  and  N1_3 
REMARK    2  A    between atoms: C2_2  and  C3_7 
REMARK    3  A    between atoms: C4_8  and  C5_9 
REMARK    4  A    between atoms: C5_9  and  C6_10 
REMARK    5  A    between atoms: C6_10  and  C7_12 
REMARK    6  A    between atoms: N2_13  and  N3_15 
REMARK    7  A    between atoms: N6_24  and  C9_25 
REMARK    8  A    between atoms: C9_25  and  C10_26 
ROOT
HETATM    1  C3  UNL     1      -0.937  17.964  19.570  1.00  0.00     0.160 C 
HETATM    2  C4  UNL     1      -0.626  16.778  18.742  1.00  0.00     0.132 C 
HETATM    3  N4  UNL     1       0.728  16.519  19.120  1.00  0.00    -0.219 N 
ATOM      4  H4  UNL     1       1.184  15.620  19.274  1.00  0.00     0.178 HD
HETATM    5  C8  UNL     1       1.298  17.862  19.230  1.00  0.00     0.674 C 
HETATM    6  N5  UNL     1       2.565  18.045  19.361  1.00  0.00    -0.235 N 
ATOM      7  H51 UNL     1       2.963  18.981  19.438  1.00  0.00     0.174 HD
ATOM      8  H52 UNL     1       3.336  17.379  19.414  1.00  0.00     0.174 HD
HETATM    9  N6  UNL     1       0.241  18.776  19.157  1.00  0.00    -0.188 N 
ENDROOT
BRANCH   2  10
HETATM   10  C5  UNL     1      -1.507  15.623  18.689  1.00  0.00     0.112 C 
BRANCH  10  11
HETATM   11  C6  UNL     1      -0.914  14.432  18.035  1.00  0.00     0.168 C 
HETATM   12  O1  UNL     1       0.047  13.792  18.483  1.00  0.00    -0.292 OA
BRANCH  11  13
HETATM   13  C7  UNL     1      -1.514  13.997  16.782  1.00  0.00     0.156 C 
HETATM   14  N2  UNL     1      -1.284  12.851  16.250  1.00  0.00    -0.315 N 
ATOM     15  H2  UNL     1      -0.654  12.190  16.704  1.00  0.00     0.185 HD
BRANCH  14  16
HETATM   16  N3  UNL     1      -1.903  12.518  15.045  1.00  0.00    -0.345 N 
ATOM     17  H32 UNL     1      -2.911  12.643  14.950  1.00  0.00     0.176 HD
ATOM     18  H31 UNL     1      -1.340  12.156  14.276  1.00  0.00     0.176 HD
ENDBRANCH  14  16
ENDBRANCH  11  13
ENDBRANCH  10  11
ENDBRANCH   2  10
BRANCH   1  19
HETATM   19  C2  UNL     1      -0.802  17.814  21.040  1.00  0.00     0.205 C 
HETATM   20  C1  UNL     1      -1.269  19.135  21.670  1.00  0.00     0.042 C 
BRANCH  19  21
HETATM   21  N1  UNL     1      -1.550  16.775  21.647  1.00  0.00    -0.073 N 
ATOM     22  H13 UNL     1      -1.283  16.604  22.616  1.00  0.00     0.274 HD
ATOM     23  H12 UNL     1      -2.521  17.031  21.822  1.00  0.00     0.274 HD
ATOM     24  H11 UNL     1      -1.454  15.951  21.053  1.00  0.00     0.274 HD
ENDBRANCH  19  21
ENDBRANCH   1  19
BRANCH   9  25
HETATM   25  C9  UNL     1       0.140  20.114  18.766  1.00  0.00     0.091 C 
BRANCH  25  26
HETATM   26  C10 UNL     1       0.514  20.584  17.419  1.00  0.00    -0.018 C 
HETATM   27  C11 UNL     1       1.944  21.021  17.332  1.00  0.00     0.020 C 
HETATM   28  C12 UNL     1      -0.327  21.846  17.080  1.00  0.00     0.020 C 
HETATM   29  C13 UNL     1       0.212  19.590  16.320  1.00  0.00     0.020 C 
ENDBRANCH  25  26
ENDBRANCH   9  25
TORSDOF 8
ENDMDL
MODEL 2
REMARK VINA RESULT: -5.866973490      1.083      1.098
REMARK  8 active torsions:
REMARK  status: ('A' for Active; 'I' for Inactive)
REMARK    1  A    between atoms: C2_2  and  N1_3 
REMARK    2  A    between atoms: C2_2  and  C3_7 
REMARK    3  A    between atoms: C4_8  and  C5_9 
REMARK    4  A    between atoms: C5_9  and  C6_10 
REMARK    5  A    between atoms: C6_10  and  C7_12 
REMARK    6  A    between atoms: N2_13  and  N3_15 
REMARK    7  A    between atoms: N6_24  and  C9_25 
REMARK    8  A    between atoms: C9_25  and  C10_26 
ROOT
HETATM    1  C3  UNL     1      -0.752  18.086  19.255  1.00  0.00     0.160 C 
HETATM    2  C4  UNL     1      -0.391  16.840  18.544  1.00  0.00     0.132 C 
HETATM    3  N4  UNL     1       0.911  16.582  19.075  1.00  0.00    -0.219 N 
ATOM      4  H4  UNL     1       1.325  15.686  19.336  1.00  0.00     0.178 HD
HETATM    5  C8  UNL     1       1.502  17.918  19.154  1.00  0.00     0.674 C 
HETATM    6  N5  UNL     1       2.754  18.085  19.401  1.00  0.00    -0.235 N 
ATOM      7  H51 UNL     1       3.166  19.016  19.456  1.00  0.00     0.174 HD
ATOM      8  H52 UNL     1       3.497  17.409  19.578  1.00  0.00     0.174 HD
HETATM    9  N6  UNL     1       0.482  18.844  18.911  1.00  0.00    -0.188 N 
ENDROOT
BRANCH   2  10
HETATM   10  C5  UNL     1      -1.292  15.701  18.478  1.00  0.00     0.112 C 
BRANCH  10  11
HETATM   11  C6  UNL     1      -1.812  15.410  17.121  1.00  0.00     0.168 C 
HETATM   12  O1  UNL     1      -2.404  16.232  16.406  1.00  0.00    -0.292 OA
BRANCH  11  13
HETATM   13  C7  UNL     1      -1.605  14.065  16.606  1.00  0.00     0.156 C 
HETATM   14  N2  UNL     1      -2.101  13.650  15.496  1.00  0.00    -0.315 N 
ATOM     15  H2  UNL     1      -2.673  14.270  14.925  1.00  0.00     0.185 HD
BRANCH  14  16
HETATM   16  N3  UNL     1      -1.851  12.342  15.081  1.00  0.00    -0.345 N 
ATOM     17  H32 UNL     1      -1.114  12.167  14.398  1.00  0.00     0.176 HD
ATOM     18  H31 UNL     1      -2.407  11.579  15.466  1.00  0.00     0.176 HD
ENDBRANCH  14  16
ENDBRANCH  11  13
ENDBRANCH  10  11
ENDBRANCH   2  10
BRANCH   1  19
HETATM   19  C2  UNL     1      -0.771  18.036  20.737  1.00  0.00     0.205 C 
HETATM   20  C1  UNL     1      -1.389  19.356  21.222  1.00  0.00     0.042 C 
BRANCH  19  21
HETATM   21  N1  UNL     1      -1.513  16.985  21.331  1.00  0.00    -0.073 N 
ATOM     22  H13 UNL     1      -1.890  16.327  20.649  1.00  0.00     0.274 HD
ATOM     23  H12 UNL     1      -0.930  16.323  21.842  1.00  0.00     0.274 HD
ATOM     24  H11 UNL     1      -2.231  17.417  21.911  1.00  0.00     0.274 HD
ENDBRANCH  19  21
ENDBRANCH   1  19
BRANCH   9  25
HETATM   25  C9  UNL     1       0.456  20.154  18.423  1.00  0.00     0.091 C 
BRANCH  25  26
HETATM   26  C10 UNL     1       1.055  20.537  17.131  1.00  0.00    -0.018 C 
HETATM   27  C11 UNL     1       2.480  20.979  17.258  1.00  0.00     0.020 C 
HETATM   28  C12 UNL     1       0.287  21.768  16.572  1.00  0.00     0.020 C 
HETATM   29  C13 UNL     1       0.940  19.472  16.064  1.00  0.00     0.020 C 
ENDBRANCH  25  26
ENDBRANCH   9  25
TORSDOF 8
ENDMDL
MODEL 3
REMARK VINA RESULT: -5.752661505      0.853      1.268
REMARK  8 active torsions:
REMARK  status: ('A' for Active; 'I' for Inactive)
REMARK    1  A    between atoms: C2_2  and  N1_3 
REMARK    2  A    between atoms: C2_2  and  C3_7 
REMARK    3  A    between atoms: C4_8  and  C5_9 
REMARK    4  A    between atoms: C5_9  and  C6_10 
REMARK    5  A    between atoms: C6_10  and  C7_12 
REMARK    6  A    between atoms: N2_13  and  N3_15 
REMARK    7  A    between atoms: N6_24  and  C9_25 
REMARK    8  A    between atoms: C9_25  and  C10_26 
ROOT
HETATM    1  C3  UNL     1      -0.901  18.049  19.485  1.00  0.00     0.160 C 
HETATM    2  C4  UNL     1      -0.632  16.824  18.699  1.00  0.00     0.132 C 
HETATM    3  N4  UNL     1       0.713  16.533  19.086  1.00  0.00    -0.219 N 
ATOM      4  H4  UNL     1       1.139  15.625  19.273  1.00  0.00     0.178 HD
HETATM    5  C8  UNL     1       1.329  17.860  19.149  1.00  0.00     0.674 C 
HETATM    6  N5  UNL     1       2.601  18.004  19.273  1.00  0.00    -0.235 N 
ATOM      7  H51 UNL     1       3.030  18.928  19.317  1.00  0.00     0.174 HD
ATOM      8  H52 UNL     1       3.349  17.315  19.350  1.00  0.00     0.174 HD
HETATM    9  N6  UNL     1       0.302  18.805  19.043  1.00  0.00    -0.188 N 
ENDROOT
BRANCH   2  10
HETATM   10  C5  UNL     1      -1.551  15.698  18.688  1.00  0.00     0.112 C 
BRANCH  10  11
HETATM   11  C6  UNL     1      -0.991  14.458  18.101  1.00  0.00     0.168 C 
HETATM   12  O1  UNL     1      -0.095  13.779  18.622  1.00  0.00    -0.292 OA
BRANCH  11  13
HETATM   13  C7  UNL     1      -1.540  14.021  16.826  1.00  0.00     0.156 C 
HETATM   14  N2  UNL     1      -1.329  12.856  16.328  1.00  0.00    -0.315 N 
ATOM     15  H2  UNL     1      -0.752  12.180  16.828  1.00  0.00     0.185 HD
BRANCH  14  16
HETATM   16  N3  UNL     1      -1.897  12.523  15.098  1.00  0.00    -0.345 N 
ATOM     17  H32 UNL     1      -1.443  12.832  14.239  1.00  0.00     0.176 HD
ATOM     18  H31 UNL     1      -2.757  11.976  15.076  1.00  0.00     0.176 HD
ENDBRANCH  14  16
ENDBRANCH  11  13
ENDBRANCH  10  11
ENDBRANCH   2  10
BRANCH   1  19
HETATM   19  C2  UNL     1      -0.770  17.947  20.959  1.00  0.00     0.205 C 
HETATM   20  C1  UNL     1      -1.407  19.212  21.554  1.00  0.00     0.042 C 
BRANCH  19  21
HETATM   21  N1  UNL     1      -1.391  16.836  21.580  1.00  0.00    -0.073 N 
ATOM     22  H13 UNL     1      -1.914  16.253  20.926  1.00  0.00     0.274 HD
ATOM     23  H12 UNL     1      -0.727  16.125  21.886  1.00  0.00     0.274 HD
ATOM     24  H11 UNL     1      -1.967  17.200  22.339  1.00  0.00     0.274 HD
ENDBRANCH  19  21
ENDBRANCH   1  19
BRANCH   9  25
HETATM   25  C9  UNL     1       0.246  20.131  18.604  1.00  0.00     0.091 C 
BRANCH  25  26
HETATM   26  C10 UNL     1       1.112  21.192  19.151  1.00  0.00    -0.018 C 
HETATM   27  C11 UNL     1       1.388  21.022  20.613  1.00  0.00     0.020 C 
HETATM   28  C12 UNL     1       0.373  22.553  19.023  1.00  0.00     0.020 C 
HETATM   29  C13 UNL     1       2.413  21.367  18.400  1.00  0.00     0.020 C 
ENDBRANCH  25  26
ENDBRANCH   9  25
TORSDOF 8
ENDMDL
MODEL 4
REMARK VINA RESULT: -5.309765511      1.940      3.287
REMARK  8 active torsions:
REMARK  status: ('A' for Active; 'I' for Inactive)
REMARK    1  A    between atoms: C2_2  and  N1_3 
REMARK    2  A    between atoms: C2_2  and  C3_7 
REMARK    3  A    between atoms: C4_8  and  C5_9 
REMARK    4  A    between atoms: C5_9  and  C6_10 
REMARK    5  A    between atoms: C6_10  and  C7_12 
REMARK    6  A    between atoms: N2_13  and  N3_15 
REMARK    7  A    between atoms: N6_24  and  C9_25 
REMARK    8  A    between atoms: C9_25  and  C10_26 
ROOT
HETATM    1  C3  UNL     1       0.853  17.993  18.020  1.00  0.00     0.160 C 
HETATM    2  C4  UNL     1      -0.030  16.868  18.400  1.00  0.00     0.132 C 
HETATM    3  N4  UNL     1      -0.999  17.535  19.212  1.00  0.00    -0.219 N 
ATOM      4  H4  UNL     1      -2.006  17.379  19.256  1.00  0.00     0.178 HD
HETATM    5  C8  UNL     1      -0.190  18.494  19.965  1.00  0.00     0.674 C 
HETATM    6  N5  UNL     1      -0.678  19.151  20.957  1.00  0.00    -0.235 N 
ATOM      7  H51 UNL     1      -0.114  19.820  21.481  1.00  0.00     0.174 HD
ATOM      8  H52 UNL     1      -1.612  19.147  21.369  1.00  0.00     0.174 HD
HETATM    9  N6  UNL     1       1.090  18.499  19.399  1.00  0.00    -0.188 N 
ENDROOT
BRANCH   2  10
HETATM   10  C5  UNL     1      -0.553  15.933  17.417  1.00  0.00     0.112 C 
BRANCH  10  11
HETATM   11  C6  UNL     1      -1.030  14.650  17.987  1.00  0.00     0.168 C 
HETATM   12  O1  UNL     1      -1.334  14.482  19.177  1.00  0.00    -0.292 OA
BRANCH  11  13
HETATM   13  C7  UNL     1      -1.142  13.521  17.076  1.00  0.00     0.156 C 
HETATM   14  N2  UNL     1      -1.745  13.587  15.943  1.00  0.00    -0.315 N 
ATOM     15  H2  UNL     1      -2.176  14.459  15.639  1.00  0.00     0.185 HD
BRANCH  14  16
HETATM   16  N3  UNL     1      -1.804  12.453  15.133  1.00  0.00    -0.345 N 
ATOM     17  H32 UNL     1      -2.701  11.993  14.980  1.00  0.00     0.176 HD
ATOM     18  H31 UNL     1      -0.949  12.099  14.704  1.00  0.00     0.176 HD
ENDBRANCH  14  16
ENDBRANCH  11  13
ENDBRANCH  10  11
ENDBRANCH   2  10
BRANCH   1  19
HETATM   19  C2  UNL     1       0.226  19.128  17.298  1.00  0.00     0.205 C 
HETATM   20  C1  UNL     1       1.367  19.947  16.676  1.00  0.00     0.042 C 
BRANCH  19  21
HETATM   21  N1  UNL     1      -0.671  18.800  16.251  1.00  0.00    -0.073 N 
ATOM     22  H13 UNL     1      -1.560  19.296  16.316  1.00  0.00     0.274 HD
ATOM     23  H12 UNL     1      -0.381  19.170  15.346  1.00  0.00     0.274 HD
ATOM     24  H11 UNL     1      -0.777  17.786  16.254  1.00  0.00     0.274 HD
ENDBRANCH  19  21
ENDBRANCH   1  19
BRANCH   9  25
HETATM   25  C9  UNL     1       2.363  18.814  19.883  1.00  0.00     0.091 C 
BRANCH  25  26
HETATM   26  C10 UNL     1       2.703  20.138  20.436  1.00  0.00    -0.018 C 
HETATM   27  C11 UNL     1       2.018  21.261  19.721  1.00  0.00     0.020 C 
HETATM   28  C12 UNL     1       4.225  20.385  20.235  1.00  0.00     0.020 C 
HETATM   29  C13 UNL     1       2.468  20.257  21.925  1.00  0.00     0.020 C 
ENDBRANCH  25  26
ENDBRANCH   9  25
TORSDOF 8
ENDMDL
MODEL 5
REMARK VINA RESULT: -5.075543635      5.581      8.029
REMARK  8 active torsions:
REMARK  status: ('A' for Active; 'I' for Inactive)
REMARK    1  A    between atoms: C2_2  and  N1_3 
REMARK    2  A    between atoms: C2_2  and  C3_7 
REMARK    3  A    between atoms: C4_8  and  C5_9 
REMARK    4  A    between atoms: C5_9  and  C6_10 
REMARK    5  A    between atoms: C6_10  and  C7_12 
REMARK    6  A    between atoms: N2_13  and  N3_15 
REMARK    7  A    between atoms: N6_24  and  C9_25 
REMARK    8  A    between atoms: C9_25  and  C10_26 
ROOT
HETATM    1  C3  UNL     1       4.095  20.990  16.329  1.00  0.00     0.160 C 
HETATM    2  C4  UNL     1       4.256  20.815  14.868  1.00  0.00     0.132 C 
HETATM    3  N4  UNL     1       4.062  22.154  14.403  1.00  0.00    -0.219 N 
ATOM      4  H4  UNL     1       4.556  22.646  13.659  1.00  0.00     0.178 HD
HETATM    5  C8  UNL     1       2.979  22.642  15.257  1.00  0.00     0.674 C 
HETATM    6  N5  UNL     1       2.379  23.753  15.012  1.00  0.00    -0.235 N 
ATOM      7  H51 UNL     1       1.624  24.094  15.607  1.00  0.00     0.174 HD
ATOM      8  H52 UNL     1       2.519  24.440  14.271  1.00  0.00     0.174 HD
HETATM    9  N6  UNL     1       2.788  21.699  16.274  1.00  0.00    -0.188 N 
ENDROOT
BRANCH   2  10
HETATM   10  C5  UNL     1       5.384  20.098  14.297  1.00  0.00     0.112 C 
BRANCH  10  11
HETATM   11  C6  UNL     1       5.644  20.404  12.870  1.00  0.00     0.168 C 
HETATM   12  O1  UNL     1       4.762  20.639  12.032  1.00  0.00    -0.292 OA
BRANCH  11  13
HETATM   13  C7  UNL     1       7.035  20.426  12.440  1.00  0.00     0.156 C 
HETATM   14  N2  UNL     1       7.773  19.376  12.387  1.00  0.00    -0.315 N 
ATOM     15  H2  UNL     1       7.396  18.467  12.654  1.00  0.00     0.185 HD
BRANCH  14  16
HETATM   16  N3  UNL     1       9.097  19.491  11.962  1.00  0.00    -0.345 N 
ATOM     17  H32 UNL     1       9.848  19.451  12.650  1.00  0.00     0.176 HD
ATOM     18  H31 UNL     1       9.294  19.613  10.969  1.00  0.00     0.176 HD
ENDBRANCH  14  16
ENDBRANCH  11  13
ENDBRANCH  10  11
ENDBRANCH   2  10
BRANCH   1  19
HETATM   19  C2  UNL     1       5.018  21.938  17.000  1.00  0.00     0.205 C 
HETATM   20  C1  UNL     1       4.633  21.959  18.487  1.00  0.00     0.042 C 
BRANCH  19  21
HETATM   21  N1  UNL     1       6.401  21.640  16.931  1.00  0.00    -0.073 N 
ATOM     22  H13 UNL     1       6.972  22.446  16.677  1.00  0.00     0.274 HD
ATOM     23  H12 UNL     1       6.819  21.467  17.845  1.00  0.00     0.274 HD
ATOM     24  H11 UNL     1       6.506  20.856  16.287  1.00  0.00     0.274 HD
ENDBRANCH  19  21
ENDBRANCH   1  19
BRANCH   9  25
HETATM   25  C9  UNL     1       1.702  21.351  17.082  1.00  0.00     0.091 C 
BRANCH  25  26
HETATM   26  C10 UNL     1       1.161  19.981  17.148  1.00  0.00    -0.018 C 
HETATM   27  C11 UNL     1       1.066  19.327  15.804  1.00  0.00     0.020 C 
HETATM   28  C12 UNL     1      -0.298  20.046  17.681  1.00  0.00     0.020 C 
HETATM   29  C13 UNL     1       1.902  19.077  18.108  1.00  0.00     0.020 C 
ENDBRANCH  25  26
ENDBRANCH   9  25
TORSDOF 8
ENDMDL
