MODEL 1
REMARK VINA RESULT: -5.638341142      0.000      0.000
REMARK  7 active torsions:
REMARK  status: ('A' for Active; 'I' for Inactive)
REMARK    1  A    between atoms: C2_2  and  N1_4 
REMARK    2  A    between atoms: C2_2  and  C4_8 
REMARK    3  A    between atoms: C4_8  and  N2_9 
REMARK    4  A    between atoms: N2_9  and  C7_12 
REMARK    5  A    between atoms: C7_12  and  C8_13 
REMARK    6  A    between atoms: C8_13  and  N3_14 
REMARK       I    between atoms: N3_14  and  C9_16 
REMARK       I    between atoms: C9_16  and  N5_20 
REMARK    7  A    between atoms: N5_20  and  C10_22 
ROOT
HETATM    1  N3  UNL     1       0.183  18.556  19.640  1.00  0.00    -0.225 N 
ATOM      2  H3  UNL     1       0.298  19.553  19.457  1.00  0.00     0.177 HD
HETATM    3  C9  UNL     1       0.097  17.657  18.541  1.00  0.00     0.669 C 
HETATM    4  N4  UNL     1       0.285  18.072  17.360  1.00  0.00    -0.235 N 
ATOM      5  H41 UNL     1       0.223  17.428  16.572  1.00  0.00     0.174 HD
ATOM      6  H42 UNL     1       0.490  19.056  17.187  1.00  0.00     0.174 HD
HETATM    7  N5  UNL     1      -0.187  16.296  18.781  1.00  0.00    -0.197 N 
ATOM      8  H5  UNL     1       0.513  15.736  19.268  1.00  0.00     0.180 HD
ENDROOT
BRANCH   1   9
HETATM    9  C8  UNL     1       0.114  18.100  21.001  1.00  0.00     0.166 C 
BRANCH   9  10
HETATM   10  C7  UNL     1      -0.550  18.967  21.972  1.00  0.00     0.256 C 
BRANCH  10  11
HETATM   11  N2  UNL     1      -1.333  18.432  23.037  1.00  0.00    -0.071 N 
HETATM   12  C5  UNL     1      -2.508  19.297  23.090  1.00  0.00     0.272 C 
HETATM   13  C6  UNL     1      -1.788  17.091  22.682  1.00  0.00     0.272 C 
BRANCH  11  14
HETATM   14  C4  UNL     1      -0.534  18.414  24.207  1.00  0.00     0.274 C 
BRANCH  14  15
HETATM   15  C2  UNL     1      -1.083  18.549  25.548  1.00  0.00     0.140 C 
HETATM   16  C1  UNL     1       0.043  18.101  26.515  1.00  0.00     0.047 C 
HETATM   17  C3  UNL     1      -1.371  19.978  25.987  1.00  0.00     0.047 C 
BRANCH  15  18
HETATM   18  N1  UNL     1      -2.208  17.726  25.880  1.00  0.00    -0.070 N 
ATOM     19  H13 UNL     1      -2.210  17.401  26.847  1.00  0.00     0.275 HD
ATOM     20  H12 UNL     1      -3.092  18.232  25.924  1.00  0.00     0.275 HD
ATOM     21  H11 UNL     1      -2.196  16.973  25.192  1.00  0.00     0.275 HD
ENDBRANCH  15  18
ENDBRANCH  14  15
ENDBRANCH  11  14
ENDBRANCH  10  11
ENDBRANCH   9  10
ENDBRANCH   1   9
BRANCH   7  22
HETATM   22  C10 UNL     1      -1.410  15.655  18.376  1.00  0.00     0.304 C 
HETATM   23  N6  UNL     1      -1.413  14.293  18.893  1.00  0.00    -0.053 N 
HETATM   24  C11 UNL     1      -0.520  13.621  17.979  1.00  0.00     0.239 C 
ATOM     25  H62 UNL     1      -1.167  14.205  19.879  1.00  0.00     0.279 HD
ATOM     26  H61 UNL     1      -2.335  13.868  18.986  1.00  0.00     0.279 HD
HETATM   27  C12 UNL     1      -1.038  14.093  16.634  1.00  0.00     0.019 A 
HETATM   28  C13 UNL     1      -2.472  14.346  16.443  1.00  0.00     0.015 A 
HETATM   29  C14 UNL     1      -1.554  15.438  16.907  1.00  0.00     0.042 A 
ENDBRANCH   7  22
TORSDOF 7
ENDMDL
MODEL 2
REMARK VINA RESULT: -5.538900651      0.946      1.691
REMARK  7 active torsions:
REMARK  status: ('A' for Active; 'I' for Inactive)
REMARK    1  A    between atoms: C2_2  and  N1_4 
REMARK    2  A    between atoms: C2_2  and  C4_8 
REMARK    3  A    between atoms: C4_8  and  N2_9 
REMARK    4  A    between atoms: N2_9  and  C7_12 
REMARK    5  A    between atoms: C7_12  and  C8_13 
REMARK    6  A    between atoms: C8_13  and  N3_14 
REMARK       I    between atoms: N3_14  and  C9_16 
REMARK       I    between atoms: C9_16  and  N5_20 
REMARK    7  A    between atoms: N5_20  and  C10_22 
ROOT
HETATM    1  N3  UNL     1       0.207  18.569  19.646  1.00  0.00    -0.225 N 
ATOM      2  H3  UNL     1       0.321  19.567  19.469  1.00  0.00     0.177 HD
HETATM    3  C9  UNL     1       0.109  17.678  18.541  1.00  0.00     0.669 C 
HETATM    4  N4  UNL     1       0.287  18.103  17.362  1.00  0.00    -0.235 N 
ATOM      5  H41 UNL     1       0.216  17.464  16.569  1.00  0.00     0.174 HD
ATOM      6  H42 UNL     1       0.491  19.088  17.194  1.00  0.00     0.174 HD
HETATM    7  N5  UNL     1      -0.174  16.315  18.774  1.00  0.00    -0.197 N 
ATOM      8  H5  UNL     1       0.530  15.751  19.250  1.00  0.00     0.180 HD
ENDROOT
BRANCH   1   9
HETATM    9  C8  UNL     1       0.151  18.103  21.005  1.00  0.00     0.166 C 
BRANCH   9  10
HETATM   10  C7  UNL     1      -0.791  18.761  21.907  1.00  0.00     0.256 C 
BRANCH  10  11
HETATM   11  N2  UNL     1      -1.343  18.083  23.033  1.00  0.00    -0.071 N 
HETATM   12  C5  UNL     1      -1.784  16.797  22.500  1.00  0.00     0.272 C 
HETATM   13  C6  UNL     1      -0.289  17.818  24.008  1.00  0.00     0.272 C 
BRANCH  11  14
HETATM   14  C4  UNL     1      -2.363  18.898  23.584  1.00  0.00     0.274 C 
BRANCH  14  15
HETATM   15  C2  UNL     1      -3.314  18.421  24.577  1.00  0.00     0.140 C 
HETATM   16  C1  UNL     1      -3.554  19.613  25.540  1.00  0.00     0.047 C 
HETATM   17  C3  UNL     1      -4.706  18.118  24.043  1.00  0.00     0.047 C 
BRANCH  15  18
HETATM   18  N1  UNL     1      -2.894  17.342  25.419  1.00  0.00    -0.070 N 
ATOM     19  H13 UNL     1      -2.223  17.616  26.138  1.00  0.00     0.275 HD
ATOM     20  H12 UNL     1      -3.618  17.009  26.056  1.00  0.00     0.275 HD
ATOM     21  H11 UNL     1      -2.545  16.628  24.779  1.00  0.00     0.275 HD
ENDBRANCH  15  18
ENDBRANCH  14  15
ENDBRANCH  11  14
ENDBRANCH  10  11
ENDBRANCH   9  10
ENDBRANCH   1   9
BRANCH   7  22
HETATM   22  C10 UNL     1      -1.401  15.679  18.376  1.00  0.00     0.304 C 
HETATM   23  N6  UNL     1      -1.413  14.322  18.905  1.00  0.00    -0.053 N 
HETATM   24  C11 UNL     1      -0.525  13.636  17.996  1.00  0.00     0.239 C 
ATOM     25  H62 UNL     1      -1.166  14.242  19.891  1.00  0.00     0.279 HD
ATOM     26  H61 UNL     1      -2.338  13.904  19.002  1.00  0.00     0.279 HD
HETATM   27  C12 UNL     1      -1.041  14.099  16.648  1.00  0.00     0.019 A 
HETATM   28  C13 UNL     1      -2.473  14.360  16.455  1.00  0.00     0.015 A 
HETATM   29  C14 UNL     1      -1.548  15.450  16.908  1.00  0.00     0.042 A 
ENDBRANCH   7  22
TORSDOF 7
ENDMDL
MODEL 3
REMARK VINA RESULT: -5.474692859      1.134      1.733
REMARK  7 active torsions:
REMARK  status: ('A' for Active; 'I' for Inactive)
REMARK    1  A    between atoms: C2_2  and  N1_4 
REMARK    2  A    between atoms: C2_2  and  C4_8 
REMARK    3  A    between atoms: C4_8  and  N2_9 
REMARK    4  A    between atoms: N2_9  and  C7_12 
REMARK    5  A    between atoms: C7_12  and  C8_13 
REMARK    6  A    between atoms: C8_13  and  N3_14 
REMARK       I    between atoms: N3_14  and  C9_16 
REMARK       I    between atoms: C9_16  and  N5_20 
REMARK    7  A    between atoms: N5_20  and  C10_22 
ROOT
HETATM    1  N3  UNL     1       0.194  18.551  19.615  1.00  0.00    -0.225 N 
ATOM      2  H3  UNL     1       0.332  19.541  19.412  1.00  0.00     0.177 HD
HETATM    3  C9  UNL     1       0.111  17.629  18.535  1.00  0.00     0.669 C 
HETATM    4  N4  UNL     1       0.330  18.015  17.349  1.00  0.00    -0.235 N 
ATOM      5  H41 UNL     1       0.270  17.355  16.574  1.00  0.00     0.174 HD
ATOM      6  H42 UNL     1       0.558  18.991  17.158  1.00  0.00     0.174 HD
HETATM    7  N5  UNL     1      -0.205  16.279  18.798  1.00  0.00    -0.197 N 
ATOM      8  H5  UNL     1       0.475  15.717  19.311  1.00  0.00     0.180 HD
ENDROOT
BRANCH   1   9
HETATM    9  C8  UNL     1       0.089  18.127  20.985  1.00  0.00     0.166 C 
BRANCH   9  10
HETATM   10  C7  UNL     1      -1.174  18.374  21.675  1.00  0.00     0.256 C 
BRANCH  10  11
HETATM   11  N2  UNL     1      -1.239  19.194  22.840  1.00  0.00    -0.071 N 
HETATM   12  C5  UNL     1       0.093  19.091  23.428  1.00  0.00     0.272 C 
HETATM   13  C6  UNL     1      -1.441  20.586  22.447  1.00  0.00     0.272 C 
BRANCH  11  14
HETATM   14  C4  UNL     1      -2.303  18.726  23.651  1.00  0.00     0.274 C 
BRANCH  14  15
HETATM   15  C2  UNL     1      -2.143  17.677  24.647  1.00  0.00     0.140 C 
HETATM   16  C1  UNL     1      -3.577  17.312  25.112  1.00  0.00     0.047 C 
HETATM   17  C3  UNL     1      -1.603  16.359  24.113  1.00  0.00     0.047 C 
BRANCH  15  18
HETATM   18  N1  UNL     1      -1.438  18.017  25.847  1.00  0.00    -0.070 N 
ATOM     19  H13 UNL     1      -0.481  17.666  25.876  1.00  0.00     0.275 HD
ATOM     20  H12 UNL     1      -1.202  19.007  25.921  1.00  0.00     0.275 HD
ATOM     21  H11 UNL     1      -2.028  17.674  26.605  1.00  0.00     0.275 HD
ENDBRANCH  15  18
ENDBRANCH  14  15
ENDBRANCH  11  14
ENDBRANCH  10  11
ENDBRANCH   9  10
ENDBRANCH   1   9
BRANCH   7  22
HETATM   22  C10 UNL     1      -1.432  15.654  18.383  1.00  0.00     0.304 C 
HETATM   23  N6  UNL     1      -1.445  14.284  18.880  1.00  0.00    -0.053 N 
HETATM   24  C11 UNL     1      -0.557  13.620  17.956  1.00  0.00     0.239 C 
ATOM     25  H62 UNL     1      -1.200  14.180  19.864  1.00  0.00     0.279 HD
ATOM     26  H61 UNL     1      -2.370  13.865  18.965  1.00  0.00     0.279 HD
HETATM   27  C12 UNL     1      -1.070  14.115  16.618  1.00  0.00     0.019 A 
HETATM   28  C13 UNL     1      -2.502  14.381  16.430  1.00  0.00     0.015 A 
HETATM   29  C14 UNL     1      -1.576  15.460  16.911  1.00  0.00     0.042 A 
ENDBRANCH   7  22
TORSDOF 7
ENDMDL
MODEL 4
REMARK VINA RESULT: -5.405271612      6.256      9.036
REMARK  7 active torsions:
REMARK  status: ('A' for Active; 'I' for Inactive)
REMARK    1  A    between atoms: C2_2  and  N1_4 
REMARK    2  A    between atoms: C2_2  and  C4_8 
REMARK    3  A    between atoms: C4_8  and  N2_9 
REMARK    4  A    between atoms: N2_9  and  C7_12 
REMARK    5  A    between atoms: C7_12  and  C8_13 
REMARK    6  A    between atoms: C8_13  and  N3_14 
REMARK       I    between atoms: N3_14  and  C9_16 
REMARK       I    between atoms: C9_16  and  N5_20 
REMARK    7  A    between atoms: N5_20  and  C10_22 
ROOT
HETATM    1  N3  UNL     1       4.109  22.888  16.342  1.00  0.00    -0.225 N 
ATOM      2  H3  UNL     1       4.053  23.696  16.961  1.00  0.00     0.177 HD
HETATM    3  C9  UNL     1       5.179  21.965  16.505  1.00  0.00     0.669 C 
HETATM    4  N4  UNL     1       5.975  22.077  17.483  1.00  0.00    -0.235 N 
ATOM      5  H41 UNL     1       6.742  21.416  17.601  1.00  0.00     0.174 HD
ATOM      6  H42 UNL     1       5.862  22.837  18.155  1.00  0.00     0.174 HD
HETATM    7  N5  UNL     1       5.335  20.914  15.576  1.00  0.00    -0.197 N 
ATOM      8  H5  UNL     1       4.623  20.185  15.549  1.00  0.00     0.180 HD
ENDROOT
BRANCH   1   9
HETATM    9  C8  UNL     1       3.104  22.714  15.328  1.00  0.00     0.166 C 
BRANCH   9  10
HETATM   10  C7  UNL     1       1.811  22.176  15.743  1.00  0.00     0.256 C 
BRANCH  10  11
HETATM   11  N2  UNL     1       1.420  20.843  15.420  1.00  0.00    -0.071 N 
HETATM   12  C5  UNL     1      -0.008  20.946  15.136  1.00  0.00     0.272 C 
HETATM   13  C6  UNL     1       2.086  20.424  14.191  1.00  0.00     0.272 C 
BRANCH  11  14
HETATM   14  C4  UNL     1       1.767  20.004  16.509  1.00  0.00     0.274 C 
BRANCH  14  15
HETATM   15  C2  UNL     1       0.788  19.248  17.275  1.00  0.00     0.140 C 
HETATM   16  C1  UNL     1       1.603  18.407  18.292  1.00  0.00     0.047 C 
HETATM   17  C3  UNL     1      -0.122  20.085  18.163  1.00  0.00     0.047 C 
BRANCH  15  18
HETATM   18  N1  UNL     1      -0.009  18.296  16.560  1.00  0.00    -0.070 N 
ATOM     19  H13 UNL     1      -0.388  17.552  17.145  1.00  0.00     0.275 HD
ATOM     20  H12 UNL     1      -0.906  18.664  16.242  1.00  0.00     0.275 HD
ATOM     21  H11 UNL     1       0.592  17.963  15.805  1.00  0.00     0.275 HD
ENDBRANCH  15  18
ENDBRANCH  14  15
ENDBRANCH  11  14
ENDBRANCH  10  11
ENDBRANCH   9  10
ENDBRANCH   1   9
BRANCH   7  22
HETATM   22  C10 UNL     1       6.445  20.818  14.665  1.00  0.00     0.304 C 
HETATM   23  N6  UNL     1       6.440  21.991  13.803  1.00  0.00    -0.053 N 
HETATM   24  C11 UNL     1       5.384  21.677  12.869  1.00  0.00     0.239 C 
ATOM     25  H62 UNL     1       6.336  22.882  14.288  1.00  0.00     0.279 HD
ATOM     26  H61 UNL     1       7.339  22.217  13.377  1.00  0.00     0.279 HD
HETATM   27  C12 UNL     1       5.728  20.253  12.479  1.00  0.00     0.019 A 
HETATM   28  C13 UNL     1       7.131  19.827  12.401  1.00  0.00     0.015 A 
HETATM   29  C14 UNL     1       6.359  19.699  13.681  1.00  0.00     0.042 A 
ENDBRANCH   7  22
TORSDOF 7
ENDMDL
MODEL 5
REMARK VINA RESULT: -5.357028709      1.167      1.204
REMARK  7 active torsions:
REMARK  status: ('A' for Active; 'I' for Inactive)
REMARK    1  A    between atoms: C2_2  and  N1_4 
REMARK    2  A    between atoms: C2_2  and  C4_8 
REMARK    3  A    between atoms: C4_8  and  N2_9 
REMARK    4  A    between atoms: N2_9  and  C7_12 
REMARK    5  A    between atoms: C7_12  and  C8_13 
REMARK    6  A    between atoms: C8_13  and  N3_14 
REMARK       I    between atoms: N3_14  and  C9_16 
REMARK       I    between atoms: C9_16  and  N5_20 
REMARK    7  A    between atoms: N5_20  and  C10_22 
ROOT
HETATM    1  N3  UNL     1       0.234  18.533  19.663  1.00  0.00    -0.225 N 
ATOM      2  H3  UNL     1       0.353  19.531  19.492  1.00  0.00     0.177 HD
HETATM    3  C9  UNL     1       0.130  17.649  18.553  1.00  0.00     0.669 C 
HETATM    4  N4  UNL     1       0.309  18.080  17.376  1.00  0.00    -0.235 N 
ATOM      5  H41 UNL     1       0.234  17.447  16.579  1.00  0.00     0.174 HD
ATOM      6  H42 UNL     1       0.519  19.065  17.214  1.00  0.00     0.174 HD
HETATM    7  N5  UNL     1      -0.160  16.286  18.777  1.00  0.00    -0.197 N 
ATOM      8  H5  UNL     1       0.542  15.716  19.249  1.00  0.00     0.180 HD
ENDROOT
BRANCH   1   9
HETATM    9  C8  UNL     1       0.176  18.058  21.019  1.00  0.00     0.166 C 
BRANCH   9  10
HETATM   10  C7  UNL     1      -1.074  18.250  21.750  1.00  0.00     0.256 C 
BRANCH  10  11
HETATM   11  N2  UNL     1      -1.102  18.326  23.173  1.00  0.00    -0.071 N 
HETATM   12  C5  UNL     1      -2.414  18.886  23.479  1.00  0.00     0.272 C 
HETATM   13  C6  UNL     1      -1.055  16.978  23.734  1.00  0.00     0.272 C 
BRANCH  11  14
HETATM   14  C4  UNL     1       0.007  19.101  23.596  1.00  0.00     0.274 C 
BRANCH  14  15
HETATM   15  C2  UNL     1       0.431  19.192  24.985  1.00  0.00     0.140 C 
HETATM   16  C1  UNL     1       1.365  20.428  25.063  1.00  0.00     0.047 C 
HETATM   17  C3  UNL     1      -0.675  19.527  25.976  1.00  0.00     0.047 C 
BRANCH  15  18
HETATM   18  N1  UNL     1       1.207  18.106  25.505  1.00  0.00    -0.070 N 
ATOM     19  H13 UNL     1       1.854  18.379  26.245  1.00  0.00     0.275 HD
ATOM     20  H12 UNL     1       0.668  17.442  26.060  1.00  0.00     0.275 HD
ATOM     21  H11 UNL     1       1.661  17.692  24.691  1.00  0.00     0.275 HD
ENDBRANCH  15  18
ENDBRANCH  14  15
ENDBRANCH  11  14
ENDBRANCH  10  11
ENDBRANCH   9  10
ENDBRANCH   1   9
BRANCH   7  22
HETATM   22  C10 UNL     1      -1.391  15.659  18.376  1.00  0.00     0.304 C 
HETATM   23  N6  UNL     1      -1.413  14.302  18.904  1.00  0.00    -0.053 N 
HETATM   24  C11 UNL     1      -0.528  13.610  17.997  1.00  0.00     0.239 C 
ATOM     25  H62 UNL     1      -1.169  14.219  19.891  1.00  0.00     0.279 HD
ATOM     26  H61 UNL     1      -2.341  13.891  18.999  1.00  0.00     0.279 HD
HETATM   27  C12 UNL     1      -1.038  14.077  16.648  1.00  0.00     0.019 A 
HETATM   28  C13 UNL     1      -2.468  14.348  16.452  1.00  0.00     0.015 A 
HETATM   29  C14 UNL     1      -1.536  15.432  16.908  1.00  0.00     0.042 A 
ENDBRANCH   7  22
TORSDOF 7
ENDMDL
