MODEL 1
REMARK VINA RESULT: -5.484920912      0.000      0.000
REMARK  7 active torsions:
REMARK  status: ('A' for Active; 'I' for Inactive)
REMARK    1  A    between atoms: N2_6  and  C4_7 
REMARK    2  A    between atoms: C4_7  and  C5_8 
REMARK    3  A    between atoms: C6_9  and  N3_10 
REMARK    4  A    between atoms: C11_17  and  O1_18 
REMARK    5  A    between atoms: C12_20  and  C13_21 
REMARK    6  A    between atoms: C13_21  and  C14_22 
REMARK    7  A    between atoms: C14_22  and  O2_23 
ROOT
HETATM    1  C4  UNL     1      -1.289  15.546  18.792  1.00  0.00     0.158 C 
ENDROOT
BRANCH   1   2
HETATM    2  N2  UNL     1      -1.631  15.342  17.398  1.00  0.00    -0.341 N 
HETATM    3  C3  UNL     1      -1.983  16.301  16.490  1.00  0.00     0.183 A 
HETATM    4  N1  UNL     1      -2.222  15.708  15.302  1.00  0.00    -0.354 N 
HETATM    5  C2  UNL     1      -2.032  14.382  15.422  1.00  0.00     0.029 A 
ATOM      6  H1  UNL     1      -2.503  16.189  14.447  1.00  0.00     0.166 HD
HETATM    7  C1  UNL     1      -2.184  13.344  14.371  1.00  0.00     0.070 C 
HETATM    8  C12 UNL     1      -1.666  14.191  16.741  1.00  0.00     0.037 A 
BRANCH   8   9
HETATM    9  C13 UNL     1      -1.363  12.855  17.311  1.00  0.00     0.085 C 
BRANCH   9  10
HETATM   10  C14 UNL     1       0.140  12.560  17.206  1.00  0.00     0.170 C 
BRANCH  10  11
HETATM   11  O2  UNL     1       0.424  11.841  16.072  1.00  0.00    -0.400 OA
ATOM     12  H2  UNL     1       1.304  11.482  16.105  1.00  0.00     0.209 HD
ENDBRANCH  10  11
ENDBRANCH   9  10
ENDBRANCH   8   9
ENDBRANCH   1   2
BRANCH   1  13
HETATM   13  C5  UNL     1      -0.871  16.931  19.077  1.00  0.00     0.018 C 
HETATM   14  C6  UNL     1       0.328  17.376  18.818  1.00  0.00     0.203 C 
BRANCH  14  15
HETATM   15  N3  UNL     1       0.745  18.704  19.085  1.00  0.00    -0.022 N 
HETATM   16  C7  UNL     1      -0.274  19.288  19.978  1.00  0.00     0.281 C 
HETATM   17  C8  UNL     1       0.824  19.417  17.853  1.00  0.00     0.264 C 
HETATM   18  C9  UNL     1       2.057  20.197  17.600  1.00  0.00     0.142 C 
HETATM   19  N4  UNL     1       2.636  20.802  18.760  1.00  0.00    -0.415 N 
HETATM   20  C10 UNL     1       2.679  19.983  19.915  1.00  0.00     0.176 C 
ATOM     21  H4  UNL     1       2.994  21.757  18.756  1.00  0.00     0.153 HD
HETATM   22  C11 UNL     1       1.975  18.678  19.844  1.00  0.00     0.345 C 
BRANCH  22  23
HETATM   23  O1  UNL     1       2.837  17.672  19.439  1.00  0.00    -0.368 OA
ATOM     24  H1  UNL     1       3.697  17.740  19.836  1.00  0.00     0.212 HD
ENDBRANCH  22  23
ENDBRANCH  14  15
ENDBRANCH   1  13
TORSDOF 7
ENDMDL
MODEL 2
REMARK VINA RESULT: -5.287831361      1.151      1.623
REMARK  7 active torsions:
REMARK  status: ('A' for Active; 'I' for Inactive)
REMARK    1  A    between atoms: N2_6  and  C4_7 
REMARK    2  A    between atoms: C4_7  and  C5_8 
REMARK    3  A    between atoms: C6_9  and  N3_10 
REMARK    4  A    between atoms: C11_17  and  O1_18 
REMARK    5  A    between atoms: C12_20  and  C13_21 
REMARK    6  A    between atoms: C13_21  and  C14_22 
REMARK    7  A    between atoms: C14_22  and  O2_23 
ROOT
HETATM    1  C4  UNL     1      -1.322  15.571  18.739  1.00  0.00     0.158 C 
ENDROOT
BRANCH   1   2
HETATM    2  N2  UNL     1      -1.664  15.337  17.350  1.00  0.00    -0.341 N 
HETATM    3  C3  UNL     1      -2.029  16.276  16.427  1.00  0.00     0.183 A 
HETATM    4  N1  UNL     1      -2.263  15.659  15.249  1.00  0.00    -0.354 N 
HETATM    5  C2  UNL     1      -2.056  14.338  15.392  1.00  0.00     0.029 A 
ATOM      6  H1  UNL     1      -2.551  16.122  14.387  1.00  0.00     0.166 HD
HETATM    7  C1  UNL     1      -2.196  13.280  14.360  1.00  0.00     0.070 C 
HETATM    8  C12 UNL     1      -1.685  14.175  16.713  1.00  0.00     0.037 A 
BRANCH   8   9
HETATM    9  C13 UNL     1      -1.364  12.854  17.306  1.00  0.00     0.085 C 
BRANCH   9  10
HETATM   10  C14 UNL     1       0.143  12.578  17.209  1.00  0.00     0.170 C 
BRANCH  10  11
HETATM   11  O2  UNL     1       0.440  11.840  16.091  1.00  0.00    -0.400 OA
ATOM     12  H2  UNL     1       0.007  10.994  16.115  1.00  0.00     0.209 HD
ENDBRANCH  10  11
ENDBRANCH   9  10
ENDBRANCH   8   9
ENDBRANCH   1   2
BRANCH   1  13
HETATM   13  C5  UNL     1      -0.748  16.910  18.966  1.00  0.00     0.018 C 
HETATM   14  C6  UNL     1       0.357  17.311  18.400  1.00  0.00     0.203 C 
BRANCH  14  15
HETATM   15  N3  UNL     1       0.922  18.594  18.607  1.00  0.00    -0.022 N 
HETATM   16  C7  UNL     1       2.143  18.387  19.408  1.00  0.00     0.281 C 
HETATM   17  C8  UNL     1      -0.022  19.404  19.304  1.00  0.00     0.264 C 
HETATM   18  C9  UNL     1      -0.280  20.758  18.765  1.00  0.00     0.142 C 
HETATM   19  N4  UNL     1       0.860  21.406  18.191  1.00  0.00    -0.415 N 
HETATM   20  C10 UNL     1       1.674  20.587  17.372  1.00  0.00     0.176 C 
ATOM     21  H4  UNL     1       1.071  22.389  18.361  1.00  0.00     0.153 HD
HETATM   22  C11 UNL     1       1.360  19.136  17.341  1.00  0.00     0.345 C 
BRANCH  22  23
HETATM   23  O1  UNL     1       0.496  18.840  16.300  1.00  0.00    -0.368 OA
ATOM     24  H1  UNL     1       0.700  19.315  15.503  1.00  0.00     0.212 HD
ENDBRANCH  22  23
ENDBRANCH  14  15
ENDBRANCH   1  13
TORSDOF 7
ENDMDL
MODEL 3
REMARK VINA RESULT: -5.266105260      3.646      6.913
REMARK  7 active torsions:
REMARK  status: ('A' for Active; 'I' for Inactive)
REMARK    1  A    between atoms: N2_6  and  C4_7 
REMARK    2  A    between atoms: C4_7  and  C5_8 
REMARK    3  A    between atoms: C6_9  and  N3_10 
REMARK    4  A    between atoms: C11_17  and  O1_18 
REMARK    5  A    between atoms: C12_20  and  C13_21 
REMARK    6  A    between atoms: C13_21  and  C14_22 
REMARK    7  A    between atoms: C14_22  and  O2_23 
ROOT
HETATM    1  C4  UNL     1       2.733  21.756  17.208  1.00  0.00     0.158 C 
ENDROOT
BRANCH   1   2
HETATM    2  N2  UNL     1       3.953  21.469  16.480  1.00  0.00    -0.341 N 
HETATM    3  C3  UNL     1       5.194  21.986  16.723  1.00  0.00     0.183 A 
HETATM    4  N1  UNL     1       6.064  21.469  15.829  1.00  0.00    -0.354 N 
HETATM    5  C2  UNL     1       5.408  20.626  15.010  1.00  0.00     0.029 A 
ATOM      6  H1  UNL     1       7.060  21.683  15.781  1.00  0.00     0.166 HD
HETATM    7  C1  UNL     1       5.966  19.838  13.883  1.00  0.00     0.070 C 
HETATM    8  C12 UNL     1       4.097  20.652  15.445  1.00  0.00     0.037 A 
BRANCH   8   9
HETATM    9  C13 UNL     1       3.017  19.858  14.809  1.00  0.00     0.085 C 
BRANCH   9  10
HETATM   10  C14 UNL     1       2.360  20.661  13.678  1.00  0.00     0.170 C 
BRANCH  10  11
HETATM   11  O2  UNL     1       1.318  19.966  13.118  1.00  0.00    -0.400 OA
ATOM     12  H2  UNL     1       1.628  19.364  12.450  1.00  0.00     0.209 HD
ENDBRANCH  10  11
ENDBRANCH   9  10
ENDBRANCH   8   9
ENDBRANCH   1   2
BRANCH   1  13
HETATM   13  C5  UNL     1       2.413  20.724  18.212  1.00  0.00     0.018 C 
HETATM   14  C6  UNL     1       1.347  19.975  18.141  1.00  0.00     0.203 C 
BRANCH  14  15
HETATM   15  N3  UNL     1       1.026  18.979  19.097  1.00  0.00    -0.022 N 
HETATM   16  C7  UNL     1       2.146  18.946  20.055  1.00  0.00     0.281 C 
HETATM   17  C8  UNL     1       0.881  17.730  18.426  1.00  0.00     0.264 C 
HETATM   18  C9  UNL     1      -0.325  16.930  18.737  1.00  0.00     0.142 C 
HETATM   19  N4  UNL     1      -0.771  17.015  20.094  1.00  0.00    -0.415 N 
HETATM   20  C10 UNL     1      -0.760  18.314  20.656  1.00  0.00     0.176 C 
ATOM     21  H4  UNL     1      -1.076  16.196  20.619  1.00  0.00     0.153 HD
HETATM   22  C11 UNL     1      -0.135  19.394  19.852  1.00  0.00     0.345 C 
BRANCH  22  23
HETATM   23  O1  UNL     1      -1.080  20.040  19.073  1.00  0.00    -0.368 OA
ATOM     24  H1  UNL     1      -1.836  20.328  19.572  1.00  0.00     0.212 HD
ENDBRANCH  22  23
ENDBRANCH  14  15
ENDBRANCH   1  13
TORSDOF 7
ENDMDL
MODEL 4
REMARK VINA RESULT: -5.259451268      1.817      2.394
REMARK  7 active torsions:
REMARK  status: ('A' for Active; 'I' for Inactive)
REMARK    1  A    between atoms: N2_6  and  C4_7 
REMARK    2  A    between atoms: C4_7  and  C5_8 
REMARK    3  A    between atoms: C6_9  and  N3_10 
REMARK    4  A    between atoms: C11_17  and  O1_18 
REMARK    5  A    between atoms: C12_20  and  C13_21 
REMARK    6  A    between atoms: C13_21  and  C14_22 
REMARK    7  A    between atoms: C14_22  and  O2_23 
ROOT
HETATM    1  C4  UNL     1      -1.021  15.221  18.962  1.00  0.00     0.158 C 
ENDROOT
BRANCH   1   2
HETATM    2  N2  UNL     1      -1.017  14.345  17.807  1.00  0.00    -0.341 N 
HETATM    3  C3  UNL     1      -0.264  13.217  17.637  1.00  0.00     0.183 A 
HETATM    4  N1  UNL     1      -0.550  12.682  16.431  1.00  0.00    -0.354 N 
HETATM    5  C2  UNL     1      -1.474  13.442  15.817  1.00  0.00     0.029 A 
ATOM      6  H1  UNL     1      -0.131  11.835  16.046  1.00  0.00     0.166 HD
HETATM    7  C1  UNL     1      -2.079  13.230  14.478  1.00  0.00     0.070 C 
HETATM    8  C12 UNL     1      -1.740  14.468  16.703  1.00  0.00     0.037 A 
BRANCH   8   9
HETATM    9  C13 UNL     1      -2.712  15.552  16.418  1.00  0.00     0.085 C 
BRANCH   9  10
HETATM   10  C14 UNL     1      -1.993  16.772  15.826  1.00  0.00     0.170 C 
BRANCH  10  11
HETATM   11  O2  UNL     1      -2.892  17.717  15.400  1.00  0.00    -0.400 OA
ATOM     12  H2  UNL     1      -2.509  18.587  15.417  1.00  0.00     0.209 HD
ENDBRANCH  10  11
ENDBRANCH   9  10
ENDBRANCH   8   9
ENDBRANCH   1   2
BRANCH   1  13
HETATM   13  C5  UNL     1      -0.544  16.580  18.646  1.00  0.00     0.018 C 
HETATM   14  C6  UNL     1       0.153  17.298  19.483  1.00  0.00     0.203 C 
BRANCH  14  15
HETATM   15  N3  UNL     1       0.619  18.605  19.195  1.00  0.00    -0.022 N 
HETATM   16  C7  UNL     1      -0.191  19.525  20.013  1.00  0.00     0.281 C 
HETATM   17  C8  UNL     1       0.442  18.858  17.803  1.00  0.00     0.264 C 
HETATM   18  C9  UNL     1       1.598  19.417  17.065  1.00  0.00     0.142 C 
HETATM   19  N4  UNL     1       2.406  20.331  17.812  1.00  0.00    -0.415 N 
HETATM   20  C10 UNL     1       2.685  19.943  19.145  1.00  0.00     0.176 C 
ATOM     21  H4  UNL     1       2.757  21.200  17.412  1.00  0.00     0.153 HD
HETATM   22  C11 UNL     1       1.980  18.744  19.663  1.00  0.00     0.345 C 
BRANCH  22  23
HETATM   23  O1  UNL     1       2.736  17.601  19.466  1.00  0.00    -0.368 OA
ATOM     24  H1  UNL     1       2.886  17.114  20.268  1.00  0.00     0.212 HD
ENDBRANCH  22  23
ENDBRANCH  14  15
ENDBRANCH   1  13
TORSDOF 7
ENDMDL
MODEL 5
REMARK VINA RESULT: -5.216100135      2.071      6.437
REMARK  7 active torsions:
REMARK  status: ('A' for Active; 'I' for Inactive)
REMARK    1  A    between atoms: N2_6  and  C4_7 
REMARK    2  A    between atoms: C4_7  and  C5_8 
REMARK    3  A    between atoms: C6_9  and  N3_10 
REMARK    4  A    between atoms: C11_17  and  O1_18 
REMARK    5  A    between atoms: C12_20  and  C13_21 
REMARK    6  A    between atoms: C13_21  and  C14_22 
REMARK    7  A    between atoms: C14_22  and  O2_23 
ROOT
HETATM    1  C4  UNL     1       1.100  18.358  19.495  1.00  0.00     0.158 C 
ENDROOT
BRANCH   1   2
HETATM    2  N2  UNL     1       0.740  19.698  19.075  1.00  0.00    -0.341 N 
HETATM    3  C3  UNL     1      -0.184  20.519  19.658  1.00  0.00     0.183 A 
HETATM    4  N1  UNL     1      -0.226  21.682  18.973  1.00  0.00    -0.354 N 
HETATM    5  C2  UNL     1       0.654  21.630  17.958  1.00  0.00     0.029 A 
ATOM      6  H1  UNL     1      -0.829  22.475  19.192  1.00  0.00     0.166 HD
HETATM    7  C1  UNL     1       0.941  22.681  16.950  1.00  0.00     0.070 C 
HETATM    8  C12 UNL     1       1.235  20.379  18.052  1.00  0.00     0.037 A 
BRANCH   8   9
HETATM    9  C13 UNL     1       2.275  19.897  17.109  1.00  0.00     0.085 C 
BRANCH   9  10
HETATM   10  C14 UNL     1       1.654  19.605  15.736  1.00  0.00     0.170 C 
BRANCH  10  11
HETATM   11  O2  UNL     1       0.688  18.635  15.825  1.00  0.00    -0.400 OA
ATOM     12  H2  UNL     1       0.586  18.335  16.721  1.00  0.00     0.209 HD
ENDBRANCH  10  11
ENDBRANCH   9  10
ENDBRANCH   8   9
ENDBRANCH   1   2
BRANCH   1  13
HETATM   13  C5  UNL     1       0.014  17.384  19.282  1.00  0.00     0.018 C 
HETATM   14  C6  UNL     1       0.065  16.458  18.364  1.00  0.00     0.203 C 
BRANCH  14  15
HETATM   15  N3  UNL     1      -0.970  15.514  18.146  1.00  0.00    -0.022 N 
HETATM   16  C7  UNL     1      -1.847  15.578  19.330  1.00  0.00     0.281 C 
HETATM   17  C8  UNL     1      -0.388  14.221  18.003  1.00  0.00     0.264 C 
HETATM   18  C9  UNL     1      -0.832  13.403  16.851  1.00  0.00     0.142 C 
HETATM   19  N4  UNL     1      -2.209  13.558  16.496  1.00  0.00    -0.415 N 
HETATM   20  C10 UNL     1      -2.689  14.890  16.498  1.00  0.00     0.176 C 
ATOM     21  H4  UNL     1      -2.803  12.764  16.259  1.00  0.00     0.153 HD
HETATM   22  C11 UNL     1      -1.778  15.937  17.025  1.00  0.00     0.345 C 
BRANCH  22  23
HETATM   23  O1  UNL     1      -1.031  16.501  16.005  1.00  0.00    -0.368 OA
ATOM     24  H1  UNL     1      -1.340  17.364  15.755  1.00  0.00     0.212 HD
ENDBRANCH  22  23
ENDBRANCH  14  15
ENDBRANCH   1  13
TORSDOF 7
ENDMDL
