MODEL 1
REMARK VINA RESULT: -5.954250252      0.000      0.000
REMARK  5 active torsions:
REMARK  status: ('A' for Active; 'I' for Inactive)
REMARK    1  A    between atoms: N1_2  and  C2_3 
REMARK    2  A    between atoms: C2_3  and  C3_4 
REMARK    3  A    between atoms: C3_4  and  N2_5 
REMARK       I    between atoms: N2_5  and  C4_7 
REMARK       I    between atoms: C4_7  and  N4_11 
REMARK    4  A    between atoms: N4_11  and  C5_13 
REMARK    5  A    between atoms: C5_13  and  C6_14 
ROOT
HETATM    1  N2  UNL     1       1.143  18.383  17.572  1.00  0.00    -0.225 N 
ATOM      2  H2  UNL     1       0.898  17.810  16.764  1.00  0.00     0.177 HD
HETATM    3  C4  UNL     1       1.036  17.839  18.870  1.00  0.00     0.667 C 
HETATM    4  N3  UNL     1       1.557  18.473  19.861  1.00  0.00    -0.235 N 
ATOM      5  H31 UNL     1       1.480  18.079  20.799  1.00  0.00     0.174 HD
ATOM      6  H32 UNL     1       2.026  19.356  19.657  1.00  0.00     0.174 HD
HETATM    7  N4  UNL     1       0.390  16.622  19.151  1.00  0.00    -0.225 N 
ATOM      8  H4  UNL     1       0.981  15.816  19.356  1.00  0.00     0.177 HD
ENDROOT
BRANCH   1   9
HETATM    9  C3  UNL     1       1.596  19.752  17.372  1.00  0.00     0.166 C 
BRANCH   9  10
HETATM   10  C2  UNL     1       1.860  19.983  15.924  1.00  0.00     0.257 C 
BRANCH  10  11
HETATM   11  N1  UNL     1       2.761  21.082  15.654  1.00  0.00    -0.065 N 
HETATM   12  C1  UNL     1       2.001  22.307  15.649  1.00  0.00     0.272 C 
HETATM   13  C11 UNL     1       3.459  20.845  14.409  1.00  0.00     0.263 C 
HETATM   14  C12 UNL     1       4.768  20.122  14.624  1.00  0.00     0.195 C 
HETATM   15  O1  UNL     1       5.660  20.868  15.389  1.00  0.00    -0.388 OA
HETATM   16  C13 UNL     1       4.970  21.859  16.088  1.00  0.00     0.195 C 
HETATM   17  C14 UNL     1       3.745  21.183  16.696  1.00  0.00     0.263 C 
ENDBRANCH  10  11
ENDBRANCH   9  10
ENDBRANCH   1   9
BRANCH   7  18
HETATM   18  C5  UNL     1      -1.034  16.416  19.175  1.00  0.00     0.171 C 
BRANCH  18  19
HETATM   19  C6  UNL     1      -1.484  15.412  18.145  1.00  0.00     0.204 C 
HETATM   20  C7  UNL     1      -0.507  14.265  18.095  1.00  0.00     0.035 C 
HETATM   21  C8  UNL     1      -0.885  13.300  16.987  1.00  0.00     0.004 C 
HETATM   22  C9  UNL     1      -2.133  13.764  16.268  1.00  0.00     0.027 C 
HETATM   23  C10 UNL     1      -1.946  15.176  15.804  1.00  0.00     0.233 C 
HETATM   24  N5  UNL     1      -1.437  16.059  16.838  1.00  0.00    -0.069 N 
ATOM     25  H52 UNL     1      -1.926  16.954  16.843  1.00  0.00     0.277 HD
ATOM     26  H51 UNL     1      -0.500  16.396  16.619  1.00  0.00     0.277 HD
ENDBRANCH  18  19
ENDBRANCH   7  18
TORSDOF 5
ENDMDL
MODEL 2
REMARK VINA RESULT: -5.922240362      4.925      7.181
REMARK  5 active torsions:
REMARK  status: ('A' for Active; 'I' for Inactive)
REMARK    1  A    between atoms: N1_2  and  C2_3 
REMARK    2  A    between atoms: C2_3  and  C3_4 
REMARK    3  A    between atoms: C3_4  and  N2_5 
REMARK       I    between atoms: N2_5  and  C4_7 
REMARK       I    between atoms: C4_7  and  N4_11 
REMARK    4  A    between atoms: N4_11  and  C5_13 
REMARK    5  A    between atoms: C5_13  and  C6_14 
ROOT
HETATM    1  N2  UNL     1      -0.333  18.877  20.834  1.00  0.00    -0.225 N 
ATOM      2  H2  UNL     1       0.482  19.320  20.410  1.00  0.00     0.177 HD
HETATM    3  C4  UNL     1      -0.627  17.528  20.535  1.00  0.00     0.667 C 
HETATM    4  N3  UNL     1      -1.508  16.908  21.238  1.00  0.00    -0.235 N 
ATOM      5  H31 UNL     1      -1.720  15.934  21.022  1.00  0.00     0.174 HD
ATOM      6  H32 UNL     1      -1.962  17.431  21.987  1.00  0.00     0.174 HD
HETATM    7  N4  UNL     1      -0.002  16.808  19.503  1.00  0.00    -0.225 N 
ATOM      8  H4  UNL     1       0.700  16.119  19.773  1.00  0.00     0.177 HD
ENDROOT
BRANCH   1   9
HETATM    9  C3  UNL     1      -1.178  19.641  21.739  1.00  0.00     0.166 C 
BRANCH   9  10
HETATM   10  C2  UNL     1      -0.523  19.734  23.074  1.00  0.00     0.257 C 
BRANCH  10  11
HETATM   11  N1  UNL     1      -1.349  19.283  24.172  1.00  0.00    -0.065 N 
HETATM   12  C1  UNL     1      -1.607  20.402  25.042  1.00  0.00     0.272 C 
HETATM   13  C11 UNL     1      -0.700  18.180  24.847  1.00  0.00     0.263 C 
HETATM   14  C12 UNL     1      -1.120  16.844  24.279  1.00  0.00     0.195 C 
HETATM   15  O1  UNL     1      -2.481  16.607  24.448  1.00  0.00    -0.388 OA
HETATM   16  C13 UNL     1      -3.144  17.808  24.699  1.00  0.00     0.195 C 
HETATM   17  C14 UNL     1      -2.615  18.812  23.679  1.00  0.00     0.263 C 
ENDBRANCH  10  11
ENDBRANCH   9  10
ENDBRANCH   1   9
BRANCH   7  18
HETATM   18  C5  UNL     1      -0.267  16.959  18.097  1.00  0.00     0.171 C 
BRANCH  18  19
HETATM   19  C6  UNL     1      -0.636  15.654  17.440  1.00  0.00     0.204 C 
HETATM   20  C7  UNL     1      -1.797  15.868  16.502  1.00  0.00     0.035 C 
HETATM   21  C8  UNL     1      -2.252  14.544  15.917  1.00  0.00     0.004 C 
HETATM   22  C9  UNL     1      -1.403  13.403  16.435  1.00  0.00     0.027 C 
HETATM   23  C10 UNL     1      -1.390  13.431  17.933  1.00  0.00     0.233 C 
HETATM   24  N5  UNL     1      -1.102  14.744  18.481  1.00  0.00    -0.069 N 
ATOM     25  H52 UNL     1      -0.443  14.692  19.258  1.00  0.00     0.277 HD
ATOM     26  H51 UNL     1      -1.902  15.127  18.984  1.00  0.00     0.277 HD
ENDBRANCH  18  19
ENDBRANCH   7  18
TORSDOF 5
ENDMDL
MODEL 3
REMARK VINA RESULT: -5.895769188      1.008      1.265
REMARK  5 active torsions:
REMARK  status: ('A' for Active; 'I' for Inactive)
REMARK    1  A    between atoms: N1_2  and  C2_3 
REMARK    2  A    between atoms: C2_3  and  C3_4 
REMARK    3  A    between atoms: C3_4  and  N2_5 
REMARK       I    between atoms: N2_5  and  C4_7 
REMARK       I    between atoms: C4_7  and  N4_11 
REMARK    4  A    between atoms: N4_11  and  C5_13 
REMARK    5  A    between atoms: C5_13  and  C6_14 
ROOT
HETATM    1  N2  UNL     1       0.943  18.245  17.494  1.00  0.00    -0.225 N 
ATOM      2  H2  UNL     1       0.757  17.618  16.711  1.00  0.00     0.177 HD
HETATM    3  C4  UNL     1       0.823  17.764  18.817  1.00  0.00     0.667 C 
HETATM    4  N3  UNL     1       1.276  18.477  19.787  1.00  0.00    -0.235 N 
ATOM      5  H31 UNL     1       1.189  18.130  20.742  1.00  0.00     0.174 HD
ATOM      6  H32 UNL     1       1.704  19.373  19.549  1.00  0.00     0.174 HD
HETATM    7  N4  UNL     1       0.233  16.531  19.143  1.00  0.00    -0.225 N 
ATOM      8  H4  UNL     1       0.859  15.770  19.409  1.00  0.00     0.177 HD
ENDROOT
BRANCH   1   9
HETATM    9  C3  UNL     1       1.330  19.624  17.234  1.00  0.00     0.166 C 
BRANCH   9  10
HETATM   10  C2  UNL     1       1.466  19.835  15.765  1.00  0.00     0.257 C 
BRANCH  10  11
HETATM   11  N1  UNL     1       2.531  20.740  15.394  1.00  0.00    -0.065 N 
HETATM   12  C1  UNL     1       2.842  21.572  16.528  1.00  0.00     0.272 C 
HETATM   13  C11 UNL     1       2.138  21.501  14.227  1.00  0.00     0.263 C 
HETATM   14  C12 UNL     1       2.569  20.829  12.944  1.00  0.00     0.195 C 
HETATM   15  O1  UNL     1       3.954  20.725  12.845  1.00  0.00    -0.388 OA
HETATM   16  C13 UNL     1       4.530  20.873  14.106  1.00  0.00     0.195 C 
HETATM   17  C14 UNL     1       3.716  20.001  15.057  1.00  0.00     0.263 C 
ENDBRANCH  10  11
ENDBRANCH   9  10
ENDBRANCH   1   9
BRANCH   7  18
HETATM   18  C5  UNL     1      -1.178  16.249  19.135  1.00  0.00     0.171 C 
BRANCH  18  19
HETATM   19  C6  UNL     1      -1.553  15.236  18.083  1.00  0.00     0.204 C 
HETATM   20  C7  UNL     1      -0.502  14.156  18.022  1.00  0.00     0.035 C 
HETATM   21  C8  UNL     1      -0.807  13.189  16.894  1.00  0.00     0.004 C 
HETATM   22  C9  UNL     1      -2.076  13.583  16.171  1.00  0.00     0.027 C 
HETATM   23  C10 UNL     1      -1.979  15.012  15.734  1.00  0.00     0.233 C 
HETATM   24  N5  UNL     1      -1.538  15.908  16.789  1.00  0.00    -0.069 N 
ATOM     25  H52 UNL     1      -2.085  16.769  16.805  1.00  0.00     0.277 HD
ATOM     26  H51 UNL     1      -0.624  16.310  16.583  1.00  0.00     0.277 HD
ENDBRANCH  18  19
ENDBRANCH   7  18
TORSDOF 5
ENDMDL
MODEL 4
REMARK VINA RESULT: -5.883791015      1.356      1.764
REMARK  5 active torsions:
REMARK  status: ('A' for Active; 'I' for Inactive)
REMARK    1  A    between atoms: N1_2  and  C2_3 
REMARK    2  A    between atoms: C2_3  and  C3_4 
REMARK    3  A    between atoms: C3_4  and  N2_5 
REMARK       I    between atoms: N2_5  and  C4_7 
REMARK       I    between atoms: C4_7  and  N4_11 
REMARK    4  A    between atoms: N4_11  and  C5_13 
REMARK    5  A    between atoms: C5_13  and  C6_14 
ROOT
HETATM    1  N2  UNL     1       0.725  18.780  16.322  1.00  0.00    -0.225 N 
ATOM      2  H2  UNL     1       0.626  17.983  15.692  1.00  0.00     0.177 HD
HETATM    3  C4  UNL     1       0.932  18.557  17.701  1.00  0.00     0.667 C 
HETATM    4  N3  UNL     1       1.284  19.542  18.450  1.00  0.00    -0.235 N 
ATOM      5  H31 UNL     1       1.432  19.381  19.446  1.00  0.00     0.174 HD
ATOM      6  H32 UNL     1       1.394  20.452  18.003  1.00  0.00     0.174 HD
HETATM    7  N4  UNL     1       0.779  17.302  18.316  1.00  0.00    -0.225 N 
ATOM      8  H4  UNL     1       1.630  16.801  18.573  1.00  0.00     0.177 HD
ENDROOT
BRANCH   1   9
HETATM    9  C3  UNL     1       0.652  20.131  15.788  1.00  0.00     0.166 C 
BRANCH   9  10
HETATM   10  C2  UNL     1       1.492  20.228  14.560  1.00  0.00     0.257 C 
BRANCH  10  11
HETATM   11  N1  UNL     1       2.722  20.967  14.741  1.00  0.00    -0.065 N 
HETATM   12  C1  UNL     1       2.584  21.808  15.903  1.00  0.00     0.272 C 
HETATM   13  C11 UNL     1       3.024  21.711  13.538  1.00  0.00     0.263 C 
HETATM   14  C12 UNL     1       3.902  20.924  12.592  1.00  0.00     0.195 C 
HETATM   15  O1  UNL     1       5.145  20.635  13.148  1.00  0.00    -0.388 OA
HETATM   16  C13 UNL     1       5.086  20.771  14.535  1.00  0.00     0.195 C 
HETATM   17  C14 UNL     1       3.812  20.063  14.984  1.00  0.00     0.263 C 
ENDBRANCH  10  11
ENDBRANCH   9  10
ENDBRANCH   1   9
BRANCH   7  18
HETATM   18  C5  UNL     1      -0.475  16.662  18.613  1.00  0.00     0.171 C 
BRANCH  18  19
HETATM   19  C6  UNL     1      -0.729  15.464  17.735  1.00  0.00     0.204 C 
HETATM   20  C7  UNL     1      -1.774  15.806  16.703  1.00  0.00     0.035 C 
HETATM   21  C8  UNL     1      -2.122  14.578  15.881  1.00  0.00     0.004 C 
HETATM   22  C9  UNL     1      -1.314  13.380  16.329  1.00  0.00     0.027 C 
HETATM   23  C10 UNL     1      -1.481  13.188  17.805  1.00  0.00     0.233 C 
HETATM   24  N5  UNL     1      -1.294  14.409  18.569  1.00  0.00    -0.069 N 
ATOM     25  H52 UNL     1      -0.732  14.247  19.404  1.00  0.00     0.277 HD
ATOM     26  H51 UNL     1      -2.159  14.707  19.020  1.00  0.00     0.277 HD
ENDBRANCH  18  19
ENDBRANCH   7  18
TORSDOF 5
ENDMDL
MODEL 5
REMARK VINA RESULT: -5.875532446      0.848      1.226
REMARK  5 active torsions:
REMARK  status: ('A' for Active; 'I' for Inactive)
REMARK    1  A    between atoms: N1_2  and  C2_3 
REMARK    2  A    between atoms: C2_3  and  C3_4 
REMARK    3  A    between atoms: C3_4  and  N2_5 
REMARK       I    between atoms: N2_5  and  C4_7 
REMARK       I    between atoms: C4_7  and  N4_11 
REMARK    4  A    between atoms: N4_11  and  C5_13 
REMARK    5  A    between atoms: C5_13  and  C6_14 
ROOT
HETATM    1  N2  UNL     1       1.838  18.570  17.961  1.00  0.00    -0.225 N 
ATOM      2  H2  UNL     1       1.864  17.958  17.145  1.00  0.00     0.177 HD
HETATM    3  C4  UNL     1       1.341  18.077  19.187  1.00  0.00     0.667 C 
HETATM    4  N3  UNL     1       1.520  18.765  20.259  1.00  0.00    -0.235 N 
ATOM      5  H31 UNL     1       1.161  18.409  21.145  1.00  0.00     0.174 HD
ATOM      6  H32 UNL     1       2.018  19.651  20.168  1.00  0.00     0.174 HD
HETATM    7  N4  UNL     1       0.655  16.856  19.312  1.00  0.00    -0.225 N 
ATOM      8  H4  UNL     1       1.163  16.076  19.728  1.00  0.00     0.177 HD
ENDROOT
BRANCH   1   9
HETATM    9  C3  UNL     1       2.314  19.940  17.847  1.00  0.00     0.166 C 
BRANCH   9  10
HETATM   10  C2  UNL     1       1.989  20.470  16.492  1.00  0.00     0.257 C 
BRANCH  10  11
HETATM   11  N1  UNL     1       2.944  21.432  15.987  1.00  0.00    -0.065 N 
HETATM   12  C1  UNL     1       2.341  22.740  16.027  1.00  0.00     0.272 C 
HETATM   13  C11 UNL     1       3.368  21.045  14.659  1.00  0.00     0.263 C 
HETATM   14  C12 UNL     1       4.603  20.175  14.692  1.00  0.00     0.195 C 
HETATM   15  O1  UNL     1       5.700  20.842  15.230  1.00  0.00    -0.388 OA
HETATM   16  C13 UNL     1       5.269  21.947  15.964  1.00  0.00     0.195 C 
HETATM   17  C14 UNL     1       4.108  21.463  16.828  1.00  0.00     0.263 C 
ENDBRANCH  10  11
ENDBRANCH   9  10
ENDBRANCH   1   9
BRANCH   7  18
HETATM   18  C5  UNL     1      -0.703  16.614  18.903  1.00  0.00     0.171 C 
BRANCH  18  19
HETATM   19  C6  UNL     1      -0.817  15.443  17.961  1.00  0.00     0.204 C 
HETATM   20  C7  UNL     1      -1.754  15.790  16.832  1.00  0.00     0.035 C 
HETATM   21  C8  UNL     1      -1.966  14.585  15.935  1.00  0.00     0.004 C 
HETATM   22  C9  UNL     1      -1.170  13.396  16.429  1.00  0.00     0.027 C 
HETATM   23  C10 UNL     1      -1.492  13.144  17.870  1.00  0.00     0.233 C 
HETATM   24  N5  UNL     1      -1.433  14.340  18.691  1.00  0.00    -0.069 N 
ATOM     25  H52 UNL     1      -0.961  14.164  19.578  1.00  0.00     0.277 HD
ATOM     26  H51 UNL     1      -2.352  14.594  19.053  1.00  0.00     0.277 HD
ENDBRANCH  18  19
ENDBRANCH   7  18
TORSDOF 5
ENDMDL
