MODEL 1
REMARK VINA RESULT: -5.608082013      0.000      0.000
REMARK  12 active torsions:
REMARK  status: ('A' for Active; 'I' for Inactive)
REMARK    1  A    between atoms: N1_2  and  C2_3 
REMARK    2  A    between atoms: N1_2  and  C5_8 
REMARK    3  A    between atoms: N1_2  and  C11_19 
REMARK    4  A    between atoms: C2_3  and  C3_4 
REMARK    5  A    between atoms: C4_5  and  O1_6 
REMARK    6  A    between atoms: C5_8  and  C6_9 
REMARK    7  A    between atoms: C6_9  and  C7_10 
REMARK    8  A    between atoms: C7_10  and  N2_11 
REMARK    9  A    between atoms: C10_14  and  O2_15 
REMARK   10  A    between atoms: C10_14  and  O3_17 
REMARK   11  A    between atoms: C11_19  and  C12_20 
REMARK   12  A    between atoms: C12_20  and  N3_21 
ROOT
HETATM    1  C1  UNL     1     -10.069  24.240  49.761  1.00  0.00     0.272 C 
HETATM    2  N1  UNL     1     -10.562  23.809  48.470  1.00  0.00    -0.066 N 
ENDROOT
BRANCH   2   3
HETATM    3  C2  UNL     1      -9.500  24.099  47.522  1.00  0.00     0.266 C 
BRANCH   3   4
HETATM    4  C3  UNL     1     -10.029  24.501  46.195  1.00  0.00     0.025 C 
HETATM    5  C4  UNL     1      -9.493  23.990  45.118  1.00  0.00     0.129 C 
BRANCH   5   6
HETATM    6  O1  UNL     1      -8.453  23.091  45.199  1.00  0.00    -0.373 OA
ATOM      7  H1  UNL     1      -8.011  22.780  44.418  1.00  0.00     0.216 HD
ENDBRANCH   5   6
ENDBRANCH   3   4
ENDBRANCH   2   3
BRANCH   2   8
HETATM    8  C5  UNL     1     -10.782  22.396  48.456  1.00  0.00     0.239 C 
BRANCH   8   9
HETATM    9  C6  UNL     1      -9.549  21.587  48.771  1.00  0.00     0.056 C 
BRANCH   9  10
HETATM   10  C7  UNL     1     -10.037  20.289  49.419  1.00  0.00     0.245 C 
BRANCH  10  11
HETATM   11  N2  UNL     1      -9.014  19.651  50.195  1.00  0.00    -0.005 N 
HETATM   12  C8  UNL     1      -8.915  18.208  50.062  1.00  0.00     0.280 C 
HETATM   13  C9  UNL     1      -7.794  20.389  50.366  1.00  0.00     0.344 A 
HETATM   14  C10 UNL     1      -8.746  20.247  51.495  1.00  0.00     0.362 A 
BRANCH  14  15
HETATM   15  O2  UNL     1      -8.378  19.440  52.554  1.00  0.00    -0.342 OA
ATOM     16  H2  UNL     1      -8.778  18.585  52.655  1.00  0.00     0.215 HD
ENDBRANCH  14  15
BRANCH  14  17
HETATM   17  O3  UNL     1      -9.512  21.361  51.881  1.00  0.00    -0.342 OA
ATOM     18  H3  UNL     1      -9.961  21.850  51.201  1.00  0.00     0.215 HD
ENDBRANCH  14  17
ENDBRANCH  10  11
ENDBRANCH   9  10
ENDBRANCH   8   9
ENDBRANCH   2   8
BRANCH   2  19
HETATM   19  C11 UNL     1     -11.764  24.525  48.080  1.00  0.00     0.265 C 
BRANCH  19  20
HETATM   20  C12 UNL     1     -12.711  24.699  49.241  1.00  0.00     0.264 C 
BRANCH  20  21
HETATM   21  N3  UNL     1     -13.412  25.924  49.259  1.00  0.00    -0.069 N 
HETATM   22  C13 UNL     1     -12.502  27.005  48.842  1.00  0.00     0.272 C 
HETATM   23  C14 UNL     1     -14.435  25.878  48.202  1.00  0.00     0.237 C 
HETATM   24  C15 UNL     1     -14.891  27.269  47.858  1.00  0.00     0.028 C 
HETATM   25  C16 UNL     1     -15.493  27.871  49.110  1.00  0.00     0.003 C 
HETATM   26  C17 UNL     1     -15.439  26.913  50.244  1.00  0.00     0.028 C 
HETATM   27  C18 UNL     1     -14.061  26.307  50.460  1.00  0.00     0.237 C 
ENDBRANCH  20  21
ENDBRANCH  19  20
ENDBRANCH   2  19
TORSDOF 12
ENDMDL
MODEL 2
REMARK VINA RESULT: -5.588593841      2.730      3.630
REMARK  12 active torsions:
REMARK  status: ('A' for Active; 'I' for Inactive)
REMARK    1  A    between atoms: N1_2  and  C2_3 
REMARK    2  A    between atoms: N1_2  and  C5_8 
REMARK    3  A    between atoms: N1_2  and  C11_19 
REMARK    4  A    between atoms: C2_3  and  C3_4 
REMARK    5  A    between atoms: C4_5  and  O1_6 
REMARK    6  A    between atoms: C5_8  and  C6_9 
REMARK    7  A    between atoms: C6_9  and  C7_10 
REMARK    8  A    between atoms: C7_10  and  N2_11 
REMARK    9  A    between atoms: C10_14  and  O2_15 
REMARK   10  A    between atoms: C10_14  and  O3_17 
REMARK   11  A    between atoms: C11_19  and  C12_20 
REMARK   12  A    between atoms: C12_20  and  N3_21 
ROOT
HETATM    1  C1  UNL     1     -10.006  25.509  51.915  1.00  0.00     0.272 C 
HETATM    2  N1  UNL     1     -10.554  24.220  51.553  1.00  0.00    -0.066 N 
ENDROOT
BRANCH   2   3
HETATM    3  C2  UNL     1     -10.638  24.216  50.103  1.00  0.00     0.266 C 
BRANCH   3   4
HETATM    4  C3  UNL     1     -12.040  24.299  49.624  1.00  0.00     0.025 C 
HETATM    5  C4  UNL     1     -12.421  23.524  48.643  1.00  0.00     0.129 C 
BRANCH   5   6
HETATM    6  O1  UNL     1     -11.545  22.639  48.054  1.00  0.00    -0.373 OA
ATOM      7  H1  UNL     1     -11.845  21.802  47.719  1.00  0.00     0.216 HD
ENDBRANCH   5   6
ENDBRANCH   3   4
ENDBRANCH   2   3
BRANCH   2   8
HETATM    8  C5  UNL     1      -9.668  23.164  51.940  1.00  0.00     0.239 C 
BRANCH   8   9
HETATM    9  C6  UNL     1      -9.686  21.984  51.001  1.00  0.00     0.056 C 
BRANCH   9  10
HETATM   10  C7  UNL     1      -8.859  20.885  51.673  1.00  0.00     0.245 C 
BRANCH  10  11
HETATM   11  N2  UNL     1      -8.826  19.679  50.897  1.00  0.00    -0.005 N 
HETATM   12  C8  UNL     1      -9.684  19.648  49.725  1.00  0.00     0.280 C 
HETATM   13  C9  UNL     1      -7.557  19.014  50.811  1.00  0.00     0.344 A 
HETATM   14  C10 UNL     1      -8.640  18.449  51.652  1.00  0.00     0.362 A 
BRANCH  14  15
HETATM   15  O2  UNL     1      -9.252  17.286  51.226  1.00  0.00    -0.342 OA
ATOM     16  H2  UNL     1     -10.130  17.081  51.523  1.00  0.00     0.215 HD
ENDBRANCH  14  15
BRANCH  14  17
HETATM   17  O3  UNL     1      -8.532  18.544  53.051  1.00  0.00    -0.342 OA
ATOM     18  H3  UNL     1      -9.306  18.367  53.571  1.00  0.00     0.215 HD
ENDBRANCH  14  17
ENDBRANCH  10  11
ENDBRANCH   9  10
ENDBRANCH   8   9
ENDBRANCH   2   8
BRANCH   2  19
HETATM   19  C11 UNL     1     -11.879  24.014  52.113  1.00  0.00     0.265 C 
BRANCH  19  20
HETATM   20  C12 UNL     1     -12.087  24.826  53.367  1.00  0.00     0.264 C 
BRANCH  20  21
HETATM   21  N3  UNL     1     -13.413  25.255  53.584  1.00  0.00    -0.069 N 
HETATM   22  C13 UNL     1     -13.405  26.684  53.937  1.00  0.00     0.272 C 
HETATM   23  C14 UNL     1     -14.126  25.199  52.298  1.00  0.00     0.237 C 
HETATM   24  C15 UNL     1     -15.361  26.056  52.349  1.00  0.00     0.028 C 
HETATM   25  C16 UNL     1     -16.253  25.499  53.438  1.00  0.00     0.003 C 
HETATM   26  C17 UNL     1     -15.632  24.315  54.086  1.00  0.00     0.028 C 
HETATM   27  C18 UNL     1     -14.198  24.552  54.533  1.00  0.00     0.237 C 
ENDBRANCH  20  21
ENDBRANCH  19  20
ENDBRANCH   2  19
TORSDOF 12
ENDMDL
MODEL 3
REMARK VINA RESULT: -5.543799133      2.621      5.112
REMARK  12 active torsions:
REMARK  status: ('A' for Active; 'I' for Inactive)
REMARK    1  A    between atoms: N1_2  and  C2_3 
REMARK    2  A    between atoms: N1_2  and  C5_8 
REMARK    3  A    between atoms: N1_2  and  C11_19 
REMARK    4  A    between atoms: C2_3  and  C3_4 
REMARK    5  A    between atoms: C4_5  and  O1_6 
REMARK    6  A    between atoms: C5_8  and  C6_9 
REMARK    7  A    between atoms: C6_9  and  C7_10 
REMARK    8  A    between atoms: C7_10  and  N2_11 
REMARK    9  A    between atoms: C10_14  and  O2_15 
REMARK   10  A    between atoms: C10_14  and  O3_17 
REMARK   11  A    between atoms: C11_19  and  C12_20 
REMARK   12  A    between atoms: C12_20  and  N3_21 
ROOT
HETATM    1  C1  UNL     1     -11.771  24.595  48.186  1.00  0.00     0.272 C 
HETATM    2  N1  UNL     1     -10.535  23.868  48.381  1.00  0.00    -0.066 N 
ENDROOT
BRANCH   2   3
HETATM    3  C2  UNL     1      -9.976  24.361  49.628  1.00  0.00     0.266 C 
BRANCH   3   4
HETATM    4  C3  UNL     1     -11.010  24.523  50.680  1.00  0.00     0.025 C 
HETATM    5  C4  UNL     1     -10.739  24.139  51.899  1.00  0.00     0.129 C 
BRANCH   5   6
HETATM    6  O1  UNL     1      -9.516  23.591  52.217  1.00  0.00    -0.373 OA
ATOM      7  H1  UNL     1      -8.935  24.013  52.839  1.00  0.00     0.216 HD
ENDBRANCH   5   6
ENDBRANCH   3   4
ENDBRANCH   2   3
BRANCH   2   8
HETATM    8  C5  UNL     1     -10.789  22.469  48.542  1.00  0.00     0.239 C 
BRANCH   8   9
HETATM    9  C6  UNL     1      -9.581  21.681  48.984  1.00  0.00     0.056 C 
BRANCH   9  10
HETATM   10  C7  UNL     1     -10.037  20.814  50.161  1.00  0.00     0.245 C 
BRANCH  10  11
HETATM   11  N2  UNL     1      -9.112  19.758  50.447  1.00  0.00    -0.005 N 
HETATM   12  C8  UNL     1      -9.494  18.431  49.995  1.00  0.00     0.280 C 
HETATM   13  C9  UNL     1      -7.719  20.102  50.396  1.00  0.00     0.344 A 
HETATM   14  C10 UNL     1      -8.386  19.879  51.702  1.00  0.00     0.362 A 
BRANCH  14  15
HETATM   15  O2  UNL     1      -8.054  18.742  52.413  1.00  0.00    -0.342 OA
ATOM     16  H2  UNL     1      -7.144  18.477  52.478  1.00  0.00     0.215 HD
ENDBRANCH  14  15
BRANCH  14  17
HETATM   17  O3  UNL     1      -8.664  20.988  52.520  1.00  0.00    -0.342 OA
ATOM     18  H3  UNL     1      -8.165  21.086  53.323  1.00  0.00     0.215 HD
ENDBRANCH  14  17
ENDBRANCH  10  11
ENDBRANCH   9  10
ENDBRANCH   8   9
ENDBRANCH   2   8
BRANCH   2  19
HETATM   19  C11 UNL     1      -9.589  24.102  47.304  1.00  0.00     0.265 C 
BRANCH  19  20
HETATM   20  C12 UNL     1     -10.280  24.563  46.045  1.00  0.00     0.264 C 
BRANCH  20  21
HETATM   21  N3  UNL     1      -9.478  24.540  44.884  1.00  0.00    -0.069 N 
HETATM   22  C13 UNL     1     -10.302  24.123  43.738  1.00  0.00     0.272 C 
HETATM   23  C14 UNL     1      -9.090  25.925  44.573  1.00  0.00     0.237 C 
HETATM   24  C15 UNL     1      -8.646  26.032  43.139  1.00  0.00     0.028 C 
HETATM   25  C16 UNL     1      -7.444  25.127  42.970  1.00  0.00     0.003 C 
HETATM   26  C17 UNL     1      -7.103  24.446  44.245  1.00  0.00     0.028 C 
HETATM   27  C18 UNL     1      -8.291  23.764  44.904  1.00  0.00     0.237 C 
ENDBRANCH  20  21
ENDBRANCH  19  20
ENDBRANCH   2  19
TORSDOF 12
ENDMDL
MODEL 4
REMARK VINA RESULT: -5.478339841      2.241      3.003
REMARK  12 active torsions:
REMARK  status: ('A' for Active; 'I' for Inactive)
REMARK    1  A    between atoms: N1_2  and  C2_3 
REMARK    2  A    between atoms: N1_2  and  C5_8 
REMARK    3  A    between atoms: N1_2  and  C11_19 
REMARK    4  A    between atoms: C2_3  and  C3_4 
REMARK    5  A    between atoms: C4_5  and  O1_6 
REMARK    6  A    between atoms: C5_8  and  C6_9 
REMARK    7  A    between atoms: C6_9  and  C7_10 
REMARK    8  A    between atoms: C7_10  and  N2_11 
REMARK    9  A    between atoms: C10_14  and  O2_15 
REMARK   10  A    between atoms: C10_14  and  O3_17 
REMARK   11  A    between atoms: C11_19  and  C12_20 
REMARK   12  A    between atoms: C12_20  and  N3_21 
ROOT
HETATM    1  C1  UNL     1     -10.211  25.085  50.566  1.00  0.00     0.272 C 
HETATM    2  N1  UNL     1     -11.131  23.972  50.466  1.00  0.00    -0.066 N 
ENDROOT
BRANCH   2   3
HETATM    3  C2  UNL     1     -11.186  23.626  49.056  1.00  0.00     0.266 C 
BRANCH   3   4
HETATM    4  C3  UNL     1     -11.136  24.825  48.184  1.00  0.00     0.025 C 
HETATM    5  C4  UNL     1     -10.702  24.698  46.957  1.00  0.00     0.129 C 
BRANCH   5   6
HETATM    6  O1  UNL     1     -10.294  23.476  46.470  1.00  0.00    -0.373 OA
ATOM      7  H1  UNL     1     -10.925  22.821  46.196  1.00  0.00     0.216 HD
ENDBRANCH   5   6
ENDBRANCH   3   4
ENDBRANCH   2   3
BRANCH   2   8
HETATM    8  C5  UNL     1     -10.629  22.834  51.174  1.00  0.00     0.239 C 
BRANCH   8   9
HETATM    9  C6  UNL     1      -9.735  21.949  50.341  1.00  0.00     0.056 C 
BRANCH   9  10
HETATM   10  C7  UNL     1      -9.082  20.960  51.311  1.00  0.00     0.245 C 
BRANCH  10  11
HETATM   11  N2  UNL     1      -8.925  19.658  50.733  1.00  0.00    -0.005 N 
HETATM   12  C8  UNL     1      -9.776  19.355  49.595  1.00  0.00     0.280 C 
HETATM   13  C9  UNL     1      -7.593  19.122  50.729  1.00  0.00     0.344 A 
HETATM   14  C10 UNL     1      -8.610  18.588  51.667  1.00  0.00     0.362 A 
BRANCH  14  15
HETATM   15  O2  UNL     1      -9.097  17.315  51.439  1.00  0.00    -0.342 OA
ATOM     16  H2  UNL     1      -9.176  16.995  50.549  1.00  0.00     0.215 HD
ENDBRANCH  14  15
BRANCH  14  17
HETATM   17  O3  UNL     1      -8.510  18.912  53.032  1.00  0.00    -0.342 OA
ATOM     18  H3  UNL     1      -8.379  18.203  53.650  1.00  0.00     0.215 HD
ENDBRANCH  14  17
ENDBRANCH  10  11
ENDBRANCH   9  10
ENDBRANCH   8   9
ENDBRANCH   2   8
BRANCH   2  19
HETATM   19  C11 UNL     1     -12.462  24.323  50.928  1.00  0.00     0.265 C 
BRANCH  19  20
HETATM   20  C12 UNL     1     -12.428  25.453  51.926  1.00  0.00     0.264 C 
BRANCH  20  21
HETATM   21  N3  UNL     1     -13.562  25.545  52.761  1.00  0.00    -0.069 N 
HETATM   22  C13 UNL     1     -13.403  26.697  53.663  1.00  0.00     0.272 C 
HETATM   23  C14 UNL     1     -14.718  25.894  51.920  1.00  0.00     0.237 C 
HETATM   24  C15 UNL     1     -15.829  26.453  52.767  1.00  0.00     0.028 C 
HETATM   25  C16 UNL     1     -16.233  25.375  53.750  1.00  0.00     0.003 C 
HETATM   26  C17 UNL     1     -15.421  24.146  53.561  1.00  0.00     0.028 C 
HETATM   27  C18 UNL     1     -13.924  24.408  53.526  1.00  0.00     0.237 C 
ENDBRANCH  20  21
ENDBRANCH  19  20
ENDBRANCH   2  19
TORSDOF 12
ENDMDL
MODEL 5
REMARK VINA RESULT: -5.359888056      3.597      6.094
REMARK  12 active torsions:
REMARK  status: ('A' for Active; 'I' for Inactive)
REMARK    1  A    between atoms: N1_2  and  C2_3 
REMARK    2  A    between atoms: N1_2  and  C5_8 
REMARK    3  A    between atoms: N1_2  and  C11_19 
REMARK    4  A    between atoms: C2_3  and  C3_4 
REMARK    5  A    between atoms: C4_5  and  O1_6 
REMARK    6  A    between atoms: C5_8  and  C6_9 
REMARK    7  A    between atoms: C6_9  and  C7_10 
REMARK    8  A    between atoms: C7_10  and  N2_11 
REMARK    9  A    between atoms: C10_14  and  O2_15 
REMARK   10  A    between atoms: C10_14  and  O3_17 
REMARK   11  A    between atoms: C11_19  and  C12_20 
REMARK   12  A    between atoms: C12_20  and  N3_21 
ROOT
HETATM    1  C1  UNL     1     -10.915  25.871  52.360  1.00  0.00     0.272 C 
HETATM    2  N1  UNL     1     -11.081  24.556  51.780  1.00  0.00    -0.066 N 
ENDROOT
BRANCH   2   3
HETATM    3  C2  UNL     1      -9.897  23.803  52.157  1.00  0.00     0.266 C 
BRANCH   3   4
HETATM    4  C3  UNL     1      -9.808  22.506  51.442  1.00  0.00     0.025 C 
HETATM    5  C4  UNL     1      -8.895  21.644  51.805  1.00  0.00     0.129 C 
BRANCH   5   6
HETATM    6  O1  UNL     1      -8.023  21.922  52.834  1.00  0.00    -0.373 OA
ATOM      7  H1  UNL     1      -7.983  21.370  53.606  1.00  0.00     0.216 HD
ENDBRANCH   5   6
ENDBRANCH   3   4
ENDBRANCH   2   3
BRANCH   2   8
HETATM    8  C5  UNL     1     -12.216  23.892  52.344  1.00  0.00     0.239 C 
BRANCH   8   9
HETATM    9  C6  UNL     1     -12.917  24.693  53.413  1.00  0.00     0.056 C 
BRANCH   9  10
HETATM   10  C7  UNL     1     -14.354  24.168  53.473  1.00  0.00     0.245 C 
BRANCH  10  11
HETATM   11  N2  UNL     1     -15.271  25.151  53.971  1.00  0.00    -0.005 N 
HETATM   12  C8  UNL     1     -14.751  26.057  54.981  1.00  0.00     0.280 C 
HETATM   13  C9  UNL     1     -16.212  25.679  53.025  1.00  0.00     0.344 A 
HETATM   14  C10 UNL     1     -16.659  24.726  54.070  1.00  0.00     0.362 A 
BRANCH  14  15
HETATM   15  O2  UNL     1     -17.451  25.210  55.093  1.00  0.00    -0.342 OA
ATOM     16  H2  UNL     1     -18.268  25.649  54.887  1.00  0.00     0.215 HD
ENDBRANCH  14  15
BRANCH  14  17
HETATM   17  O3  UNL     1     -16.973  23.408  53.696  1.00  0.00    -0.342 OA
ATOM     18  H3  UNL     1     -17.258  23.254  52.803  1.00  0.00     0.215 HD
ENDBRANCH  14  17
ENDBRANCH  10  11
ENDBRANCH   9  10
ENDBRANCH   8   9
ENDBRANCH   2   8
BRANCH   2  19
HETATM   19  C11 UNL     1     -11.178  24.608  50.331  1.00  0.00     0.265 C 
BRANCH  19  20
HETATM   20  C12 UNL     1     -12.606  24.488  49.863  1.00  0.00     0.264 C 
BRANCH  20  21
HETATM   21  N3  UNL     1     -13.170  25.680  49.361  1.00  0.00    -0.069 N 
HETATM   22  C13 UNL     1     -12.101  26.514  48.787  1.00  0.00     0.272 C 
HETATM   23  C14 UNL     1     -14.021  25.332  48.212  1.00  0.00     0.237 C 
HETATM   24  C15 UNL     1     -14.272  26.548  47.362  1.00  0.00     0.028 C 
HETATM   25  C16 UNL     1     -14.991  27.562  48.227  1.00  0.00     0.003 C 
HETATM   26  C17 UNL     1     -15.209  27.037  49.599  1.00  0.00     0.028 C 
HETATM   27  C18 UNL     1     -13.951  26.473  50.239  1.00  0.00     0.237 C 
ENDBRANCH  20  21
ENDBRANCH  19  20
ENDBRANCH   2  19
TORSDOF 12
ENDMDL
