MODEL 1
REMARK VINA RESULT: -4.678334021      0.000      0.000
REMARK  1 active torsions:
REMARK  status: ('A' for Active; 'I' for Inactive)
REMARK    1  A    between atoms: O1_1  and  C1_3 
ROOT
HETATM    1  C1  UNL     1      -1.000  13.512  17.256  1.00  0.00     0.145 C 
HETATM    2  C2  UNL     1      -1.777  14.349  16.232  1.00  0.00     0.061 C 
HETATM    3  C3  UNL     1      -2.409  15.367  17.192  1.00  0.00     0.242 C 
HETATM    4  N1  UNL     1      -1.286  15.742  17.998  1.00  0.00    -0.039 N 
HETATM    5  C4  UNL     1      -0.694  16.929  17.411  1.00  0.00     0.267 C 
HETATM    6  C5  UNL     1      -1.692  17.997  17.843  1.00  0.00     0.262 C 
HETATM    7  N2  UNL     1      -2.442  17.416  18.947  1.00  0.00    -0.049 N 
ATOM      8  H21 UNL     1      -3.421  17.225  18.736  1.00  0.00     0.279 HD
ATOM      9  H22 UNL     1      -2.621  18.059  19.719  1.00  0.00     0.279 HD
HETATM   10  C6  UNL     1      -1.671  16.247  19.311  1.00  0.00     0.467 C 
HETATM   11  C7  UNL     1      -0.392  14.639  18.098  1.00  0.00     0.271 C 
ENDROOT
BRANCH   1  12
HETATM   12  O1  UNL     1      -1.951  12.848  18.012  1.00  0.00    -0.394 OA
ATOM     13  H1  UNL     1      -1.491  12.146  18.458  1.00  0.00     0.210 HD
ENDBRANCH   1  12
TORSDOF 1
ENDMDL
MODEL 2
REMARK VINA RESULT: -4.652229071      1.316      2.214
REMARK  1 active torsions:
REMARK  status: ('A' for Active; 'I' for Inactive)
REMARK    1  A    between atoms: O1_1  and  C1_3 
ROOT
HETATM    1  C1  UNL     1      -2.220  14.236  16.647  1.00  0.00     0.145 C 
HETATM    2  C2  UNL     1      -1.539  13.703  17.914  1.00  0.00     0.061 C 
HETATM    3  C3  UNL     1      -0.489  14.808  18.098  1.00  0.00     0.242 C 
HETATM    4  N1  UNL     1      -1.280  15.990  17.930  1.00  0.00    -0.039 N 
HETATM    5  C4  UNL     1      -1.713  16.427  19.243  1.00  0.00     0.267 C 
HETATM    6  C5  UNL     1      -0.430  17.047  19.783  1.00  0.00     0.262 C 
HETATM    7  N2  UNL     1       0.409  17.298  18.619  1.00  0.00    -0.049 N 
ATOM      8  H21 UNL     1       1.244  16.714  18.569  1.00  0.00     0.279 HD
ATOM      9  H22 UNL     1       0.902  18.191  18.640  1.00  0.00     0.279 HD
HETATM   10  C6  UNL     1      -0.495  17.143  17.501  1.00  0.00     0.467 C 
HETATM   11  C7  UNL     1      -2.348  15.714  17.030  1.00  0.00     0.271 C 
ENDROOT
BRANCH   1  12
HETATM   12  O1  UNL     1      -1.292  14.113  15.628  1.00  0.00    -0.394 OA
ATOM     13  H1  UNL     1      -1.112  13.184  15.544  1.00  0.00     0.210 HD
ENDBRANCH   1  12
TORSDOF 1
ENDMDL
MODEL 3
REMARK VINA RESULT: -4.550595473      1.956      3.450
REMARK  1 active torsions:
REMARK  status: ('A' for Active; 'I' for Inactive)
REMARK    1  A    between atoms: O1_1  and  C1_3 
ROOT
HETATM    1  C1  UNL     1      -0.617  17.428  19.748  1.00  0.00     0.145 C 
HETATM    2  C2  UNL     1      -0.475  17.833  18.275  1.00  0.00     0.061 C 
HETATM    3  C3  UNL     1      -0.362  16.432  17.656  1.00  0.00     0.242 C 
HETATM    4  N1  UNL     1      -1.439  15.743  18.302  1.00  0.00    -0.039 N 
HETATM    5  C4  UNL     1      -2.604  15.835  17.444  1.00  0.00     0.267 C 
HETATM    6  C5  UNL     1      -2.255  14.818  16.365  1.00  0.00     0.262 C 
HETATM    7  N2  UNL     1      -1.213  13.975  16.937  1.00  0.00    -0.049 N 
ATOM      8  H21 UNL     1      -0.298  14.083  16.500  1.00  0.00     0.279 HD
ATOM      9  H22 UNL     1      -1.315  12.981  16.730  1.00  0.00     0.279 HD
HETATM   10  C6  UNL     1      -1.243  14.298  18.346  1.00  0.00     0.467 C 
HETATM   11  C7  UNL     1      -1.632  16.289  19.602  1.00  0.00     0.271 C 
ENDROOT
BRANCH   1  12
HETATM   12  O1  UNL     1       0.606  16.897  20.121  1.00  0.00    -0.394 OA
ATOM     13  H1  UNL     1       0.495  16.574  21.008  1.00  0.00     0.210 HD
ENDBRANCH   1  12
TORSDOF 1
ENDMDL
MODEL 4
REMARK VINA RESULT: -4.215467483      1.210      1.377
REMARK  1 active torsions:
REMARK  status: ('A' for Active; 'I' for Inactive)
REMARK    1  A    between atoms: O1_1  and  C1_3 
ROOT
HETATM    1  C1  UNL     1      -0.467  14.512  18.721  1.00  0.00     0.145 C 
HETATM    2  C2  UNL     1      -1.219  14.511  17.384  1.00  0.00     0.061 C 
HETATM    3  C3  UNL     1      -2.183  15.676  17.656  1.00  0.00     0.242 C 
HETATM    4  N1  UNL     1      -1.296  16.665  18.191  1.00  0.00    -0.039 N 
HETATM    5  C4  UNL     1      -0.862  17.512  17.097  1.00  0.00     0.267 C 
HETATM    6  C5  UNL     1      -2.104  18.367  16.877  1.00  0.00     0.262 C 
HETATM    7  N2  UNL     1      -2.893  18.241  18.096  1.00  0.00    -0.049 N 
ATOM      8  H21 UNL     1      -3.770  17.734  17.979  1.00  0.00     0.279 HD
ATOM      9  H22 UNL     1      -3.314  19.113  18.417  1.00  0.00     0.279 HD
HETATM   10  C6  UNL     1      -1.977  17.639  19.039  1.00  0.00     0.467 C 
HETATM   11  C7  UNL     1      -0.232  16.018  18.880  1.00  0.00     0.271 C 
ENDROOT
BRANCH   1  12
HETATM   12  O1  UNL     1      -1.378  14.095  19.676  1.00  0.00    -0.394 OA
ATOM     13  H1  UNL     1      -2.167  13.855  19.204  1.00  0.00     0.210 HD
ENDBRANCH   1  12
TORSDOF 1
ENDMDL
MODEL 5
REMARK VINA RESULT: -4.205419060      1.826      2.608
REMARK  1 active torsions:
REMARK  status: ('A' for Active; 'I' for Inactive)
REMARK    1  A    between atoms: O1_1  and  C1_3 
ROOT
HETATM    1  C1  UNL     1      -2.489  15.467  16.943  1.00  0.00     0.145 C 
HETATM    2  C2  UNL     1      -1.416  14.813  17.823  1.00  0.00     0.061 C 
HETATM    3  C3  UNL     1      -0.565  16.057  18.118  1.00  0.00     0.242 C 
HETATM    4  N1  UNL     1      -1.568  17.014  18.480  1.00  0.00    -0.039 N 
HETATM    5  C4  UNL     1      -1.709  16.986  19.923  1.00  0.00     0.267 C 
HETATM    6  C5  UNL     1      -0.459  17.743  20.355  1.00  0.00     0.262 C 
HETATM    7  N2  UNL     1      -0.013  18.476  19.178  1.00  0.00    -0.049 N 
ATOM      8  H21 UNL     1       0.868  18.145  18.785  1.00  0.00     0.279 HD
ATOM      9  H22 UNL     1       0.303  19.427  19.369  1.00  0.00     0.279 HD
HETATM   10  C6  UNL     1      -1.138  18.393  18.273  1.00  0.00     0.467 C 
HETATM   11  C7  UNL     1      -2.769  16.723  17.775  1.00  0.00     0.271 C 
ENDROOT
BRANCH   1  12
HETATM   12  O1  UNL     1      -1.855  15.834  15.769  1.00  0.00    -0.394 OA
ATOM     13  H1  UNL     1      -1.344  16.609  15.975  1.00  0.00     0.210 HD
ENDBRANCH   1  12
TORSDOF 1
ENDMDL
