MODEL 1
REMARK VINA RESULT: -4.614563990      0.000      0.000
REMARK  0 active torsions:
REMARK  status: ('A' for Active; 'I' for Inactive)
ROOT
HETATM    1  O1  UNL     1      -1.305  16.412  16.492  1.00  0.00    -0.234 OA
HETATM    2  S1  UNL     1      -2.102  15.202  16.896  1.00  0.00     0.136 S 
HETATM    3  C1  UNL     1      -1.033  13.929  17.645  1.00  0.00     0.363 C 
HETATM    4  N1  UNL     1      -1.414  12.695  17.007  1.00  0.00    -0.061 N 
ATOM      5  H11 UNL     1      -2.392  12.459  17.179  1.00  0.00     0.278 HD
ATOM      6  H12 UNL     1      -0.988  11.883  17.454  1.00  0.00     0.278 HD
HETATM    7  C2  UNL     1      -1.112  12.765  15.615  1.00  0.00     0.253 C 
HETATM    8  C3  UNL     1      -2.092  13.558  14.805  1.00  0.00     0.157 C 
HETATM    9  N2  UNL     1      -2.920  14.437  15.567  1.00  0.00    -0.338 N 
ATOM     10  H2  UNL     1      -3.904  14.600  15.351  1.00  0.00     0.169 HD
ENDROOT
TORSDOF 0
ENDMDL
MODEL 2
REMARK VINA RESULT: -4.234811797      1.238      1.298
REMARK  0 active torsions:
REMARK  status: ('A' for Active; 'I' for Inactive)
ROOT
HETATM    1  O1  UNL     1      -0.630  17.043  16.913  1.00  0.00    -0.234 OA
HETATM    2  S1  UNL     1      -1.688  16.152  17.505  1.00  0.00     0.136 S 
HETATM    3  C1  UNL     1      -0.956  14.919  18.632  1.00  0.00     0.363 C 
HETATM    4  N1  UNL     1      -1.563  13.666  18.264  1.00  0.00    -0.061 N 
ATOM      5  H11 UNL     1      -2.575  13.678  18.387  1.00  0.00     0.278 HD
ATOM      6  H12 UNL     1      -1.343  12.923  18.927  1.00  0.00     0.278 HD
HETATM    7  C2  UNL     1      -1.186  13.328  16.930  1.00  0.00     0.253 C 
HETATM    8  C3  UNL     1      -1.931  14.073  15.865  1.00  0.00     0.157 C 
HETATM    9  N2  UNL     1      -2.586  15.258  16.316  1.00  0.00    -0.338 N 
ATOM     10  H2  UNL     1      -3.500  15.554  15.971  1.00  0.00     0.169 HD
ENDROOT
TORSDOF 0
ENDMDL
MODEL 3
REMARK VINA RESULT: -4.194326811      2.357      3.370
REMARK  0 active torsions:
REMARK  status: ('A' for Active; 'I' for Inactive)
ROOT
HETATM    1  O1  UNL     1      -0.103  12.719  16.944  1.00  0.00    -0.234 OA
HETATM    2  S1  UNL     1      -1.432  13.353  17.253  1.00  0.00     0.136 S 
HETATM    3  C1  UNL     1      -1.980  14.432  15.889  1.00  0.00     0.363 C 
HETATM    4  N1  UNL     1      -2.409  15.652  16.524  1.00  0.00    -0.061 N 
ATOM      5  H11 UNL     1      -3.186  15.498  17.167  1.00  0.00     0.278 HD
ATOM      6  H12 UNL     1      -2.880  16.280  15.873  1.00  0.00     0.278 HD
HETATM    7  C2  UNL     1      -1.296  16.274  17.164  1.00  0.00     0.253 C 
HETATM    8  C3  UNL     1      -0.905  15.657  18.472  1.00  0.00     0.157 C 
HETATM    9  N2  UNL     1      -1.412  14.340  18.684  1.00  0.00    -0.338 N 
ATOM     10  H2  UNL     1      -1.735  14.008  19.593  1.00  0.00     0.169 HD
ENDROOT
TORSDOF 0
ENDMDL
MODEL 4
REMARK VINA RESULT: -4.104020396      2.037      2.562
REMARK  0 active torsions:
REMARK  status: ('A' for Active; 'I' for Inactive)
ROOT
HETATM    1  O1  UNL     1      -1.813  12.643  18.381  1.00  0.00    -0.234 OA
HETATM    2  S1  UNL     1      -1.095  13.590  17.460  1.00  0.00     0.136 S 
HETATM    3  C1  UNL     1      -2.141  15.023  17.041  1.00  0.00     0.363 C 
HETATM    4  N1  UNL     1      -2.024  15.170  15.613  1.00  0.00    -0.061 N 
ATOM      5  H11 UNL     1      -1.063  15.356  15.322  1.00  0.00     0.278 HD
ATOM      6  H12 UNL     1      -2.447  16.035  15.278  1.00  0.00     0.278 HD
HETATM    7  C2  UNL     1      -2.568  14.019  14.969  1.00  0.00     0.253 C 
HETATM    8  C3  UNL     1      -1.672  12.818  14.981  1.00  0.00     0.157 C 
HETATM    9  N2  UNL     1      -0.626  12.866  15.951  1.00  0.00    -0.338 N 
ATOM     10  H2  UNL     1       0.313  12.507  15.774  1.00  0.00     0.169 HD
ENDROOT
TORSDOF 0
ENDMDL
MODEL 5
REMARK VINA RESULT: -4.082459095      2.191      2.785
REMARK  0 active torsions:
REMARK  status: ('A' for Active; 'I' for Inactive)
ROOT
HETATM    1  O1  UNL     1      -1.697  15.438  19.760  1.00  0.00    -0.234 OA
HETATM    2  S1  UNL     1      -0.960  15.592  18.458  1.00  0.00     0.136 S 
HETATM    3  C1  UNL     1      -1.954  16.522  17.244  1.00  0.00     0.363 C 
HETATM    4  N1  UNL     1      -1.862  15.762  16.023  1.00  0.00    -0.061 N 
ATOM      5  H11 UNL     1      -0.902  15.687  15.687  1.00  0.00     0.278 HD
ATOM      6  H12 UNL     1      -2.257  16.264  15.227  1.00  0.00     0.278 HD
HETATM    7  C2  UNL     1      -2.469  14.485  16.209  1.00  0.00     0.253 C 
HETATM    8  C3  UNL     1      -1.626  13.499  16.959  1.00  0.00     0.157 C 
HETATM    9  N2  UNL     1      -0.557  14.078  17.707  1.00  0.00    -0.338 N 
ATOM     10  H2  UNL     1       0.362  13.642  17.792  1.00  0.00     0.169 HD
ENDROOT
TORSDOF 0
ENDMDL
