MODEL 1
REMARK VINA RESULT: -5.315700529      0.000      0.000
REMARK  1 active torsions:
REMARK  status: ('A' for Active; 'I' for Inactive)
REMARK    1  A    between atoms: C1_4  and  N2_5 
ROOT
HETATM    1  N2  UNL     1      -1.908  14.823  16.707  1.00  0.00    -0.296 N 
HETATM    2  C2  UNL     1      -2.155  16.222  16.995  1.00  0.00     0.136 C 
HETATM    3  C3  UNL     1      -1.105  16.853  17.844  1.00  0.00     0.040 C 
HETATM    4  C4  UNL     1      -0.370  15.920  18.739  1.00  0.00     0.126 C 
HETATM    5  N3  UNL     1      -1.040  14.666  18.971  1.00  0.00    -0.343 N 
ATOM      6  H3  UNL     1      -1.130  14.275  19.908  1.00  0.00     0.164 HD
HETATM    7  C5  UNL     1      -1.573  13.996  17.828  1.00  0.00     0.323 C 
HETATM    8  O1  UNL     1      -1.741  12.758  17.798  1.00  0.00    -0.247 OA
ENDROOT
BRANCH   1   9
HETATM    9  C1  UNL     1      -1.981  14.258  15.415  1.00  0.00     0.180 C 
HETATM   10  N1  UNL     1      -3.064  13.783  14.925  1.00  0.00    -0.395 N 
ATOM     11  H12 UNL     1      -3.901  13.822  15.507  1.00  0.00     0.156 HD
ATOM     12  H11 UNL     1      -3.117  13.376  13.991  1.00  0.00     0.156 HD
ENDBRANCH   1   9
TORSDOF 1
ENDMDL
MODEL 2
REMARK VINA RESULT: -4.939975799      1.822      2.580
REMARK  1 active torsions:
REMARK  status: ('A' for Active; 'I' for Inactive)
REMARK    1  A    between atoms: C1_4  and  N2_5 
ROOT
HETATM    1  N2  UNL     1      -1.277  14.644  17.288  1.00  0.00    -0.296 N 
HETATM    2  C2  UNL     1      -0.846  15.572  18.315  1.00  0.00     0.136 C 
HETATM    3  C3  UNL     1      -1.874  16.589  18.673  1.00  0.00     0.040 C 
HETATM    4  C4  UNL     1      -2.849  16.910  17.595  1.00  0.00     0.126 C 
HETATM    5  N3  UNL     1      -2.418  16.533  16.272  1.00  0.00    -0.343 N 
ATOM      6  H3  UNL     1      -2.502  17.172  15.482  1.00  0.00     0.164 HD
HETATM    7  C5  UNL     1      -1.869  15.224  16.119  1.00  0.00     0.323 C 
HETATM    8  O1  UNL     1      -1.897  14.611  15.030  1.00  0.00    -0.247 OA
ENDROOT
BRANCH   1   9
HETATM    9  C1  UNL     1      -1.145  13.241  17.385  1.00  0.00     0.180 C 
HETATM   10  N1  UNL     1      -0.376  12.562  16.618  1.00  0.00    -0.395 N 
ATOM     11  H12 UNL     1       0.155  13.072  15.912  1.00  0.00     0.156 HD
ATOM     12  H11 UNL     1      -0.280  11.549  16.689  1.00  0.00     0.156 HD
ENDBRANCH   1   9
TORSDOF 1
ENDMDL
MODEL 3
REMARK VINA RESULT: -4.911647003      1.634      3.740
REMARK  1 active torsions:
REMARK  status: ('A' for Active; 'I' for Inactive)
REMARK    1  A    between atoms: C1_4  and  N2_5 
ROOT
HETATM    1  N2  UNL     1      -1.412  14.486  17.575  1.00  0.00    -0.296 N 
HETATM    2  C2  UNL     1      -1.173  13.098  17.232  1.00  0.00     0.136 C 
HETATM    3  C3  UNL     1      -1.197  12.832  15.765  1.00  0.00     0.040 C 
HETATM    4  C4  UNL     1      -2.025  13.774  14.965  1.00  0.00     0.126 C 
HETATM    5  N3  UNL     1      -2.995  14.513  15.732  1.00  0.00    -0.343 N 
ATOM      6  H3  UNL     1      -3.961  14.608  15.421  1.00  0.00     0.164 HD
HETATM    7  C5  UNL     1      -2.539  15.108  16.949  1.00  0.00     0.323 C 
HETATM    8  O1  UNL     1      -3.089  16.115  17.446  1.00  0.00    -0.247 OA
ENDROOT
BRANCH   1   9
HETATM    9  C1  UNL     1      -0.609  15.226  18.471  1.00  0.00     0.180 C 
HETATM   10  N1  UNL     1      -1.061  15.718  19.563  1.00  0.00    -0.395 N 
ATOM     11  H12 UNL     1      -2.044  15.560  19.780  1.00  0.00     0.156 HD
ATOM     12  H11 UNL     1      -0.480  16.253  20.210  1.00  0.00     0.156 HD
ENDBRANCH   1   9
TORSDOF 1
ENDMDL
MODEL 4
REMARK VINA RESULT: -4.909796722      1.719      1.859
REMARK  1 active torsions:
REMARK  status: ('A' for Active; 'I' for Inactive)
REMARK    1  A    between atoms: C1_4  and  N2_5 
ROOT
HETATM    1  N2  UNL     1      -1.442  14.692  17.721  1.00  0.00    -0.296 N 
HETATM    2  C2  UNL     1      -2.260  15.848  17.412  1.00  0.00     0.136 C 
HETATM    3  C3  UNL     1      -1.479  17.104  17.236  1.00  0.00     0.040 C 
HETATM    4  C4  UNL     1      -0.185  17.152  17.969  1.00  0.00     0.126 C 
HETATM    5  N3  UNL     1      -0.075  16.202  19.045  1.00  0.00    -0.343 N 
ATOM      6  H3  UNL     1       0.275  16.474  19.963  1.00  0.00     0.164 HD
HETATM    7  C5  UNL     1      -0.478  14.860  18.768  1.00  0.00     0.323 C 
HETATM    8  O1  UNL     1      -0.022  13.882  19.398  1.00  0.00    -0.247 OA
ENDROOT
BRANCH   1   9
HETATM    9  C1  UNL     1      -1.550  13.449  17.059  1.00  0.00     0.180 C 
HETATM   10  N1  UNL     1      -0.531  12.792  16.646  1.00  0.00    -0.395 N 
ATOM     11  H12 UNL     1       0.390  13.199  16.810  1.00  0.00     0.156 HD
ATOM     12  H11 UNL     1      -0.609  11.894  16.168  1.00  0.00     0.156 HD
ENDBRANCH   1   9
TORSDOF 1
ENDMDL
MODEL 5
REMARK VINA RESULT: -4.898545514      1.152      1.152
REMARK  1 active torsions:
REMARK  status: ('A' for Active; 'I' for Inactive)
REMARK    1  A    between atoms: C1_4  and  N2_5 
ROOT
HETATM    1  N2  UNL     1      -1.683  15.355  17.361  1.00  0.00    -0.296 N 
HETATM    2  C2  UNL     1      -2.387  16.351  18.144  1.00  0.00     0.136 C 
HETATM    3  C3  UNL     1      -1.485  17.291  18.868  1.00  0.00     0.040 C 
HETATM    4  C4  UNL     1      -0.139  16.748  19.198  1.00  0.00     0.126 C 
HETATM    5  N3  UNL     1      -0.052  15.311  19.161  1.00  0.00    -0.343 N 
ATOM      6  H3  UNL     1       0.399  14.785  19.909  1.00  0.00     0.164 HD
HETATM    7  C5  UNL     1      -0.625  14.656  18.029  1.00  0.00     0.323 C 
HETATM    8  O1  UNL     1      -0.234  13.537  17.635  1.00  0.00    -0.247 OA
ENDROOT
BRANCH   1   9
HETATM    9  C1  UNL     1      -1.983  15.053  16.014  1.00  0.00     0.180 C 
HETATM   10  N1  UNL     1      -2.741  14.080  15.673  1.00  0.00    -0.395 N 
ATOM     11  H12 UNL     1      -3.137  13.508  16.419  1.00  0.00     0.156 HD
ATOM     12  H11 UNL     1      -2.958  13.862  14.700  1.00  0.00     0.156 HD
ENDBRANCH   1   9
TORSDOF 1
ENDMDL
