MODEL 1
REMARK VINA RESULT: -8.018156656      0.000      0.000
REMARK  16 active torsions:
REMARK  status: ('A' for Active; 'I' for Inactive)
REMARK    1  A    between atoms: N1_1  and  C1_5 
REMARK    2  A    between atoms: C1_5  and  C2_6 
REMARK    3  A    between atoms: C2_6  and  C3_7 
REMARK    4  A    between atoms: C2_6  and  C14_39 
REMARK    5  A    between atoms: C3_7  and  N2_8 
REMARK    6  A    between atoms: C6_13  and  O1_14 
REMARK    7  A    between atoms: C7_16  and  S1_17 
REMARK    8  A    between atoms: S1_17  and  S2_18 
REMARK    9  A    between atoms: S2_18  and  C8_19 
REMARK   10  A    between atoms: C8_19  and  C9_20 
REMARK   11  A    between atoms: C11_29  and  C12_30 
REMARK   12  A    between atoms: C12_30  and  O6_32 
REMARK   13  A    between atoms: O6_32  and  C13_33 
REMARK   14  A    between atoms: C13_33  and  O7_34 
REMARK   15  A    between atoms: C13_33  and  N6_36 
REMARK   16  A    between atoms: N6_36  and  O8_37 
ROOT
HETATM    1  N2  UNL     1       6.961 -21.646  -1.234  1.00  0.00    -0.270 N 
HETATM    2  N3  UNL     1       7.620 -22.467  -2.018  1.00  0.00    -0.298 N 
ATOM      3  H3  UNL     1       7.502 -23.480  -1.999  1.00  0.00     0.187 HD
HETATM    4  C4  UNL     1       8.461 -21.836  -2.847  1.00  0.00     0.066 A 
HETATM    5  C5  UNL     1       8.325 -20.494  -2.564  1.00  0.00     0.077 A 
HETATM    6  C6  UNL     1       7.381 -20.381  -1.550  1.00  0.00     0.172 A 
HETATM    7  C7  UNL     1       8.967 -19.302  -3.156  1.00  0.00     0.112 C 
HETATM    8  N4  UNL     1       9.725 -19.269  -4.174  1.00  0.00    -0.290 N 
ATOM      9  H4  UNL     1      10.070 -18.343  -4.427  1.00  0.00     0.187 HD
HETATM   10  N5  UNL     1      10.158 -20.312  -5.002  1.00  0.00    -0.268 N 
ATOM     11  H5  UNL     1      10.849 -20.072  -5.713  1.00  0.00     0.190 HD
HETATM   12  C10 UNL     1       9.741 -21.661  -4.960  1.00  0.00     0.255 C 
HETATM   13  O4  UNL     1       9.709 -22.221  -6.091  1.00  0.00    -0.270 OA
HETATM   14  C11 UNL     1       9.346 -22.496  -3.833  1.00  0.00     0.231 C 
ENDROOT
BRANCH   1  15
HETATM   15  C3  UNL     1       5.982 -21.857  -0.225  1.00  0.00     0.162 C 
BRANCH  15  16
HETATM   16  C2  UNL     1       4.545 -21.883  -0.576  1.00  0.00     0.071 C 
BRANCH  16  17
HETATM   17  C1  UNL     1       3.874 -22.524   0.670  1.00  0.00     0.240 C 
BRANCH  17  18
HETATM   18  N1  UNL     1       2.592 -21.907   0.942  1.00  0.00    -0.079 N 
ATOM     19  H13 UNL     1       2.227 -21.419   0.124  1.00  0.00     0.274 HD
ATOM     20  H12 UNL     1       1.853 -22.602   1.049  1.00  0.00     0.274 HD
ATOM     21  H11 UNL     1       2.650 -21.291   1.753  1.00  0.00     0.274 HD
ENDBRANCH  17  18
ENDBRANCH  16  17
BRANCH  16  22
HETATM   22  C14 UNL     1       4.101 -22.644  -1.718  1.00  0.00     0.040 A 
HETATM   23  C15 UNL     1       4.714 -23.809  -2.124  1.00  0.00     0.160 A 
HETATM   24  O9  UNL     1       4.335 -24.499  -3.198  1.00  0.00    -0.273 OA
HETATM   25  C16 UNL     1       3.321 -24.078  -3.939  1.00  0.00     0.372 A 
HETATM   26  O10 UNL     1       2.959 -24.735  -4.964  1.00  0.00    -0.238 OA
HETATM   27  N7  UNL     1       2.704 -22.963  -3.582  1.00  0.00    -0.269 N 
HETATM   28  C17 UNL     1       3.047 -22.218  -2.497  1.00  0.00     0.258 A 
ATOM     29  H7  UNL     1       1.924 -22.642  -4.156  1.00  0.00     0.174 HD
HETATM   30  O11 UNL     1       2.397 -21.180  -2.235  1.00  0.00    -0.267 OA
ENDBRANCH  16  22
ENDBRANCH  15  16
ENDBRANCH   1  15
BRANCH   6  31
HETATM   31  O1  UNL     1       6.945 -19.196  -0.966  1.00  0.00    -0.344 OA
ATOM     32  H1  UNL     1       6.526 -18.468  -1.411  1.00  0.00     0.219 HD
ENDBRANCH   6  31
BRANCH  14  33
HETATM   33  C12 UNL     1       8.773 -23.763  -4.369  1.00  0.00     0.281 C 
HETATM   34  O5  UNL     1       9.456 -24.783  -4.567  1.00  0.00    -0.264 OA
BRANCH  33  35
HETATM   35  O6  UNL     1       7.407 -23.795  -4.656  1.00  0.00    -0.272 OA
BRANCH  35  36
HETATM   36  C13 UNL     1       6.864 -24.433  -5.774  1.00  0.00     0.393 C 
BRANCH  36  37
HETATM   37  O7  UNL     1       6.035 -25.468  -5.420  1.00  0.00    -0.356 OA
ATOM     38  H7  UNL     1       6.154 -26.225  -5.981  1.00  0.00     0.214 HD
ENDBRANCH  36  37
BRANCH  36  39
HETATM   39  N6  UNL     1       6.032 -23.491  -6.545  1.00  0.00    -0.042 NA
BRANCH  39  40
HETATM   40  O8  UNL     1       6.475 -23.565  -7.841  1.00  0.00    -0.292 OA
ATOM     41  H8  UNL     1       7.159 -22.911  -7.923  1.00  0.00     0.239 HD
ENDBRANCH  39  40
ENDBRANCH  36  39
ENDBRANCH  35  36
ENDBRANCH  33  35
ENDBRANCH  14  33
BRANCH   7  42
HETATM   42  S1  UNL     1       8.608 -17.780  -2.297  1.00  0.00    -0.037 SA
BRANCH  42  43
HETATM   43  S2  UNL     1      10.041 -16.325  -2.970  1.00  0.00    -0.080 SA
BRANCH  43  44
HETATM   44  C8  UNL     1       9.083 -15.255  -4.134  1.00  0.00     0.199 C 
BRANCH  44  45
HETATM   45  C9  UNL     1       9.500 -15.721  -5.478  1.00  0.00     0.183 C 
HETATM   46  O2  UNL     1       9.344 -14.877  -6.416  1.00  0.00    -0.647 OA
HETATM   47  O3  UNL     1      10.021 -16.958  -5.733  1.00  0.00    -0.647 OA
ENDBRANCH  44  45
ENDBRANCH  43  44
ENDBRANCH  42  43
ENDBRANCH   7  42
TORSDOF 16
ENDMDL
MODEL 2
REMARK VINA RESULT: -7.798244895      2.651      7.371
REMARK  16 active torsions:
REMARK  status: ('A' for Active; 'I' for Inactive)
REMARK    1  A    between atoms: N1_1  and  C1_5 
REMARK    2  A    between atoms: C1_5  and  C2_6 
REMARK    3  A    between atoms: C2_6  and  C3_7 
REMARK    4  A    between atoms: C2_6  and  C14_39 
REMARK    5  A    between atoms: C3_7  and  N2_8 
REMARK    6  A    between atoms: C6_13  and  O1_14 
REMARK    7  A    between atoms: C7_16  and  S1_17 
REMARK    8  A    between atoms: S1_17  and  S2_18 
REMARK    9  A    between atoms: S2_18  and  C8_19 
REMARK   10  A    between atoms: C8_19  and  C9_20 
REMARK   11  A    between atoms: C11_29  and  C12_30 
REMARK   12  A    between atoms: C12_30  and  O6_32 
REMARK   13  A    between atoms: O6_32  and  C13_33 
REMARK   14  A    between atoms: C13_33  and  O7_34 
REMARK   15  A    between atoms: C13_33  and  N6_36 
REMARK   16  A    between atoms: N6_36  and  O8_37 
ROOT
HETATM    1  N2  UNL     1       8.713 -21.796  -3.707  1.00  0.00    -0.270 N 
HETATM    2  N3  UNL     1       8.567 -22.844  -4.486  1.00  0.00    -0.298 N 
ATOM      3  H3  UNL     1       9.214 -23.081  -5.238  1.00  0.00     0.187 HD
HETATM    4  C4  UNL     1       7.481 -23.569  -4.188  1.00  0.00     0.066 A 
HETATM    5  C5  UNL     1       6.883 -22.925  -3.126  1.00  0.00     0.077 A 
HETATM    6  C6  UNL     1       7.662 -21.813  -2.829  1.00  0.00     0.172 A 
HETATM    7  C7  UNL     1       5.673 -23.251  -2.344  1.00  0.00     0.112 C 
HETATM    8  N4  UNL     1       4.972 -24.306  -2.425  1.00  0.00    -0.290 N 
ATOM      9  H4  UNL     1       4.171 -24.343  -1.795  1.00  0.00     0.187 HD
HETATM   10  N5  UNL     1       5.134 -25.428  -3.248  1.00  0.00    -0.268 N 
ATOM     11  H5  UNL     1       4.391 -26.126  -3.218  1.00  0.00     0.190 HD
HETATM   12  C10 UNL     1       6.215 -25.696  -4.117  1.00  0.00     0.255 C 
HETATM   13  O4  UNL     1       6.493 -26.923  -4.221  1.00  0.00    -0.270 OA
HETATM   14  C11 UNL     1       7.050 -24.794  -4.899  1.00  0.00     0.231 C 
ENDROOT
BRANCH   1  15
HETATM   15  C3  UNL     1       9.695 -20.771  -3.649  1.00  0.00     0.162 C 
BRANCH  15  16
HETATM   16  C2  UNL     1      10.106 -20.064  -4.883  1.00  0.00     0.071 C 
BRANCH  16  17
HETATM   17  C1  UNL     1      11.581 -20.511  -5.088  1.00  0.00     0.240 C 
BRANCH  17  18
HETATM   18  N1  UNL     1      11.690 -21.439  -6.194  1.00  0.00    -0.079 N 
ATOM     19  H13 UNL     1      10.779 -21.654  -6.597  1.00  0.00     0.274 HD
ATOM     20  H12 UNL     1      12.122 -21.005  -7.010  1.00  0.00     0.274 HD
ATOM     21  H11 UNL     1      12.186 -22.285  -5.911  1.00  0.00     0.274 HD
ENDBRANCH  17  18
ENDBRANCH  16  17
BRANCH  16  22
HETATM   22  C14 UNL     1      10.107 -18.622  -4.914  1.00  0.00     0.040 A 
HETATM   23  C15 UNL     1       9.839 -17.850  -3.806  1.00  0.00     0.160 A 
HETATM   24  O9  UNL     1       9.801 -16.519  -3.833  1.00  0.00    -0.273 OA
HETATM   25  C16 UNL     1      10.029 -15.867  -4.963  1.00  0.00     0.372 A 
HETATM   26  O10 UNL     1       9.993 -14.597  -4.990  1.00  0.00    -0.238 OA
HETATM   27  N7  UNL     1      10.293 -16.572  -6.051  1.00  0.00    -0.269 N 
HETATM   28  C17 UNL     1      10.345 -17.931  -6.083  1.00  0.00     0.258 A 
ATOM     29  H7  UNL     1      10.467 -16.066  -6.919  1.00  0.00     0.174 HD
HETATM   30  O11 UNL     1      10.610 -18.510  -7.161  1.00  0.00    -0.267 OA
ENDBRANCH  16  22
ENDBRANCH  15  16
ENDBRANCH   1  15
BRANCH   6  31
HETATM   31  O1  UNL     1       7.414 -20.887  -1.820  1.00  0.00    -0.344 OA
ATOM     32  H1  UNL     1       6.649 -20.330  -1.741  1.00  0.00     0.219 HD
ENDBRANCH   6  31
BRANCH  14  33
HETATM   33  C12 UNL     1       8.191 -25.575  -5.453  1.00  0.00     0.281 C 
HETATM   34  O5  UNL     1       9.118 -26.009  -4.747  1.00  0.00    -0.264 OA
BRANCH  33  35
HETATM   35  O6  UNL     1       8.209 -25.825  -6.826  1.00  0.00    -0.272 OA
BRANCH  35  36
HETATM   36  C13 UNL     1       8.902 -25.038  -7.749  1.00  0.00     0.393 C 
BRANCH  36  37
HETATM   37  O7  UNL     1       8.048 -24.302  -8.534  1.00  0.00    -0.356 OA
ATOM     38  H7  UNL     1       8.399 -24.165  -9.406  1.00  0.00     0.214 HD
ENDBRANCH  36  37
BRANCH  36  39
HETATM   39  N6  UNL     1       9.756 -24.061  -7.050  1.00  0.00    -0.042 NA
BRANCH  39  40
HETATM   40  O8  UNL     1       9.312 -22.822  -7.435  1.00  0.00    -0.292 OA
ATOM     41  H8  UNL     1       9.772 -22.617  -8.241  1.00  0.00     0.239 HD
ENDBRANCH  39  40
ENDBRANCH  36  39
ENDBRANCH  35  36
ENDBRANCH  33  35
ENDBRANCH  14  33
BRANCH   7  42
HETATM   42  S1  UNL     1       5.192 -21.982  -1.186  1.00  0.00    -0.037 SA
BRANCH  42  43
HETATM   43  S2  UNL     1       3.078 -22.200  -0.857  1.00  0.00    -0.080 SA
BRANCH  43  44
HETATM   44  C8  UNL     1       2.326 -21.828  -2.504  1.00  0.00     0.199 C 
BRANCH  44  45
HETATM   45  C9  UNL     1       1.570 -23.058  -2.840  1.00  0.00     0.183 C 
HETATM   46  O2  UNL     1       0.311 -22.980  -2.680  1.00  0.00    -0.647 OA
HETATM   47  O3  UNL     1       2.145 -24.212  -3.294  1.00  0.00    -0.647 OA
ENDBRANCH  44  45
ENDBRANCH  43  44
ENDBRANCH  42  43
ENDBRANCH   7  42
TORSDOF 16
ENDMDL
MODEL 3
REMARK VINA RESULT: -7.716325349      1.166      1.468
REMARK  16 active torsions:
REMARK  status: ('A' for Active; 'I' for Inactive)
REMARK    1  A    between atoms: N1_1  and  C1_5 
REMARK    2  A    between atoms: C1_5  and  C2_6 
REMARK    3  A    between atoms: C2_6  and  C3_7 
REMARK    4  A    between atoms: C2_6  and  C14_39 
REMARK    5  A    between atoms: C3_7  and  N2_8 
REMARK    6  A    between atoms: C6_13  and  O1_14 
REMARK    7  A    between atoms: C7_16  and  S1_17 
REMARK    8  A    between atoms: S1_17  and  S2_18 
REMARK    9  A    between atoms: S2_18  and  C8_19 
REMARK   10  A    between atoms: C8_19  and  C9_20 
REMARK   11  A    between atoms: C11_29  and  C12_30 
REMARK   12  A    between atoms: C12_30  and  O6_32 
REMARK   13  A    between atoms: O6_32  and  C13_33 
REMARK   14  A    between atoms: C13_33  and  O7_34 
REMARK   15  A    between atoms: C13_33  and  N6_36 
REMARK   16  A    between atoms: N6_36  and  O8_37 
ROOT
HETATM    1  N2  UNL     1       7.177 -21.243  -1.424  1.00  0.00    -0.270 N 
HETATM    2  N3  UNL     1       7.813 -22.094  -2.195  1.00  0.00    -0.298 N 
ATOM      3  H3  UNL     1       7.672 -23.103  -2.157  1.00  0.00     0.187 HD
HETATM    4  C4  UNL     1       8.668 -21.498  -3.037  1.00  0.00     0.066 A 
HETATM    5  C5  UNL     1       8.565 -20.148  -2.778  1.00  0.00     0.077 A 
HETATM    6  C6  UNL     1       7.626 -19.995  -1.764  1.00  0.00     0.172 A 
HETATM    7  C7  UNL     1       9.234 -18.983  -3.393  1.00  0.00     0.112 C 
HETATM    8  N4  UNL     1       9.989 -18.987  -4.413  1.00  0.00    -0.290 N 
ATOM      9  H4  UNL     1      10.356 -18.074  -4.684  1.00  0.00     0.187 HD
HETATM   10  N5  UNL     1      10.395 -20.055  -5.223  1.00  0.00    -0.268 N 
ATOM     11  H5  UNL     1      11.090 -19.845  -5.940  1.00  0.00     0.190 HD
HETATM   12  C10 UNL     1       9.946 -21.393  -5.155  1.00  0.00     0.255 C 
HETATM   13  O4  UNL     1       9.897 -21.972  -6.276  1.00  0.00    -0.270 OA
HETATM   14  C11 UNL     1       9.533 -22.197  -4.013  1.00  0.00     0.231 C 
ENDROOT
BRANCH   1  15
HETATM   15  C3  UNL     1       6.196 -21.412  -0.409  1.00  0.00     0.162 C 
BRANCH  15  16
HETATM   16  C2  UNL     1       4.932 -22.122  -0.707  1.00  0.00     0.071 C 
BRANCH  16  17
HETATM   17  C1  UNL     1       4.255 -22.266   0.685  1.00  0.00     0.240 C 
BRANCH  17  18
HETATM   18  N1  UNL     1       2.839 -21.973   0.603  1.00  0.00    -0.079 N 
ATOM     19  H13 UNL     1       2.435 -22.305  -0.273  1.00  0.00     0.274 HD
ATOM     20  H12 UNL     1       2.297 -22.546   1.250  1.00  0.00     0.274 HD
ATOM     21  H11 UNL     1       2.665 -20.978   0.745  1.00  0.00     0.274 HD
ENDBRANCH  17  18
ENDBRANCH  16  17
BRANCH  16  22
HETATM   22  C14 UNL     1       4.973 -23.445  -1.281  1.00  0.00     0.040 A 
HETATM   23  C15 UNL     1       5.464 -24.539  -0.604  1.00  0.00     0.160 A 
HETATM   24  O9  UNL     1       5.540 -25.756  -1.139  1.00  0.00    -0.273 OA
HETATM   25  C16 UNL     1       5.132 -25.967  -2.381  1.00  0.00     0.372 A 
HETATM   26  O10 UNL     1       5.205 -27.128  -2.893  1.00  0.00    -0.238 OA
HETATM   27  N7  UNL     1       4.653 -24.941  -3.066  1.00  0.00    -0.269 N 
HETATM   28  C17 UNL     1       4.551 -23.678  -2.572  1.00  0.00     0.258 A 
ATOM     29  H7  UNL     1       4.340 -25.108  -4.023  1.00  0.00     0.174 HD
HETATM   30  O11 UNL     1       4.075 -22.773  -3.295  1.00  0.00    -0.267 OA
ENDBRANCH  16  22
ENDBRANCH  15  16
ENDBRANCH   1  15
BRANCH   6  31
HETATM   31  O1  UNL     1       7.221 -18.788  -1.201  1.00  0.00    -0.344 OA
ATOM     32  H1  UNL     1       7.263 -18.552  -0.281  1.00  0.00     0.219 HD
ENDBRANCH   6  31
BRANCH  14  33
HETATM   33  C12 UNL     1       8.929 -23.460  -4.524  1.00  0.00     0.281 C 
HETATM   34  O5  UNL     1       9.608 -24.440  -4.875  1.00  0.00    -0.264 OA
BRANCH  33  35
HETATM   35  O6  UNL     1       7.538 -23.534  -4.607  1.00  0.00    -0.272 OA
BRANCH  35  36
HETATM   36  C13 UNL     1       6.829 -23.505  -5.810  1.00  0.00     0.393 C 
BRANCH  36  37
HETATM   37  O7  UNL     1       7.666 -23.551  -6.898  1.00  0.00    -0.356 OA
ATOM     38  H7  UNL     1       7.309 -24.087  -7.596  1.00  0.00     0.214 HD
ENDBRANCH  36  37
BRANCH  36  39
HETATM   39  N6  UNL     1       5.956 -24.688  -5.918  1.00  0.00    -0.042 NA
BRANCH  39  40
HETATM   40  O8  UNL     1       4.674 -24.209  -6.004  1.00  0.00    -0.292 OA
ATOM     41  H8  UNL     1       4.289 -24.624  -6.767  1.00  0.00     0.239 HD
ENDBRANCH  39  40
ENDBRANCH  36  39
ENDBRANCH  35  36
ENDBRANCH  33  35
ENDBRANCH  14  33
BRANCH   7  42
HETATM   42  S1  UNL     1       8.913 -17.438  -2.561  1.00  0.00    -0.037 SA
BRANCH  42  43
HETATM   43  S2  UNL     1      10.466 -16.072  -3.153  1.00  0.00    -0.080 SA
BRANCH  43  44
HETATM   44  C8  UNL     1       9.575 -14.767  -4.113  1.00  0.00     0.199 C 
BRANCH  44  45
HETATM   45  C9  UNL     1       9.725 -15.194  -5.525  1.00  0.00     0.183 C 
HETATM   46  O2  UNL     1       9.705 -14.253  -6.379  1.00  0.00    -0.647 OA
HETATM   47  O3  UNL     1       9.879 -16.492  -5.921  1.00  0.00    -0.647 OA
ENDBRANCH  44  45
ENDBRANCH  43  44
ENDBRANCH  42  43
ENDBRANCH   7  42
TORSDOF 16
ENDMDL
MODEL 4
REMARK VINA RESULT: -7.693828691      2.963      7.003
REMARK  16 active torsions:
REMARK  status: ('A' for Active; 'I' for Inactive)
REMARK    1  A    between atoms: N1_1  and  C1_5 
REMARK    2  A    between atoms: C1_5  and  C2_6 
REMARK    3  A    between atoms: C2_6  and  C3_7 
REMARK    4  A    between atoms: C2_6  and  C14_39 
REMARK    5  A    between atoms: C3_7  and  N2_8 
REMARK    6  A    between atoms: C6_13  and  O1_14 
REMARK    7  A    between atoms: C7_16  and  S1_17 
REMARK    8  A    between atoms: S1_17  and  S2_18 
REMARK    9  A    between atoms: S2_18  and  C8_19 
REMARK   10  A    between atoms: C8_19  and  C9_20 
REMARK   11  A    between atoms: C11_29  and  C12_30 
REMARK   12  A    between atoms: C12_30  and  O6_32 
REMARK   13  A    between atoms: O6_32  and  C13_33 
REMARK   14  A    between atoms: C13_33  and  O7_34 
REMARK   15  A    between atoms: C13_33  and  N6_36 
REMARK   16  A    between atoms: N6_36  and  O8_37 
ROOT
HETATM    1  N2  UNL     1       8.644 -21.858  -3.956  1.00  0.00    -0.270 N 
HETATM    2  N3  UNL     1       8.263 -22.503  -5.035  1.00  0.00    -0.298 N 
ATOM      3  H3  UNL     1       8.631 -22.310  -5.966  1.00  0.00     0.187 HD
HETATM    4  C4  UNL     1       7.340 -23.441  -4.785  1.00  0.00     0.066 A 
HETATM    5  C5  UNL     1       7.116 -23.388  -3.426  1.00  0.00     0.077 A 
HETATM    6  C6  UNL     1       7.938 -22.392  -2.911  1.00  0.00     0.172 A 
HETATM    7  C7  UNL     1       6.230 -24.186  -2.552  1.00  0.00     0.112 C 
HETATM    8  N4  UNL     1       5.551 -25.207  -2.880  1.00  0.00    -0.290 N 
ATOM      9  H4  UNL     1       4.999 -25.619  -2.128  1.00  0.00     0.187 HD
HETATM   10  N5  UNL     1       5.447 -25.853  -4.118  1.00  0.00    -0.268 N 
ATOM     11  H5  UNL     1       4.762 -26.606  -4.183  1.00  0.00     0.190 HD
HETATM   12  C10 UNL     1       6.189 -25.575  -5.288  1.00  0.00     0.255 C 
HETATM   13  O4  UNL     1       6.429 -26.593  -5.994  1.00  0.00    -0.270 OA
HETATM   14  C11 UNL     1       6.714 -24.316  -5.801  1.00  0.00     0.231 C 
ENDROOT
BRANCH   1  15
HETATM   15  C3  UNL     1       9.581 -20.811  -3.742  1.00  0.00     0.162 C 
BRANCH  15  16
HETATM   16  C2  UNL     1      10.136 -20.063  -4.892  1.00  0.00     0.071 C 
BRANCH  16  17
HETATM   17  C1  UNL     1      11.633 -20.479  -4.913  1.00  0.00     0.240 C 
BRANCH  17  18
HETATM   18  N1  UNL     1      11.970 -21.133  -6.161  1.00  0.00    -0.079 N 
ATOM     19  H13 UNL     1      11.559 -20.653  -6.961  1.00  0.00     0.274 HD
ATOM     20  H12 UNL     1      12.955 -21.011  -6.398  1.00  0.00     0.274 HD
ATOM     21  H11 UNL     1      11.707 -22.118  -6.137  1.00  0.00     0.274 HD
ENDBRANCH  17  18
ENDBRANCH  16  17
BRANCH  16  22
HETATM   22  C14 UNL     1      10.111 -18.621  -4.885  1.00  0.00     0.040 A 
HETATM   23  C15 UNL     1       9.823 -17.883  -3.759  1.00  0.00     0.160 A 
HETATM   24  O9  UNL     1       9.762 -16.552  -3.751  1.00  0.00    -0.273 OA
HETATM   25  C16 UNL     1       9.985 -15.867  -4.862  1.00  0.00     0.372 A 
HETATM   26  O10 UNL     1       9.926 -14.598  -4.857  1.00  0.00    -0.238 OA
HETATM   27  N7  UNL     1      10.266 -16.539  -5.967  1.00  0.00    -0.269 N 
HETATM   28  C17 UNL     1      10.342 -17.895  -6.035  1.00  0.00     0.258 A 
ATOM     29  H7  UNL     1      10.436 -16.006  -6.821  1.00  0.00     0.174 HD
HETATM   30  O11 UNL     1      10.623 -18.440  -7.126  1.00  0.00    -0.267 OA
ENDBRANCH  16  22
ENDBRANCH  15  16
ENDBRANCH   1  15
BRANCH   6  31
HETATM   31  O1  UNL     1       8.023 -22.011  -1.576  1.00  0.00    -0.344 OA
ATOM     32  H1  UNL     1       7.295 -21.871  -0.981  1.00  0.00     0.219 HD
ENDBRANCH   6  31
BRANCH  14  33
HETATM   33  C12 UNL     1       7.620 -24.618  -6.944  1.00  0.00     0.281 C 
HETATM   34  O5  UNL     1       7.247 -24.582  -8.130  1.00  0.00    -0.264 OA
BRANCH  33  35
HETATM   35  O6  UNL     1       8.944 -24.954  -6.660  1.00  0.00    -0.272 OA
BRANCH  35  36
HETATM   36  C13 UNL     1      10.040 -24.167  -7.024  1.00  0.00     0.393 C 
BRANCH  36  37
HETATM   37  O7  UNL     1       9.655 -22.915  -7.434  1.00  0.00    -0.356 OA
ATOM     38  H7  UNL     1      10.126 -22.636  -8.211  1.00  0.00     0.214 HD
ENDBRANCH  36  37
BRANCH  36  39
HETATM   39  N6  UNL     1      10.928 -23.960  -5.865  1.00  0.00    -0.042 NA
BRANCH  39  40
HETATM   40  O8  UNL     1      12.204 -24.166  -6.322  1.00  0.00    -0.292 OA
ATOM     41  H8  UNL     1      12.764 -23.600  -5.804  1.00  0.00     0.239 HD
ENDBRANCH  39  40
ENDBRANCH  36  39
ENDBRANCH  35  36
ENDBRANCH  33  35
ENDBRANCH  14  33
BRANCH   7  42
HETATM   42  S1  UNL     1       6.140 -23.592  -0.872  1.00  0.00    -0.037 SA
BRANCH  42  43
HETATM   43  S2  UNL     1       4.723 -21.974  -0.853  1.00  0.00    -0.080 SA
BRANCH  43  44
HETATM   44  C8  UNL     1       5.380 -20.815   0.429  1.00  0.00     0.199 C 
BRANCH  44  45
HETATM   45  C9  UNL     1       5.831 -19.637  -0.349  1.00  0.00     0.183 C 
HETATM   46  O2  UNL     1       5.015 -18.663  -0.377  1.00  0.00    -0.647 OA
HETATM   47  O3  UNL     1       7.030 -19.561  -1.001  1.00  0.00    -0.647 OA
ENDBRANCH  44  45
ENDBRANCH  43  44
ENDBRANCH  42  43
ENDBRANCH   7  42
TORSDOF 16
ENDMDL
MODEL 5
REMARK VINA RESULT: -7.645921034      2.884      7.185
REMARK  16 active torsions:
REMARK  status: ('A' for Active; 'I' for Inactive)
REMARK    1  A    between atoms: N1_1  and  C1_5 
REMARK    2  A    between atoms: C1_5  and  C2_6 
REMARK    3  A    between atoms: C2_6  and  C3_7 
REMARK    4  A    between atoms: C2_6  and  C14_39 
REMARK    5  A    between atoms: C3_7  and  N2_8 
REMARK    6  A    between atoms: C6_13  and  O1_14 
REMARK    7  A    between atoms: C7_16  and  S1_17 
REMARK    8  A    between atoms: S1_17  and  S2_18 
REMARK    9  A    between atoms: S2_18  and  C8_19 
REMARK   10  A    between atoms: C8_19  and  C9_20 
REMARK   11  A    between atoms: C11_29  and  C12_30 
REMARK   12  A    between atoms: C12_30  and  O6_32 
REMARK   13  A    between atoms: O6_32  and  C13_33 
REMARK   14  A    between atoms: C13_33  and  O7_34 
REMARK   15  A    between atoms: C13_33  and  N6_36 
REMARK   16  A    between atoms: N6_36  and  O8_37 
ROOT
HETATM    1  N2  UNL     1       8.195 -22.349  -3.622  1.00  0.00    -0.270 N 
HETATM    2  N3  UNL     1       8.080 -23.310  -4.509  1.00  0.00    -0.298 N 
ATOM      3  H3  UNL     1       8.786 -23.510  -5.217  1.00  0.00     0.187 HD
HETATM    4  C4  UNL     1       6.938 -23.999  -4.387  1.00  0.00     0.066 A 
HETATM    5  C5  UNL     1       6.268 -23.426  -3.327  1.00  0.00     0.077 A 
HETATM    6  C6  UNL     1       7.064 -22.389  -2.851  1.00  0.00     0.172 A 
HETATM    7  C7  UNL     1       4.973 -23.757  -2.698  1.00  0.00     0.112 C 
HETATM    8  N4  UNL     1       4.237 -24.760  -2.947  1.00  0.00    -0.290 N 
ATOM      9  H4  UNL     1       3.377 -24.812  -2.402  1.00  0.00     0.187 HD
HETATM   10  N5  UNL     1       4.429 -25.808  -3.858  1.00  0.00    -0.268 N 
ATOM     11  H5  UNL     1       3.656 -26.464  -3.965  1.00  0.00     0.190 HD
HETATM   12  C10 UNL     1       5.577 -26.052  -4.643  1.00  0.00     0.255 C 
HETATM   13  O4  UNL     1       5.808 -27.277  -4.841  1.00  0.00    -0.270 OA
HETATM   14  C11 UNL     1       6.524 -25.127  -5.252  1.00  0.00     0.231 C 
ENDROOT
BRANCH   1  15
HETATM   15  C3  UNL     1       9.212 -21.388  -3.372  1.00  0.00     0.162 C 
BRANCH  15  16
HETATM   16  C2  UNL     1       9.722 -20.540  -4.473  1.00  0.00     0.071 C 
BRANCH  16  17
HETATM   17  C1  UNL     1      11.199 -20.996  -4.633  1.00  0.00     0.240 C 
BRANCH  17  18
HETATM   18  N1  UNL     1      11.389 -21.702  -5.884  1.00  0.00    -0.079 N 
ATOM     19  H13 UNL     1      12.378 -21.807  -6.111  1.00  0.00     0.274 HD
ATOM     20  H12 UNL     1      11.144 -22.688  -5.801  1.00  0.00     0.274 HD
ATOM     21  H11 UNL     1      10.875 -21.247  -6.638  1.00  0.00     0.274 HD
ENDBRANCH  17  18
ENDBRANCH  16  17
BRANCH  16  22
HETATM   22  C14 UNL     1       9.750 -19.107  -4.317  1.00  0.00     0.040 A 
HETATM   23  C15 UNL     1       9.284 -18.467  -3.191  1.00  0.00     0.160 A 
HETATM   24  O9  UNL     1       9.272 -17.142  -3.053  1.00  0.00    -0.273 OA
HETATM   25  C16 UNL     1       9.724 -16.365  -4.026  1.00  0.00     0.372 A 
HETATM   26  O10 UNL     1       9.712 -15.102  -3.896  1.00  0.00    -0.238 OA
HETATM   27  N7  UNL     1      10.182 -16.941  -5.126  1.00  0.00    -0.269 N 
HETATM   28  C17 UNL     1      10.219 -18.287  -5.322  1.00  0.00     0.258 A 
ATOM     29  H7  UNL     1      10.528 -16.339  -5.873  1.00  0.00     0.174 HD
HETATM   30  O11 UNL     1      10.679 -18.738  -6.395  1.00  0.00    -0.267 OA
ENDBRANCH  16  22
ENDBRANCH  15  16
ENDBRANCH   1  15
BRANCH   6  31
HETATM   31  O1  UNL     1       6.759 -21.549  -1.784  1.00  0.00    -0.344 OA
ATOM     32  H1  UNL     1       6.632 -21.810  -0.880  1.00  0.00     0.219 HD
ENDBRANCH   6  31
BRANCH  14  33
HETATM   33  C12 UNL     1       7.679 -25.914  -5.770  1.00  0.00     0.281 C 
HETATM   34  O5  UNL     1       8.506 -26.470  -5.027  1.00  0.00    -0.264 OA
BRANCH  33  35
HETATM   35  O6  UNL     1       7.827 -26.027  -7.153  1.00  0.00    -0.272 OA
BRANCH  35  36
HETATM   36  C13 UNL     1       8.541 -25.115  -7.934  1.00  0.00     0.393 C 
BRANCH  36  37
HETATM   37  O7  UNL     1       7.707 -24.260  -8.612  1.00  0.00    -0.356 OA
ATOM     38  H7  UNL     1       7.993 -23.357  -8.542  1.00  0.00     0.214 HD
ENDBRANCH  36  37
BRANCH  36  39
HETATM   39  N6  UNL     1       9.389 -24.264  -7.080  1.00  0.00    -0.042 NA
BRANCH  39  40
HETATM   40  O8  UNL     1       9.171 -22.974  -7.492  1.00  0.00    -0.292 OA
ATOM     41  H8  UNL     1      10.030 -22.582  -7.595  1.00  0.00     0.239 HD
ENDBRANCH  39  40
ENDBRANCH  36  39
ENDBRANCH  35  36
ENDBRANCH  33  35
ENDBRANCH  14  33
BRANCH   7  42
HETATM   42  S1  UNL     1       4.438 -22.577  -1.471  1.00  0.00    -0.037 SA
BRANCH  42  43
HETATM   43  S2  UNL     1       2.343 -22.231  -1.805  1.00  0.00    -0.080 SA
BRANCH  43  44
HETATM   44  C8  UNL     1       2.238 -21.796  -3.599  1.00  0.00     0.199 C 
BRANCH  44  45
HETATM   45  C9  UNL     1       0.839 -21.339  -3.778  1.00  0.00     0.183 C 
HETATM   46  O2  UNL     1       0.457 -20.438  -2.967  1.00  0.00    -0.647 OA
HETATM   47  O3  UNL     1      -0.009 -21.824  -4.733  1.00  0.00    -0.647 OA
ENDBRANCH  44  45
ENDBRANCH  43  44
ENDBRANCH  42  43
ENDBRANCH   7  42
TORSDOF 16
ENDMDL
