MODEL 1
REMARK VINA RESULT: -7.989999160      0.000      0.000
REMARK  16 active torsions:
REMARK  status: ('A' for Active; 'I' for Inactive)
REMARK    1  A    between atoms: S1_2  and  C2_3 
REMARK    2  A    between atoms: C4_7  and  N1_8 
REMARK    3  A    between atoms: N1_8  and  C5_10 
REMARK    4  A    between atoms: C5_10  and  O3_11 
REMARK    5  A    between atoms: C5_10  and  C6_13 
REMARK    6  A    between atoms: N2_15  and  C8_16 
REMARK    7  A    between atoms: C8_16  and  C9_17 
REMARK    8  A    between atoms: C9_17  and  O4_18 
REMARK    9  A    between atoms: C9_17  and  C10_20 
REMARK   10  A    between atoms: C10_20  and  O5_21 
REMARK   11  A    between atoms: C10_20  and  C11_23 
REMARK       I    between atoms: N5_31  and  C14_33 
REMARK   12  A    between atoms: C14_33  and  C15_35 
REMARK   13  A    between atoms: C15_35  and  N6_36 
REMARK   14  A    between atoms: C15_35  and  C16_40 
REMARK   15  A    between atoms: C19_44  and  O9_45 
REMARK   16  A    between atoms: N7_48  and  O10_49 
ROOT
HETATM    1  C2  UNL     1       4.014 -22.198  -1.303  1.00  0.00     0.241 C 
HETATM    2  O1  UNL     1       4.900 -23.285  -1.140  1.00  0.00    -0.297 OA
HETATM    3  C3  UNL     1       5.321 -23.685  -2.430  1.00  0.00     0.289 C 
HETATM    4  O2  UNL     1       6.481 -24.099  -2.644  1.00  0.00    -0.262 OA
HETATM    5  C4  UNL     1       4.143 -23.487  -3.303  1.00  0.00     0.233 C 
HETATM    6  C13 UNL     1       3.273 -22.553  -2.542  1.00  0.00     0.061 C 
HETATM    7  N5  UNL     1       2.123 -22.069  -2.784  1.00  0.00    -0.327 N 
ATOM      8  H5  UNL     1       1.779 -21.436  -2.061  1.00  0.00     0.168 HD
HETATM    9  C14 UNL     1       1.250 -22.240  -3.842  1.00  0.00     0.258 C 
HETATM   10  O7  UNL     1       0.201 -22.946  -3.614  1.00  0.00    -0.270 OA
ENDROOT
BRANCH   5  11
HETATM   11  N1  UNL     1       3.463 -24.685  -3.685  1.00  0.00    -0.350 N 
ATOM     12  H1  UNL     1       2.877 -25.210  -3.035  1.00  0.00     0.163 HD
BRANCH  11  13
HETATM   13  C5  UNL     1       3.656 -25.095  -5.030  1.00  0.00     0.167 C 
BRANCH  13  14
HETATM   14  O3  UNL     1       3.158 -24.263  -6.007  1.00  0.00    -0.345 OA
ATOM     15  H3  UNL     1       3.707 -24.127  -6.771  1.00  0.00     0.219 HD
ENDBRANCH  13  14
BRANCH  13  16
HETATM   16  C6  UNL     1       5.013 -25.616  -5.310  1.00  0.00     0.117 A 
HETATM   17  C7  UNL     1       5.527 -26.891  -5.288  1.00  0.00     0.147 A 
HETATM   18  N2  UNL     1       6.836 -26.878  -5.602  1.00  0.00    -0.284 N 
HETATM   19  N3  UNL     1       7.148 -25.619  -5.819  1.00  0.00    -0.240 N 
HETATM   20  N4  UNL     1       6.101 -24.843  -5.657  1.00  0.00    -0.281 N 
ATOM     21  H3  UNL     1       8.078 -25.290  -6.078  1.00  0.00     0.208 HD
ATOM     22  H4  UNL     1       6.094 -23.829  -5.770  1.00  0.00     0.188 HD
BRANCH  18  23
HETATM   23  C8  UNL     1       7.736 -28.035  -5.685  1.00  0.00     0.184 C 
BRANCH  23  24
HETATM   24  C9  UNL     1       7.988 -28.347  -7.148  1.00  0.00     0.174 C 
BRANCH  24  25
HETATM   25  O4  UNL     1       7.262 -27.488  -7.958  1.00  0.00    -0.391 OA
ATOM     26  H4  UNL     1       6.880 -27.962  -8.687  1.00  0.00     0.210 HD
ENDBRANCH  24  25
BRANCH  24  27
HETATM   27  C10 UNL     1       9.472 -28.128  -7.382  1.00  0.00     0.217 C 
BRANCH  27  28
HETATM   28  O5  UNL     1       9.704 -26.776  -7.409  1.00  0.00    -0.385 OA
ATOM     29  H5  UNL     1      10.435 -26.614  -7.994  1.00  0.00     0.210 HD
ENDBRANCH  27  28
BRANCH  27  30
HETATM   30  C11 UNL     1       9.929 -28.750  -8.646  1.00  0.00     0.154 C 
HETATM   31  C12 UNL     1      10.633 -30.058  -8.612  1.00  0.00     0.093 C 
HETATM   32  O6  UNL     1       9.711 -28.168  -9.690  1.00  0.00    -0.295 OA
ENDBRANCH  27  30
ENDBRANCH  24  27
ENDBRANCH  23  24
ENDBRANCH  18  23
ENDBRANCH  13  16
ENDBRANCH  11  13
ENDBRANCH   5  11
BRANCH   1  33
HETATM   33  S1  UNL     1       2.923 -22.049   0.132  1.00  0.00    -0.135 SA
HETATM   34  C1  UNL     1       3.670 -22.989   1.499  1.00  0.00     0.093 C 
ENDBRANCH   1  33
BRANCH   9  35
HETATM   35  C15 UNL     1       1.373 -21.712  -5.196  1.00  0.00     0.327 C 
BRANCH  35  36
HETATM   36  N6  UNL     1       2.701 -21.523  -5.681  1.00  0.00    -0.061 N 
ATOM     37  H63 UNL     1       2.916 -20.526  -5.717  1.00  0.00     0.275 HD
ATOM     38  H62 UNL     1       3.372 -21.831  -4.977  1.00  0.00     0.275 HD
ATOM     39  H61 UNL     1       2.919 -21.956  -6.578  1.00  0.00     0.275 HD
ENDBRANCH  35  36
BRANCH  35  40
HETATM   40  C16 UNL     1       0.607 -20.469  -5.457  1.00  0.00     0.083 A 
HETATM   41  C17 UNL     1       1.032 -19.205  -5.209  1.00  0.00     0.088 A 
HETATM   42  C18 UNL     1       0.210 -18.140  -5.491  1.00  0.00     0.208 A 
HETATM   43  O8  UNL     1       0.570 -16.946  -5.273  1.00  0.00    -0.285 OA
HETATM   44  C19 UNL     1      -1.051 -18.303  -6.025  1.00  0.00     0.134 A 
HETATM   45  C20 UNL     1      -1.448 -19.603  -6.264  1.00  0.00     0.163 A 
HETATM   46  N7  UNL     1      -0.629 -20.636  -5.981  1.00  0.00    -0.235 N 
BRANCH  44  47
HETATM   47  O9  UNL     1      -1.900 -17.240  -6.318  1.00  0.00    -0.356 OA
ATOM     48  H9  UNL     1      -2.646 -17.314  -6.902  1.00  0.00     0.218 HD
ENDBRANCH  44  47
BRANCH  46  49
HETATM   49  O10 UNL     1      -1.157 -21.888  -6.268  1.00  0.00    -0.283 OA
ATOM     50  H10 UNL     1      -1.109 -22.278  -7.133  1.00  0.00     0.245 HD
ENDBRANCH  46  49
ENDBRANCH  35  40
ENDBRANCH   9  35
TORSDOF 16
ENDMDL
MODEL 2
REMARK VINA RESULT: -7.988211011      1.249      1.712
REMARK  16 active torsions:
REMARK  status: ('A' for Active; 'I' for Inactive)
REMARK    1  A    between atoms: S1_2  and  C2_3 
REMARK    2  A    between atoms: C4_7  and  N1_8 
REMARK    3  A    between atoms: N1_8  and  C5_10 
REMARK    4  A    between atoms: C5_10  and  O3_11 
REMARK    5  A    between atoms: C5_10  and  C6_13 
REMARK    6  A    between atoms: N2_15  and  C8_16 
REMARK    7  A    between atoms: C8_16  and  C9_17 
REMARK    8  A    between atoms: C9_17  and  O4_18 
REMARK    9  A    between atoms: C9_17  and  C10_20 
REMARK   10  A    between atoms: C10_20  and  O5_21 
REMARK   11  A    between atoms: C10_20  and  C11_23 
REMARK       I    between atoms: N5_31  and  C14_33 
REMARK   12  A    between atoms: C14_33  and  C15_35 
REMARK   13  A    between atoms: C15_35  and  N6_36 
REMARK   14  A    between atoms: C15_35  and  C16_40 
REMARK   15  A    between atoms: C19_44  and  O9_45 
REMARK   16  A    between atoms: N7_48  and  O10_49 
ROOT
HETATM    1  C2  UNL     1       3.760 -22.221  -1.251  1.00  0.00     0.241 C 
HETATM    2  O1  UNL     1       4.623 -23.322  -1.064  1.00  0.00    -0.297 OA
HETATM    3  C3  UNL     1       5.083 -23.721  -2.341  1.00  0.00     0.289 C 
HETATM    4  O2  UNL     1       6.243 -24.152  -2.517  1.00  0.00    -0.262 OA
HETATM    5  C4  UNL     1       3.939 -23.501  -3.253  1.00  0.00     0.233 C 
HETATM    6  C13 UNL     1       3.057 -22.558  -2.517  1.00  0.00     0.061 C 
HETATM    7  N5  UNL     1       1.924 -22.055  -2.796  1.00  0.00    -0.327 N 
ATOM      8  H5  UNL     1       1.564 -21.421  -2.083  1.00  0.00     0.168 HD
HETATM    9  C14 UNL     1       1.086 -22.208  -3.885  1.00  0.00     0.258 C 
HETATM   10  O7  UNL     1       0.019 -22.899  -3.697  1.00  0.00    -0.270 OA
ENDROOT
BRANCH   5  11
HETATM   11  N1  UNL     1       3.255 -24.687  -3.665  1.00  0.00    -0.350 N 
ATOM     12  H1  UNL     1       2.606 -25.182  -3.053  1.00  0.00     0.163 HD
BRANCH  11  13
HETATM   13  C5  UNL     1       3.537 -25.129  -4.985  1.00  0.00     0.167 C 
BRANCH  13  14
HETATM   14  O3  UNL     1       3.426 -24.192  -5.987  1.00  0.00    -0.345 OA
ATOM     15  H3  UNL     1       4.235 -23.900  -6.389  1.00  0.00     0.219 HD
ENDBRANCH  13  14
BRANCH  13  16
HETATM   16  C6  UNL     1       4.741 -25.985  -5.085  1.00  0.00     0.117 A 
HETATM   17  C7  UNL     1       6.053 -25.691  -5.370  1.00  0.00     0.147 A 
HETATM   18  N2  UNL     1       6.800 -26.811  -5.366  1.00  0.00    -0.284 N 
HETATM   19  N3  UNL     1       5.978 -27.798  -5.085  1.00  0.00    -0.240 N 
HETATM   20  N4  UNL     1       4.754 -27.354  -4.912  1.00  0.00    -0.281 N 
ATOM     21  H3  UNL     1       6.255 -28.777  -5.011  1.00  0.00     0.208 HD
ATOM     22  H4  UNL     1       3.943 -27.929  -4.686  1.00  0.00     0.188 HD
BRANCH  18  23
HETATM   23  C8  UNL     1       8.242 -26.912  -5.624  1.00  0.00     0.184 C 
BRANCH  23  24
HETATM   24  C9  UNL     1       8.449 -27.198  -7.100  1.00  0.00     0.174 C 
BRANCH  24  25
HETATM   25  O4  UNL     1       7.231 -27.249  -7.758  1.00  0.00    -0.391 OA
ATOM     26  H4  UNL     1       7.268 -26.748  -8.565  1.00  0.00     0.210 HD
ENDBRANCH  24  25
BRANCH  24  27
HETATM   27  C10 UNL     1       9.271 -26.044  -7.648  1.00  0.00     0.217 C 
BRANCH  27  28
HETATM   28  O5  UNL     1      10.343 -25.852  -6.813  1.00  0.00    -0.385 OA
ATOM     29  H5  UNL     1      10.010 -25.595  -5.961  1.00  0.00     0.210 HD
ENDBRANCH  27  28
BRANCH  27  30
HETATM   30  C11 UNL     1       8.474 -24.801  -7.752  1.00  0.00     0.154 C 
HETATM   31  C12 UNL     1       8.768 -23.658  -6.849  1.00  0.00     0.093 C 
HETATM   32  O6  UNL     1       7.591 -24.747  -8.585  1.00  0.00    -0.295 OA
ENDBRANCH  27  30
ENDBRANCH  24  27
ENDBRANCH  23  24
ENDBRANCH  18  23
ENDBRANCH  13  16
ENDBRANCH  11  13
ENDBRANCH   5  11
BRANCH   1  33
HETATM   33  S1  UNL     1       2.622 -22.062   0.145  1.00  0.00    -0.135 SA
HETATM   34  C1  UNL     1       3.394 -22.863   1.586  1.00  0.00     0.093 C 
ENDBRANCH   1  33
BRANCH   9  35
HETATM   35  C15 UNL     1       1.264 -21.674  -5.231  1.00  0.00     0.327 C 
BRANCH  35  36
HETATM   36  N6  UNL     1       2.610 -21.485  -5.661  1.00  0.00    -0.061 N 
ATOM     37  H63 UNL     1       3.239 -21.545  -4.860  1.00  0.00     0.275 HD
ATOM     38  H62 UNL     1       2.918 -22.295  -6.199  1.00  0.00     0.275 HD
ATOM     39  H61 UNL     1       2.800 -20.631  -6.186  1.00  0.00     0.275 HD
ENDBRANCH  35  36
BRANCH  35  40
HETATM   40  C16 UNL     1       0.510 -20.429  -5.518  1.00  0.00     0.083 A 
HETATM   41  C17 UNL     1       0.879 -19.175  -5.160  1.00  0.00     0.088 A 
HETATM   42  C18 UNL     1       0.075 -18.107  -5.484  1.00  0.00     0.208 A 
HETATM   43  O8  UNL     1       0.386 -16.921  -5.167  1.00  0.00    -0.285 OA
HETATM   44  C19 UNL     1      -1.112 -18.260  -6.168  1.00  0.00     0.134 A 
HETATM   45  C20 UNL     1      -1.454 -19.550  -6.515  1.00  0.00     0.163 A 
HETATM   46  N7  UNL     1      -0.654 -20.586  -6.190  1.00  0.00    -0.235 N 
BRANCH  44  47
HETATM   47  O9  UNL     1      -1.941 -17.193  -6.505  1.00  0.00    -0.356 OA
ATOM     48  H9  UNL     1      -2.812 -17.305  -6.867  1.00  0.00     0.218 HD
ENDBRANCH  44  47
BRANCH  46  49
HETATM   49  O10 UNL     1      -1.122 -21.828  -6.597  1.00  0.00    -0.283 OA
ATOM     50  H10 UNL     1      -1.490 -21.979  -7.460  1.00  0.00     0.245 HD
ENDBRANCH  46  49
ENDBRANCH  35  40
ENDBRANCH   9  35
TORSDOF 16
ENDMDL
MODEL 3
REMARK VINA RESULT: -7.957429564      4.088      9.100
REMARK  16 active torsions:
REMARK  status: ('A' for Active; 'I' for Inactive)
REMARK    1  A    between atoms: S1_2  and  C2_3 
REMARK    2  A    between atoms: C4_7  and  N1_8 
REMARK    3  A    between atoms: N1_8  and  C5_10 
REMARK    4  A    between atoms: C5_10  and  O3_11 
REMARK    5  A    between atoms: C5_10  and  C6_13 
REMARK    6  A    between atoms: N2_15  and  C8_16 
REMARK    7  A    between atoms: C8_16  and  C9_17 
REMARK    8  A    between atoms: C9_17  and  O4_18 
REMARK    9  A    between atoms: C9_17  and  C10_20 
REMARK   10  A    between atoms: C10_20  and  O5_21 
REMARK   11  A    between atoms: C10_20  and  C11_23 
REMARK       I    between atoms: N5_31  and  C14_33 
REMARK   12  A    between atoms: C14_33  and  C15_35 
REMARK   13  A    between atoms: C15_35  and  N6_36 
REMARK   14  A    between atoms: C15_35  and  C16_40 
REMARK   15  A    between atoms: C19_44  and  O9_45 
REMARK   16  A    between atoms: N7_48  and  O10_49 
ROOT
HETATM    1  C2  UNL     1       7.259 -25.892  -5.850  1.00  0.00     0.241 C 
HETATM    2  O1  UNL     1       5.948 -25.380  -5.756  1.00  0.00    -0.297 OA
HETATM    3  C3  UNL     1       6.019 -23.988  -5.996  1.00  0.00     0.289 C 
HETATM    4  O2  UNL     1       5.113 -23.378  -6.605  1.00  0.00    -0.262 OA
HETATM    5  C4  UNL     1       7.299 -23.554  -5.394  1.00  0.00     0.233 C 
HETATM    6  C13 UNL     1       8.086 -24.807  -5.259  1.00  0.00     0.061 C 
HETATM    7  N5  UNL     1       9.235 -25.045  -4.772  1.00  0.00    -0.327 N 
ATOM      8  H5  UNL     1       9.516 -26.024  -4.829  1.00  0.00     0.168 HD
HETATM    9  C14 UNL     1      10.177 -24.225  -4.178  1.00  0.00     0.258 C 
HETATM   10  O7  UNL     1      10.318 -24.339  -2.906  1.00  0.00    -0.270 OA
ENDROOT
BRANCH   5  11
HETATM   11  N1  UNL     1       7.179 -22.842  -4.160  1.00  0.00    -0.350 N 
ATOM     12  H1  UNL     1       7.476 -21.872  -4.060  1.00  0.00     0.163 HD
BRANCH  11  13
HETATM   13  C5  UNL     1       6.618 -23.577  -3.082  1.00  0.00     0.167 C 
BRANCH  13  14
HETATM   14  O3  UNL     1       7.494 -24.041  -2.128  1.00  0.00    -0.345 OA
ATOM     15  H3  UNL     1       7.358 -23.734  -1.239  1.00  0.00     0.219 HD
ENDBRANCH  13  14
BRANCH  13  16
HETATM   16  C6  UNL     1       5.379 -22.983  -2.531  1.00  0.00     0.117 A 
HETATM   17  C7  UNL     1       4.057 -23.145  -2.869  1.00  0.00     0.147 A 
HETATM   18  N2  UNL     1       3.272 -22.377  -2.090  1.00  0.00    -0.284 N 
HETATM   19  N3  UNL     1       4.081 -21.738  -1.273  1.00  0.00    -0.240 N 
HETATM   20  N4  UNL     1       5.332 -22.068  -1.500  1.00  0.00    -0.281 N 
ATOM     21  H3  UNL     1       3.777 -21.077  -0.558  1.00  0.00     0.208 HD
ATOM     22  H4  UNL     1       6.140 -21.705  -0.994  1.00  0.00     0.188 HD
BRANCH  18  23
HETATM   23  C8  UNL     1       1.809 -22.271  -2.142  1.00  0.00     0.184 C 
BRANCH  23  24
HETATM   24  C9  UNL     1       1.381 -22.185  -3.595  1.00  0.00     0.174 C 
BRANCH  24  25
HETATM   25  O4  UNL     1       0.236 -22.937  -3.807  1.00  0.00    -0.391 OA
ATOM     26  H4  UNL     1       0.461 -23.790  -4.160  1.00  0.00     0.210 HD
ENDBRANCH  24  25
BRANCH  24  27
HETATM   27  C10 UNL     1       1.082 -20.721  -3.867  1.00  0.00     0.217 C 
BRANCH  27  28
HETATM   28  O5  UNL     1       0.296 -20.251  -2.845  1.00  0.00    -0.385 OA
ATOM     29  H5  UNL     1      -0.403 -19.732  -3.227  1.00  0.00     0.210 HD
ENDBRANCH  27  28
BRANCH  27  30
HETATM   30  C11 UNL     1       0.400 -20.530  -5.167  1.00  0.00     0.154 C 
HETATM   31  C12 UNL     1      -0.449 -19.331  -5.386  1.00  0.00     0.093 C 
HETATM   32  O6  UNL     1       0.556 -21.370  -6.031  1.00  0.00    -0.295 OA
ENDBRANCH  27  30
ENDBRANCH  24  27
ENDBRANCH  23  24
ENDBRANCH  18  23
ENDBRANCH  13  16
ENDBRANCH  11  13
ENDBRANCH   5  11
BRANCH   1  33
HETATM   33  S1  UNL     1       7.401 -27.443  -4.931  1.00  0.00    -0.135 SA
HETATM   34  C1  UNL     1       6.367 -27.304  -3.440  1.00  0.00     0.093 C 
ENDBRANCH   1  33
BRANCH   9  35
HETATM   35  C15 UNL     1      11.038 -23.240  -4.823  1.00  0.00     0.327 C 
BRANCH  35  36
HETATM   36  N6  UNL     1      12.431 -23.334  -4.532  1.00  0.00    -0.061 N 
ATOM     37  H63 UNL     1      12.617 -24.191  -4.011  1.00  0.00     0.275 HD
ATOM     38  H62 UNL     1      12.951 -23.521  -5.389  1.00  0.00     0.275 HD
ATOM     39  H61 UNL     1      12.844 -22.538  -4.045  1.00  0.00     0.275 HD
ENDBRANCH  35  36
BRANCH  35  40
HETATM   40  C16 UNL     1      10.624 -21.827  -4.639  1.00  0.00     0.083 A 
HETATM   41  C17 UNL     1       9.738 -21.371  -3.720  1.00  0.00     0.088 A 
HETATM   42  C18 UNL     1       9.437 -20.030  -3.668  1.00  0.00     0.208 A 
HETATM   43  O8  UNL     1       8.615 -19.565  -2.824  1.00  0.00    -0.285 OA
HETATM   44  C19 UNL     1      10.008 -19.113  -4.525  1.00  0.00     0.134 A 
HETATM   45  C20 UNL     1      10.905 -19.614  -5.445  1.00  0.00     0.163 A 
HETATM   46  N7  UNL     1      11.188 -20.932  -5.483  1.00  0.00    -0.235 N 
BRANCH  44  47
HETATM   47  O9  UNL     1       9.718 -17.752  -4.490  1.00  0.00    -0.356 OA
ATOM     48  H9  UNL     1      10.297 -17.106  -4.103  1.00  0.00     0.218 HD
ENDBRANCH  44  47
BRANCH  46  49
HETATM   49  O10 UNL     1      12.103 -21.300  -6.460  1.00  0.00    -0.283 OA
ATOM     50  H10 UNL     1      11.968 -22.044  -7.035  1.00  0.00     0.245 HD
ENDBRANCH  46  49
ENDBRANCH  35  40
ENDBRANCH   9  35
TORSDOF 16
ENDMDL
MODEL 4
REMARK VINA RESULT: -7.887239359      3.138      9.003
REMARK  16 active torsions:
REMARK  status: ('A' for Active; 'I' for Inactive)
REMARK    1  A    between atoms: S1_2  and  C2_3 
REMARK    2  A    between atoms: C4_7  and  N1_8 
REMARK    3  A    between atoms: N1_8  and  C5_10 
REMARK    4  A    between atoms: C5_10  and  O3_11 
REMARK    5  A    between atoms: C5_10  and  C6_13 
REMARK    6  A    between atoms: N2_15  and  C8_16 
REMARK    7  A    between atoms: C8_16  and  C9_17 
REMARK    8  A    between atoms: C9_17  and  O4_18 
REMARK    9  A    between atoms: C9_17  and  C10_20 
REMARK   10  A    between atoms: C10_20  and  O5_21 
REMARK   11  A    between atoms: C10_20  and  C11_23 
REMARK       I    between atoms: N5_31  and  C14_33 
REMARK   12  A    between atoms: C14_33  and  C15_35 
REMARK   13  A    between atoms: C15_35  and  N6_36 
REMARK   14  A    between atoms: C15_35  and  C16_40 
REMARK   15  A    between atoms: C19_44  and  O9_45 
REMARK   16  A    between atoms: N7_48  and  O10_49 
ROOT
HETATM    1  C2  UNL     1       6.221 -26.063  -4.737  1.00  0.00     0.241 C 
HETATM    2  O1  UNL     1       5.566 -25.311  -5.736  1.00  0.00    -0.297 OA
HETATM    3  C3  UNL     1       5.901 -23.953  -5.532  1.00  0.00     0.289 C 
HETATM    4  O2  UNL     1       6.063 -23.164  -6.489  1.00  0.00    -0.262 OA
HETATM    5  C4  UNL     1       5.987 -23.789  -4.065  1.00  0.00     0.233 C 
HETATM    6  C13 UNL     1       6.149 -25.173  -3.549  1.00  0.00     0.061 C 
HETATM    7  N5  UNL     1       6.233 -25.639  -2.369  1.00  0.00    -0.327 N 
ATOM      8  H5  UNL     1       6.350 -26.652  -2.331  1.00  0.00     0.168 HD
HETATM    9  C14 UNL     1       6.195 -25.032  -1.128  1.00  0.00     0.258 C 
HETATM   10  O7  UNL     1       5.127 -25.206  -0.435  1.00  0.00    -0.270 OA
ENDROOT
BRANCH   5  11
HETATM   11  N1  UNL     1       4.886 -23.102  -3.465  1.00  0.00    -0.350 N 
ATOM     12  H1  UNL     1       5.011 -22.270  -2.889  1.00  0.00     0.163 HD
BRANCH  11  13
HETATM   13  C5  UNL     1       3.605 -23.657  -3.725  1.00  0.00     0.167 C 
BRANCH  13  14
HETATM   14  O3  UNL     1       3.220 -24.718  -2.938  1.00  0.00    -0.345 OA
ATOM     15  H3  UNL     1       3.565 -25.571  -3.175  1.00  0.00     0.219 HD
ENDBRANCH  13  14
BRANCH  13  16
HETATM   16  C6  UNL     1       2.546 -22.645  -3.940  1.00  0.00     0.117 A 
HETATM   17  C7  UNL     1       1.846 -22.277  -5.065  1.00  0.00     0.147 A 
HETATM   18  N2  UNL     1       0.981 -21.286  -4.780  1.00  0.00    -0.284 N 
HETATM   19  N3  UNL     1       1.128 -21.029  -3.498  1.00  0.00    -0.240 N 
HETATM   20  N4  UNL     1       2.041 -21.809  -2.966  1.00  0.00    -0.281 N 
ATOM     21  H3  UNL     1       0.603 -20.319  -2.987  1.00  0.00     0.208 HD
ATOM     22  H4  UNL     1       2.331 -21.798  -1.989  1.00  0.00     0.188 HD
BRANCH  18  23
HETATM   23  C8  UNL     1       0.059 -20.623  -5.710  1.00  0.00     0.184 C 
BRANCH  23  24
HETATM   24  C9  UNL     1      -0.214 -19.219  -5.203  1.00  0.00     0.174 C 
BRANCH  24  25
HETATM   25  O4  UNL     1       0.960 -18.483  -5.166  1.00  0.00    -0.391 OA
ATOM     26  H4  UNL     1       1.099 -18.124  -4.297  1.00  0.00     0.210 HD
ENDBRANCH  24  25
BRANCH  24  27
HETATM   27  C10 UNL     1      -1.175 -18.586  -6.193  1.00  0.00     0.217 C 
BRANCH  27  28
HETATM   28  O5  UNL     1      -1.212 -19.376  -7.314  1.00  0.00    -0.385 OA
ATOM     29  H5  UNL     1      -0.375 -19.300  -7.756  1.00  0.00     0.210 HD
ENDBRANCH  27  28
BRANCH  27  30
HETATM   30  C11 UNL     1      -0.770 -17.208  -6.551  1.00  0.00     0.154 C 
HETATM   31  C12 UNL     1      -1.210 -16.067  -5.708  1.00  0.00     0.093 C 
HETATM   32  O6  UNL     1      -0.078 -17.046  -7.537  1.00  0.00    -0.295 OA
ENDBRANCH  27  30
ENDBRANCH  24  27
ENDBRANCH  23  24
ENDBRANCH  18  23
ENDBRANCH  13  16
ENDBRANCH  11  13
ENDBRANCH   5  11
BRANCH   1  33
HETATM   33  S1  UNL     1       5.373 -27.637  -4.469  1.00  0.00    -0.135 SA
HETATM   34  C1  UNL     1       6.610 -28.849  -3.913  1.00  0.00     0.093 C 
ENDBRANCH   1  33
BRANCH   9  35
HETATM   35  C15 UNL     1       7.227 -24.212  -0.502  1.00  0.00     0.327 C 
BRANCH  35  36
HETATM   36  N6  UNL     1       7.543 -24.524   0.853  1.00  0.00    -0.061 N 
ATOM     37  H63 UNL     1       6.718 -24.390   1.439  1.00  0.00     0.275 HD
ATOM     38  H62 UNL     1       7.678 -25.530   0.953  1.00  0.00     0.275 HD
ATOM     39  H61 UNL     1       8.337 -24.028   1.256  1.00  0.00     0.275 HD
ENDBRANCH  35  36
BRANCH  35  40
HETATM   40  C16 UNL     1       7.009 -22.748  -0.598  1.00  0.00     0.083 A 
HETATM   41  C17 UNL     1       6.106 -22.029   0.113  1.00  0.00     0.088 A 
HETATM   42  C18 UNL     1       6.004 -20.672  -0.086  1.00  0.00     0.208 A 
HETATM   43  O8  UNL     1       5.173 -19.966   0.558  1.00  0.00    -0.285 OA
HETATM   44  C19 UNL     1       6.794 -19.999  -0.994  1.00  0.00     0.134 A 
HETATM   45  C20 UNL     1       7.701 -20.764  -1.698  1.00  0.00     0.163 A 
HETATM   46  N7  UNL     1       7.787 -22.093  -1.490  1.00  0.00    -0.235 N 
BRANCH  44  47
HETATM   47  O9  UNL     1       6.707 -18.627  -1.211  1.00  0.00    -0.356 OA
ATOM     48  H9  UNL     1       6.614 -17.993  -0.510  1.00  0.00     0.218 HD
ENDBRANCH  44  47
BRANCH  46  49
HETATM   49  O10 UNL     1       8.739 -22.739  -2.269  1.00  0.00    -0.283 OA
ATOM     50  H10 UNL     1       8.530 -23.142  -3.104  1.00  0.00     0.245 HD
ENDBRANCH  46  49
ENDBRANCH  35  40
ENDBRANCH   9  35
TORSDOF 16
ENDMDL
MODEL 5
REMARK VINA RESULT: -7.829597306      2.422      3.322
REMARK  16 active torsions:
REMARK  status: ('A' for Active; 'I' for Inactive)
REMARK    1  A    between atoms: S1_2  and  C2_3 
REMARK    2  A    between atoms: C4_7  and  N1_8 
REMARK    3  A    between atoms: N1_8  and  C5_10 
REMARK    4  A    between atoms: C5_10  and  O3_11 
REMARK    5  A    between atoms: C5_10  and  C6_13 
REMARK    6  A    between atoms: N2_15  and  C8_16 
REMARK    7  A    between atoms: C8_16  and  C9_17 
REMARK    8  A    between atoms: C9_17  and  O4_18 
REMARK    9  A    between atoms: C9_17  and  C10_20 
REMARK   10  A    between atoms: C10_20  and  O5_21 
REMARK   11  A    between atoms: C10_20  and  C11_23 
REMARK       I    between atoms: N5_31  and  C14_33 
REMARK   12  A    between atoms: C14_33  and  C15_35 
REMARK   13  A    between atoms: C15_35  and  N6_36 
REMARK   14  A    between atoms: C15_35  and  C16_40 
REMARK   15  A    between atoms: C19_44  and  O9_45 
REMARK   16  A    between atoms: N7_48  and  O10_49 
ROOT
HETATM    1  C2  UNL     1       3.849 -22.055  -1.187  1.00  0.00     0.241 C 
HETATM    2  O1  UNL     1       4.845 -23.034  -0.979  1.00  0.00    -0.297 OA
HETATM    3  C3  UNL     1       5.381 -23.368  -2.244  1.00  0.00     0.289 C 
HETATM    4  O2  UNL     1       6.591 -23.643  -2.394  1.00  0.00    -0.262 OA
HETATM    5  C4  UNL     1       4.239 -23.300  -3.181  1.00  0.00     0.233 C 
HETATM    6  C13 UNL     1       3.225 -22.481  -2.467  1.00  0.00     0.061 C 
HETATM    7  N5  UNL     1       2.041 -22.132  -2.772  1.00  0.00    -0.327 N 
ATOM      8  H5  UNL     1       1.586 -21.550  -2.069  1.00  0.00     0.168 HD
HETATM    9  C14 UNL     1       1.255 -22.393  -3.879  1.00  0.00     0.258 C 
HETATM   10  O7  UNL     1       0.284 -23.218  -3.713  1.00  0.00    -0.270 OA
ENDROOT
BRANCH   5  11
HETATM   11  N1  UNL     1       3.725 -24.566  -3.606  1.00  0.00    -0.350 N 
ATOM     12  H1  UNL     1       3.131 -25.140  -3.008  1.00  0.00     0.163 HD
BRANCH  11  13
HETATM   13  C5  UNL     1       4.096 -24.968  -4.915  1.00  0.00     0.167 C 
BRANCH  13  14
HETATM   14  O3  UNL     1       3.269 -24.572  -5.941  1.00  0.00    -0.345 OA
ATOM     15  H3  UNL     1       3.570 -24.751  -6.825  1.00  0.00     0.219 HD
ENDBRANCH  13  14
BRANCH  13  16
HETATM   16  C6  UNL     1       5.540 -24.811  -5.205  1.00  0.00     0.117 A 
HETATM   17  C7  UNL     1       6.216 -23.982  -6.067  1.00  0.00     0.147 A 
HETATM   18  N2  UNL     1       7.541 -24.209  -6.000  1.00  0.00    -0.284 N 
HETATM   19  N3  UNL     1       7.704 -25.164  -5.111  1.00  0.00    -0.240 N 
HETATM   20  N4  UNL     1       6.548 -25.548  -4.618  1.00  0.00    -0.281 N 
ATOM     21  H3  UNL     1       8.607 -25.555  -4.840  1.00  0.00     0.208 HD
ATOM     22  H4  UNL     1       6.418 -26.274  -3.914  1.00  0.00     0.188 HD
BRANCH  18  23
HETATM   23  C8  UNL     1       8.594 -23.528  -6.763  1.00  0.00     0.184 C 
BRANCH  23  24
HETATM   24  C9  UNL     1       9.876 -23.558  -5.952  1.00  0.00     0.174 C 
BRANCH  24  25
HETATM   25  O4  UNL     1      10.961 -23.830  -6.772  1.00  0.00    -0.391 OA
ATOM     26  H4  UNL     1      11.534 -24.468  -6.363  1.00  0.00     0.210 HD
ENDBRANCH  24  25
BRANCH  24  27
HETATM   27  C10 UNL     1      10.033 -22.174  -5.349  1.00  0.00     0.217 C 
BRANCH  27  28
HETATM   28  O5  UNL     1      11.360 -21.830  -5.411  1.00  0.00    -0.385 OA
ATOM     29  H5  UNL     1      11.470 -20.998  -4.965  1.00  0.00     0.210 HD
ENDBRANCH  27  28
BRANCH  27  30
HETATM   30  C11 UNL     1       9.557 -22.125  -3.948  1.00  0.00     0.154 C 
HETATM   31  C12 UNL     1       8.987 -20.865  -3.405  1.00  0.00     0.093 C 
HETATM   32  O6  UNL     1       9.644 -23.131  -3.272  1.00  0.00    -0.295 OA
ENDBRANCH  27  30
ENDBRANCH  24  27
ENDBRANCH  23  24
ENDBRANCH  18  23
ENDBRANCH  13  16
ENDBRANCH  11  13
ENDBRANCH   5  11
BRANCH   1  33
HETATM   33  S1  UNL     1       2.670 -22.048   0.184  1.00  0.00    -0.135 SA
HETATM   34  C1  UNL     1       3.458 -22.875   1.600  1.00  0.00     0.093 C 
ENDBRANCH   1  33
BRANCH   9  35
HETATM   35  C15 UNL     1       1.391 -21.840  -5.222  1.00  0.00     0.327 C 
BRANCH  35  36
HETATM   36  N6  UNL     1       2.723 -21.658  -5.697  1.00  0.00    -0.061 N 
ATOM     37  H63 UNL     1       2.990 -20.677  -5.608  1.00  0.00     0.275 HD
ATOM     38  H62 UNL     1       3.383 -22.087  -5.047  1.00  0.00     0.275 HD
ATOM     39  H61 UNL     1       2.913 -21.982  -6.645  1.00  0.00     0.275 HD
ENDBRANCH  35  36
BRANCH  35  40
HETATM   40  C16 UNL     1       0.641 -20.583  -5.463  1.00  0.00     0.083 A 
HETATM   41  C17 UNL     1       1.090 -19.328  -5.213  1.00  0.00     0.088 A 
HETATM   42  C18 UNL     1       0.280 -18.248  -5.476  1.00  0.00     0.208 A 
HETATM   43  O8  UNL     1       0.663 -17.061  -5.255  1.00  0.00    -0.285 OA
HETATM   44  C19 UNL     1      -0.991 -18.388  -5.991  1.00  0.00     0.134 A 
HETATM   45  C20 UNL     1      -1.412 -19.679  -6.233  1.00  0.00     0.163 A 
HETATM   46  N7  UNL     1      -0.605 -20.727  -5.969  1.00  0.00    -0.235 N 
BRANCH  44  47
HETATM   47  O9  UNL     1      -1.827 -17.309  -6.264  1.00  0.00    -0.356 OA
ATOM     48  H9  UNL     1      -2.101 -16.682  -5.604  1.00  0.00     0.218 HD
ENDBRANCH  44  47
BRANCH  46  49
HETATM   49  O10 UNL     1      -1.158 -21.968  -6.256  1.00  0.00    -0.283 OA
ATOM     50  H10 UNL     1      -2.001 -22.068  -6.683  1.00  0.00     0.245 HD
ENDBRANCH  46  49
ENDBRANCH  35  40
ENDBRANCH   9  35
TORSDOF 16
ENDMDL
