MODEL 1
REMARK VINA RESULT: -10.119186300      0.000      0.000
REMARK  14 active torsions:
REMARK  status: ('A' for Active; 'I' for Inactive)
REMARK    1  A    between atoms: O1_3  and  C2_4 
REMARK    2  A    between atoms: C2_4  and  C3_6 
REMARK    3  A    between atoms: C3_6  and  N2_7 
REMARK    4  A    between atoms: C3_6  and  C8_21 
REMARK    5  A    between atoms: N2_7  and  C4_9 
REMARK    6  A    between atoms: C5_15  and  O4_16 
REMARK    7  A    between atoms: O4_16  and  C6_17 
REMARK    8  A    between atoms: C6_17  and  C7_18 
REMARK    9  A    between atoms: C8_21  and  N6_25 
REMARK   10  A    between atoms: N6_25  and  N7_27 
REMARK   11  A    between atoms: N7_27  and  C9_29 
REMARK   12  A    between atoms: C11_31  and  O7_32 
REMARK   13  A    between atoms: N8_35  and  C12_36 
REMARK   14  A    between atoms: C12_36  and  C13_37 
ROOT
HETATM    1  N1  UNL     1      -1.138 -24.825  -3.556  1.00  0.00    -0.163 NA
HETATM    2  C1  UNL     1      -0.456 -24.053  -3.028  1.00  0.00     0.236 C 
HETATM    3  O1  UNL     1       0.367 -23.126  -2.409  1.00  0.00    -0.202 OA
ENDROOT
BRANCH   3   4
HETATM    4  C2  UNL     1       1.057 -22.170  -3.125  1.00  0.00     0.303 C 
HETATM    5  O2  UNL     1       1.403 -21.118  -2.543  1.00  0.00    -0.261 OA
BRANCH   4   6
HETATM    6  C3  UNL     1       1.397 -22.352  -4.558  1.00  0.00     0.253 C 
BRANCH   6   7
HETATM    7  N2  UNL     1       1.169 -21.101  -5.223  1.00  0.00    -0.351 N 
ATOM      8  H2  UNL     1       1.901 -20.398  -5.125  1.00  0.00     0.162 HD
BRANCH   7   9
HETATM    9  C4  UNL     1       0.163 -20.767  -5.918  1.00  0.00     0.178 A 
HETATM   10  N3  UNL     1      -0.824 -21.575  -6.322  1.00  0.00    -0.222 N 
HETATM   11  O3  UNL     1      -1.693 -20.868  -7.025  1.00  0.00    -0.153 OA
ATOM     12  H3  UNL     1      -0.895 -22.572  -6.120  1.00  0.00     0.198 HD
HETATM   13  N4  UNL     1      -1.309 -19.628  -7.094  1.00  0.00    -0.216 N 
HETATM   14  C5  UNL     1      -0.133 -19.521  -6.404  1.00  0.00     0.211 A 
ATOM     15  H4  UNL     1      -1.795 -18.872  -7.577  1.00  0.00     0.199 HD
BRANCH  14  16
HETATM   16  O4  UNL     1       0.565 -18.335  -6.265  1.00  0.00    -0.321 OA
BRANCH  16  17
HETATM   17  C6  UNL     1       0.060 -17.229  -5.563  1.00  0.00     0.290 C 
BRANCH  17  18
HETATM   18  C7  UNL     1      -0.749 -16.307  -6.382  1.00  0.00     0.198 C 
HETATM   19  O5  UNL     1      -0.184 -15.318  -6.899  1.00  0.00    -0.646 OA
HETATM   20  O6  UNL     1      -2.094 -16.509  -6.588  1.00  0.00    -0.646 OA
ENDBRANCH  17  18
ENDBRANCH  16  17
ENDBRANCH  14  16
ENDBRANCH   7   9
ENDBRANCH   6   7
BRANCH   6  21
HETATM   21  C8  UNL     1       2.795 -22.806  -4.660  1.00  0.00     0.122 C 
HETATM   22  N5  UNL     1       3.489 -22.716  -5.720  1.00  0.00    -0.386 N 
ATOM     23  H52 UNL     1       3.047 -22.306  -6.543  1.00  0.00     0.157 HD
ATOM     24  H51 UNL     1       4.457 -23.030  -5.790  1.00  0.00     0.157 HD
BRANCH  21  25
HETATM   25  N6  UNL     1       3.424 -23.389  -3.488  1.00  0.00    -0.286 N 
ATOM     26  H6  UNL     1       3.140 -24.331  -3.219  1.00  0.00     0.188 HD
BRANCH  25  27
HETATM   27  N7  UNL     1       4.329 -22.795  -2.750  1.00  0.00    -0.283 N 
ATOM     28  H7  UNL     1       4.827 -22.100  -3.306  1.00  0.00     0.188 HD
BRANCH  27  29
HETATM   29  C9  UNL     1       4.792 -22.806  -1.547  1.00  0.00     0.132 A 
HETATM   30  C10 UNL     1       3.918 -22.594  -0.491  1.00  0.00     0.096 A 
HETATM   31  C11 UNL     1       4.446 -22.583   0.751  1.00  0.00     0.127 A 
HETATM   32  S1  UNL     1       6.089 -22.856   0.472  1.00  0.00     0.015 SA
HETATM   33  N8  UNL     1       6.060 -22.980  -1.237  1.00  0.00    -0.294 N 
BRANCH  31  34
HETATM   34  O7  UNL     1       3.750 -22.385   1.974  1.00  0.00    -0.353 OA
ATOM     35  H7  UNL     1       3.378 -21.572   2.294  1.00  0.00     0.218 HD
ENDBRANCH  31  34
BRANCH  33  36
HETATM   36  C12 UNL     1       7.262 -23.273  -2.047  1.00  0.00     0.196 C 
BRANCH  36  37
HETATM   37  C13 UNL     1       7.870 -21.986  -2.460  1.00  0.00     0.029 A 
HETATM   38  C14 UNL     1       7.613 -20.774  -1.905  1.00  0.00     0.028 A 
HETATM   39  C15 UNL     1       8.222 -19.604  -2.361  1.00  0.00     0.023 A 
HETATM   40  C16 UNL     1       9.103 -19.696  -3.402  1.00  0.00     0.075 A 
HETATM   41  C17 UNL     1       9.375 -20.938  -3.980  1.00  0.00     0.118 A 
HETATM   42  C19 UNL     1       9.799 -18.547  -3.965  1.00  0.00     0.256 C 
HETATM   43  N9  UNL     1       8.757 -22.009  -3.491  1.00  0.00    -0.344 N 
HETATM   44  N10 UNL     1      10.284 -21.048  -5.055  1.00  0.00    -0.359 N 
ATOM     45  H9  UNL     1       8.962 -22.913  -3.920  1.00  0.00     0.167 HD
HETATM   46  C18 UNL     1      11.232 -20.006  -5.362  1.00  0.00     0.248 C 
ATOM     47  H10 UNL     1      10.269 -21.889  -5.631  1.00  0.00     0.162 HD
HETATM   48  N11 UNL     1      10.692 -18.716  -5.035  1.00  0.00    -0.341 N 
ATOM     49  H11 UNL     1      10.964 -17.905  -5.593  1.00  0.00     0.164 HD
HETATM   50  O8  UNL     1       9.567 -17.426  -3.458  1.00  0.00    -0.267 OA
ENDBRANCH  36  37
ENDBRANCH  33  36
ENDBRANCH  27  29
ENDBRANCH  25  27
ENDBRANCH  21  25
ENDBRANCH   6  21
ENDBRANCH   4   6
ENDBRANCH   3   4
TORSDOF 14
ENDMDL
MODEL 2
REMARK VINA RESULT: -9.975169616      2.059      2.821
REMARK  14 active torsions:
REMARK  status: ('A' for Active; 'I' for Inactive)
REMARK    1  A    between atoms: O1_3  and  C2_4 
REMARK    2  A    between atoms: C2_4  and  C3_6 
REMARK    3  A    between atoms: C3_6  and  N2_7 
REMARK    4  A    between atoms: C3_6  and  C8_21 
REMARK    5  A    between atoms: N2_7  and  C4_9 
REMARK    6  A    between atoms: C5_15  and  O4_16 
REMARK    7  A    between atoms: O4_16  and  C6_17 
REMARK    8  A    between atoms: C6_17  and  C7_18 
REMARK    9  A    between atoms: C8_21  and  N6_25 
REMARK   10  A    between atoms: N6_25  and  N7_27 
REMARK   11  A    between atoms: N7_27  and  C9_29 
REMARK   12  A    between atoms: C11_31  and  O7_32 
REMARK   13  A    between atoms: N8_35  and  C12_36 
REMARK   14  A    between atoms: C12_36  and  C13_37 
ROOT
HETATM    1  N1  UNL     1       2.915 -22.682  -0.123  1.00  0.00    -0.163 NA
HETATM    2  C1  UNL     1       2.765 -22.026  -1.065  1.00  0.00     0.236 C 
HETATM    3  O1  UNL     1       2.572 -21.249  -2.195  1.00  0.00    -0.202 OA
ENDROOT
BRANCH   3   4
HETATM    4  C2  UNL     1       1.366 -21.221  -2.864  1.00  0.00     0.303 C 
HETATM    5  O2  UNL     1       0.469 -20.449  -2.455  1.00  0.00    -0.261 OA
BRANCH   4   6
HETATM    6  C3  UNL     1       1.102 -22.075  -4.049  1.00  0.00     0.253 C 
BRANCH   6   7
HETATM    7  N2  UNL     1       1.091 -21.227  -5.206  1.00  0.00    -0.351 N 
ATOM      8  H2  UNL     1       1.995 -20.864  -5.508  1.00  0.00     0.162 HD
BRANCH   7   9
HETATM    9  C4  UNL     1       0.087 -20.875  -5.895  1.00  0.00     0.178 A 
HETATM   10  N3  UNL     1      -0.881 -21.677  -6.350  1.00  0.00    -0.222 N 
HETATM   11  O3  UNL     1      -1.754 -20.949  -7.028  1.00  0.00    -0.153 OA
ATOM     12  H3  UNL     1      -0.939 -22.684  -6.200  1.00  0.00     0.198 HD
HETATM   13  N4  UNL     1      -1.389 -19.701  -7.032  1.00  0.00    -0.216 N 
HETATM   14  C5  UNL     1      -0.223 -19.610  -6.322  1.00  0.00     0.211 A 
ATOM     15  H4  UNL     1      -1.882 -18.930  -7.481  1.00  0.00     0.199 HD
BRANCH  14  16
HETATM   16  O4  UNL     1       0.455 -18.422  -6.116  1.00  0.00    -0.321 OA
BRANCH  16  17
HETATM   17  C6  UNL     1      -0.115 -17.323  -5.453  1.00  0.00     0.290 C 
BRANCH  17  18
HETATM   18  C7  UNL     1      -0.818 -16.377  -6.339  1.00  0.00     0.198 C 
HETATM   19  O5  UNL     1      -2.038 -16.554  -6.553  1.00  0.00    -0.646 OA
HETATM   20  O6  UNL     1      -0.170 -15.314  -6.927  1.00  0.00    -0.646 OA
ENDBRANCH  17  18
ENDBRANCH  16  17
ENDBRANCH  14  16
ENDBRANCH   7   9
ENDBRANCH   6   7
BRANCH   6  21
HETATM   21  C8  UNL     1       2.137 -23.121  -4.118  1.00  0.00     0.122 C 
HETATM   22  N5  UNL     1       1.908 -24.353  -3.910  1.00  0.00    -0.386 N 
ATOM     23  H52 UNL     1       0.952 -24.626  -3.682  1.00  0.00     0.157 HD
ATOM     24  H51 UNL     1       2.625 -25.078  -3.958  1.00  0.00     0.157 HD
BRANCH  21  25
HETATM   25  N6  UNL     1       3.498 -22.733  -4.442  1.00  0.00    -0.286 N 
ATOM     26  H6  UNL     1       3.629 -22.048  -5.187  1.00  0.00     0.188 HD
BRANCH  25  27
HETATM   27  N7  UNL     1       4.571 -23.197  -3.851  1.00  0.00    -0.283 N 
ATOM     28  H7  UNL     1       4.575 -22.914  -2.871  1.00  0.00     0.188 HD
BRANCH  27  29
HETATM   29  C9  UNL     1       5.622 -23.897  -4.108  1.00  0.00     0.132 A 
HETATM   30  C10 UNL     1       5.652 -24.659  -5.268  1.00  0.00     0.096 A 
HETATM   31  C11 UNL     1       6.758 -25.400  -5.487  1.00  0.00     0.127 A 
HETATM   32  S1  UNL     1       7.722 -25.059  -4.143  1.00  0.00     0.015 SA
HETATM   33  N8  UNL     1       6.681 -23.968  -3.330  1.00  0.00    -0.294 N 
BRANCH  31  34
HETATM   34  O7  UNL     1       7.010 -26.252  -6.597  1.00  0.00    -0.353 OA
ATOM     35  H7  UNL     1       6.892 -27.194  -6.632  1.00  0.00     0.218 HD
ENDBRANCH  31  34
BRANCH  33  36
HETATM   36  C12 UNL     1       7.048 -23.292  -2.067  1.00  0.00     0.196 C 
BRANCH  36  37
HETATM   37  C13 UNL     1       7.661 -21.984  -2.399  1.00  0.00     0.029 A 
HETATM   38  C14 UNL     1       7.393 -20.804  -1.785  1.00  0.00     0.028 A 
HETATM   39  C15 UNL     1       8.008 -19.611  -2.166  1.00  0.00     0.023 A 
HETATM   40  C16 UNL     1       8.908 -19.647  -3.194  1.00  0.00     0.075 A 
HETATM   41  C17 UNL     1       9.193 -20.856  -3.833  1.00  0.00     0.118 A 
HETATM   42  C19 UNL     1       9.612 -18.468  -3.682  1.00  0.00     0.256 C 
HETATM   43  N9  UNL     1       8.567 -21.952  -3.414  1.00  0.00    -0.344 N 
HETATM   44  N10 UNL     1      10.121 -20.908  -4.895  1.00  0.00    -0.359 N 
ATOM     45  H9  UNL     1       8.781 -22.831  -3.886  1.00  0.00     0.167 HD
HETATM   46  C18 UNL     1      11.073 -19.851  -5.129  1.00  0.00     0.248 C 
ATOM     47  H10 UNL     1      10.118 -21.717  -5.515  1.00  0.00     0.162 HD
HETATM   48  N11 UNL     1      10.526 -18.580  -4.743  1.00  0.00    -0.341 N 
ATOM     49  H11 UNL     1      10.806 -17.740  -5.252  1.00  0.00     0.164 HD
HETATM   50  O8  UNL     1       9.370 -17.377  -3.120  1.00  0.00    -0.267 OA
ENDBRANCH  36  37
ENDBRANCH  33  36
ENDBRANCH  27  29
ENDBRANCH  25  27
ENDBRANCH  21  25
ENDBRANCH   6  21
ENDBRANCH   4   6
ENDBRANCH   3   4
TORSDOF 14
ENDMDL
MODEL 3
REMARK VINA RESULT: -9.894619276      1.824      2.274
REMARK  14 active torsions:
REMARK  status: ('A' for Active; 'I' for Inactive)
REMARK    1  A    between atoms: O1_3  and  C2_4 
REMARK    2  A    between atoms: C2_4  and  C3_6 
REMARK    3  A    between atoms: C3_6  and  N2_7 
REMARK    4  A    between atoms: C3_6  and  C8_21 
REMARK    5  A    between atoms: N2_7  and  C4_9 
REMARK    6  A    between atoms: C5_15  and  O4_16 
REMARK    7  A    between atoms: O4_16  and  C6_17 
REMARK    8  A    between atoms: C6_17  and  C7_18 
REMARK    9  A    between atoms: C8_21  and  N6_25 
REMARK   10  A    between atoms: N6_25  and  N7_27 
REMARK   11  A    between atoms: N7_27  and  C9_29 
REMARK   12  A    between atoms: C11_31  and  O7_32 
REMARK   13  A    between atoms: N8_35  and  C12_36 
REMARK   14  A    between atoms: C12_36  and  C13_37 
ROOT
HETATM    1  N1  UNL     1      -1.064 -24.964  -3.720  1.00  0.00    -0.163 NA
HETATM    2  C1  UNL     1      -0.435 -24.221  -3.095  1.00  0.00     0.236 C 
HETATM    3  O1  UNL     1       0.325 -23.326  -2.358  1.00  0.00    -0.202 OA
ENDROOT
BRANCH   3   4
HETATM    4  C2  UNL     1       0.895 -22.208  -2.932  1.00  0.00     0.303 C 
HETATM    5  O2  UNL     1       1.142 -21.220  -2.205  1.00  0.00    -0.261 OA
BRANCH   4   6
HETATM    6  C3  UNL     1       1.220 -22.144  -4.379  1.00  0.00     0.253 C 
BRANCH   6   7
HETATM    7  N2  UNL     1       0.947 -20.809  -4.829  1.00  0.00    -0.351 N 
ATOM      8  H2  UNL     1       1.476 -20.064  -4.376  1.00  0.00     0.162 HD
BRANCH   7   9
HETATM    9  C4  UNL     1       0.124 -20.449  -5.723  1.00  0.00     0.178 A 
HETATM   10  N3  UNL     1      -0.767 -21.232  -6.340  1.00  0.00    -0.222 N 
HETATM   11  O3  UNL     1      -1.447 -20.500  -7.208  1.00  0.00    -0.153 OA
ATOM     12  H3  UNL     1      -0.901 -22.228  -6.170  1.00  0.00     0.198 HD
HETATM   13  N4  UNL     1      -1.032 -19.269  -7.179  1.00  0.00    -0.216 N 
HETATM   14  C5  UNL     1      -0.033 -19.193  -6.248  1.00  0.00     0.211 A 
ATOM     15  H4  UNL     1      -1.385 -18.500  -7.747  1.00  0.00     0.199 HD
BRANCH  14  16
HETATM   16  O4  UNL     1       0.643 -18.024  -5.947  1.00  0.00    -0.321 OA
BRANCH  16  17
HETATM   17  C6  UNL     1       0.001 -16.876  -5.454  1.00  0.00     0.290 C 
BRANCH  17  18
HETATM   18  C7  UNL     1      -0.889 -16.213  -6.425  1.00  0.00     0.198 C 
HETATM   19  O5  UNL     1      -0.375 -15.503  -7.317  1.00  0.00    -0.646 OA
HETATM   20  O6  UNL     1      -2.257 -16.358  -6.374  1.00  0.00    -0.646 OA
ENDBRANCH  17  18
ENDBRANCH  16  17
ENDBRANCH  14  16
ENDBRANCH   7   9
ENDBRANCH   6   7
BRANCH   6  21
HETATM   21  C8  UNL     1       2.629 -22.532  -4.565  1.00  0.00     0.122 C 
HETATM   22  N5  UNL     1       3.253 -22.409  -5.665  1.00  0.00    -0.386 N 
ATOM     23  H52 UNL     1       2.744 -22.021  -6.459  1.00  0.00     0.157 HD
ATOM     24  H51 UNL     1       4.229 -22.678  -5.794  1.00  0.00     0.157 HD
BRANCH  21  25
HETATM   25  N6  UNL     1       3.354 -23.084  -3.435  1.00  0.00    -0.286 N 
ATOM     26  H6  UNL     1       2.807 -23.447  -2.654  1.00  0.00     0.188 HD
BRANCH  25  27
HETATM   27  N7  UNL     1       4.659 -23.153  -3.343  1.00  0.00    -0.283 N 
ATOM     28  H7  UNL     1       5.020 -22.305  -2.905  1.00  0.00     0.188 HD
BRANCH  27  29
HETATM   29  C9  UNL     1       5.634 -23.945  -3.629  1.00  0.00     0.132 A 
HETATM   30  C10 UNL     1       5.502 -24.808  -4.709  1.00  0.00     0.096 A 
HETATM   31  C11 UNL     1       6.531 -25.643  -4.958  1.00  0.00     0.127 A 
HETATM   32  S1  UNL     1       7.643 -25.254  -3.748  1.00  0.00     0.015 SA
HETATM   33  N8  UNL     1       6.758 -24.023  -2.949  1.00  0.00    -0.294 N 
BRANCH  31  34
HETATM   34  O7  UNL     1       6.618 -26.606  -5.999  1.00  0.00    -0.353 OA
ATOM     35  H7  UNL     1       5.985 -27.282  -6.206  1.00  0.00     0.218 HD
ENDBRANCH  31  34
BRANCH  33  36
HETATM   36  C12 UNL     1       7.289 -23.265  -1.795  1.00  0.00     0.196 C 
BRANCH  36  37
HETATM   37  C13 UNL     1       7.886 -22.006  -2.300  1.00  0.00     0.029 A 
HETATM   38  C14 UNL     1       7.615 -20.759  -1.836  1.00  0.00     0.028 A 
HETATM   39  C15 UNL     1       8.214 -19.620  -2.376  1.00  0.00     0.023 A 
HETATM   40  C16 UNL     1       9.100 -19.780  -3.404  1.00  0.00     0.075 A 
HETATM   41  C17 UNL     1       9.388 -21.057  -3.887  1.00  0.00     0.118 A 
HETATM   42  C19 UNL     1       9.787 -18.667  -4.047  1.00  0.00     0.256 C 
HETATM   43  N9  UNL     1       8.778 -22.096  -3.324  1.00  0.00    -0.344 N 
HETATM   44  N10 UNL     1      10.302 -21.237  -4.948  1.00  0.00    -0.359 N 
ATOM     45  H9  UNL     1       8.994 -23.027  -3.684  1.00  0.00     0.167 HD
HETATM   46  C18 UNL     1      11.241 -20.212  -5.328  1.00  0.00     0.248 C 
ATOM     47  H10 UNL     1      10.298 -22.119  -5.460  1.00  0.00     0.162 HD
HETATM   48  N11 UNL     1      10.687 -18.906  -5.099  1.00  0.00    -0.341 N 
ATOM     49  H11 UNL     1      10.953 -18.136  -5.714  1.00  0.00     0.164 HD
HETATM   50  O8  UNL     1       9.542 -17.515  -3.625  1.00  0.00    -0.267 OA
ENDBRANCH  36  37
ENDBRANCH  33  36
ENDBRANCH  27  29
ENDBRANCH  25  27
ENDBRANCH  21  25
ENDBRANCH   6  21
ENDBRANCH   4   6
ENDBRANCH   3   4
TORSDOF 14
ENDMDL
MODEL 4
REMARK VINA RESULT: -9.857294275      1.606      2.104
REMARK  14 active torsions:
REMARK  status: ('A' for Active; 'I' for Inactive)
REMARK    1  A    between atoms: O1_3  and  C2_4 
REMARK    2  A    between atoms: C2_4  and  C3_6 
REMARK    3  A    between atoms: C3_6  and  N2_7 
REMARK    4  A    between atoms: C3_6  and  C8_21 
REMARK    5  A    between atoms: N2_7  and  C4_9 
REMARK    6  A    between atoms: C5_15  and  O4_16 
REMARK    7  A    between atoms: O4_16  and  C6_17 
REMARK    8  A    between atoms: C6_17  and  C7_18 
REMARK    9  A    between atoms: C8_21  and  N6_25 
REMARK   10  A    between atoms: N6_25  and  N7_27 
REMARK   11  A    between atoms: N7_27  and  C9_29 
REMARK   12  A    between atoms: C11_31  and  O7_32 
REMARK   13  A    between atoms: N8_35  and  C12_36 
REMARK   14  A    between atoms: C12_36  and  C13_37 
ROOT
HETATM    1  N1  UNL     1      -1.105 -24.942  -3.689  1.00  0.00    -0.163 NA
HETATM    2  C1  UNL     1      -0.479 -24.180  -3.084  1.00  0.00     0.236 C 
HETATM    3  O1  UNL     1       0.276 -23.262  -2.372  1.00  0.00    -0.202 OA
ENDROOT
BRANCH   3   4
HETATM    4  C2  UNL     1       0.876 -22.180  -2.984  1.00  0.00     0.303 C 
HETATM    5  O2  UNL     1       0.932 -21.095  -2.363  1.00  0.00    -0.261 OA
BRANCH   4   6
HETATM    6  C3  UNL     1       1.451 -22.266  -4.349  1.00  0.00     0.253 C 
BRANCH   6   7
HETATM    7  N2  UNL     1       1.217 -21.009  -5.001  1.00  0.00    -0.351 N 
ATOM      8  H2  UNL     1       1.910 -20.280  -4.837  1.00  0.00     0.162 HD
BRANCH   7   9
HETATM    9  C4  UNL     1       0.248 -20.702  -5.758  1.00  0.00     0.178 A 
HETATM   10  N3  UNL     1      -0.640 -21.547  -6.292  1.00  0.00    -0.222 N 
HETATM   11  O3  UNL     1      -1.499 -20.857  -7.023  1.00  0.00    -0.153 OA
ATOM     12  H3  UNL     1      -0.652 -22.558  -6.158  1.00  0.00     0.198 HD
HETATM   13  N4  UNL     1      -1.205 -19.591  -6.985  1.00  0.00    -0.216 N 
HETATM   14  C5  UNL     1      -0.100 -19.449  -6.192  1.00  0.00     0.211 A 
ATOM     15  H4  UNL     1      -1.706 -18.841  -7.460  1.00  0.00     0.199 HD
BRANCH  14  16
HETATM   16  O4  UNL     1       0.494 -18.230  -5.922  1.00  0.00    -0.321 OA
BRANCH  16  17
HETATM   17  C6  UNL     1      -0.205 -17.144  -5.370  1.00  0.00     0.290 C 
BRANCH  17  18
HETATM   18  C7  UNL     1      -0.895 -16.298  -6.361  1.00  0.00     0.198 C 
HETATM   19  O5  UNL     1      -2.112 -16.496  -6.571  1.00  0.00    -0.646 OA
HETATM   20  O6  UNL     1      -0.238 -15.305  -7.051  1.00  0.00    -0.646 OA
ENDBRANCH  17  18
ENDBRANCH  16  17
ENDBRANCH  14  16
ENDBRANCH   7   9
ENDBRANCH   6   7
BRANCH   6  21
HETATM   21  C8  UNL     1       2.884 -22.593  -4.239  1.00  0.00     0.122 C 
HETATM   22  N5  UNL     1       3.671 -22.651  -5.235  1.00  0.00    -0.386 N 
ATOM     23  H52 UNL     1       3.282 -22.460  -6.159  1.00  0.00     0.157 HD
ATOM     24  H51 UNL     1       4.662 -22.878  -5.159  1.00  0.00     0.157 HD
BRANCH  21  25
HETATM   25  N6  UNL     1       3.437 -22.865  -2.925  1.00  0.00    -0.286 N 
ATOM     26  H6  UNL     1       2.808 -23.248  -2.218  1.00  0.00     0.188 HD
BRANCH  25  27
HETATM   27  N7  UNL     1       4.683 -22.656  -2.578  1.00  0.00    -0.283 N 
ATOM     28  H7  UNL     1       5.028 -21.806  -3.025  1.00  0.00     0.188 HD
BRANCH  27  29
HETATM   29  C9  UNL     1       5.613 -23.178  -1.855  1.00  0.00     0.132 A 
HETATM   30  C10 UNL     1       5.806 -24.551  -1.901  1.00  0.00     0.096 A 
HETATM   31  C11 UNL     1       6.769 -25.063  -1.107  1.00  0.00     0.127 A 
HETATM   32  S1  UNL     1       7.386 -23.700  -0.324  1.00  0.00     0.015 SA
HETATM   33  N8  UNL     1       6.392 -22.501  -1.038  1.00  0.00    -0.294 N 
BRANCH  31  34
HETATM   34  O7  UNL     1       7.142 -26.429  -0.987  1.00  0.00    -0.353 OA
ATOM     35  H7  UNL     1       8.008 -26.771  -0.803  1.00  0.00     0.218 HD
ENDBRANCH  31  34
BRANCH  33  36
HETATM   36  C12 UNL     1       6.529 -21.058  -0.745  1.00  0.00     0.196 C 
BRANCH  36  37
HETATM   37  C13 UNL     1       7.479 -20.472  -1.720  1.00  0.00     0.029 A 
HETATM   38  C14 UNL     1       8.154 -21.157  -2.678  1.00  0.00     0.028 A 
HETATM   39  C15 UNL     1       9.043 -20.530  -3.553  1.00  0.00     0.023 A 
HETATM   40  C16 UNL     1       9.229 -19.182  -3.430  1.00  0.00     0.075 A 
HETATM   41  C17 UNL     1       8.538 -18.467  -2.450  1.00  0.00     0.118 A 
HETATM   42  C19 UNL     1      10.129 -18.418  -4.284  1.00  0.00     0.256 C 
HETATM   43  N9  UNL     1       7.708 -19.133  -1.651  1.00  0.00    -0.344 N 
HETATM   44  N10 UNL     1       8.720 -17.074  -2.312  1.00  0.00    -0.359 N 
ATOM     45  H9  UNL     1       7.208 -18.602  -0.937  1.00  0.00     0.167 HD
HETATM   46  C18 UNL     1       9.302 -16.273  -3.360  1.00  0.00     0.248 C 
ATOM     47  H10 UNL     1       8.431 -16.620  -1.445  1.00  0.00     0.162 HD
HETATM   48  N11 UNL     1      10.270 -17.032  -4.101  1.00  0.00    -0.341 N 
ATOM     49  H11 UNL     1      11.078 -16.555  -4.503  1.00  0.00     0.164 HD
HETATM   50  O8  UNL     1      10.755 -19.043  -5.170  1.00  0.00    -0.267 OA
ENDBRANCH  36  37
ENDBRANCH  33  36
ENDBRANCH  27  29
ENDBRANCH  25  27
ENDBRANCH  21  25
ENDBRANCH   6  21
ENDBRANCH   4   6
ENDBRANCH   3   4
TORSDOF 14
ENDMDL
MODEL 5
REMARK VINA RESULT: -9.334040684      2.507      3.756
REMARK  14 active torsions:
REMARK  status: ('A' for Active; 'I' for Inactive)
REMARK    1  A    between atoms: O1_3  and  C2_4 
REMARK    2  A    between atoms: C2_4  and  C3_6 
REMARK    3  A    between atoms: C3_6  and  N2_7 
REMARK    4  A    between atoms: C3_6  and  C8_21 
REMARK    5  A    between atoms: N2_7  and  C4_9 
REMARK    6  A    between atoms: C5_15  and  O4_16 
REMARK    7  A    between atoms: O4_16  and  C6_17 
REMARK    8  A    between atoms: C6_17  and  C7_18 
REMARK    9  A    between atoms: C8_21  and  N6_25 
REMARK   10  A    between atoms: N6_25  and  N7_27 
REMARK   11  A    between atoms: N7_27  and  C9_29 
REMARK   12  A    between atoms: C11_31  and  O7_32 
REMARK   13  A    between atoms: N8_35  and  C12_36 
REMARK   14  A    between atoms: C12_36  and  C13_37 
ROOT
HETATM    1  N1  UNL     1       2.892 -21.943   0.452  1.00  0.00    -0.163 NA
HETATM    2  C1  UNL     1       2.824 -22.089  -0.694  1.00  0.00     0.236 C 
HETATM    3  O1  UNL     1       2.729 -22.261  -2.065  1.00  0.00    -0.202 OA
ENDROOT
BRANCH   3   4
HETATM    4  C2  UNL     1       1.601 -21.894  -2.770  1.00  0.00     0.303 C 
HETATM    5  O2  UNL     1       0.726 -21.211  -2.191  1.00  0.00    -0.261 OA
BRANCH   4   6
HETATM    6  C3  UNL     1       1.395 -22.285  -4.187  1.00  0.00     0.253 C 
BRANCH   6   7
HETATM    7  N2  UNL     1       1.198 -21.084  -4.947  1.00  0.00    -0.351 N 
ATOM      8  H2  UNL     1       1.909 -20.361  -4.839  1.00  0.00     0.162 HD
BRANCH   7   9
HETATM    9  C4  UNL     1       0.242 -20.818  -5.736  1.00  0.00     0.178 A 
HETATM   10  N3  UNL     1      -0.697 -21.671  -6.159  1.00  0.00    -0.222 N 
HETATM   11  O3  UNL     1      -1.521 -21.029  -6.970  1.00  0.00    -0.153 OA
ATOM     12  H3  UNL     1      -0.766 -22.655  -5.899  1.00  0.00     0.198 HD
HETATM   13  N4  UNL     1      -1.154 -19.787  -7.091  1.00  0.00    -0.216 N 
HETATM   14  C5  UNL     1      -0.037 -19.611  -6.322  1.00  0.00     0.211 A 
ATOM     15  H4  UNL     1      -1.615 -19.075  -7.656  1.00  0.00     0.199 HD
BRANCH  14  16
HETATM   16  O4  UNL     1       0.629 -18.404  -6.208  1.00  0.00    -0.321 OA
BRANCH  16  17
HETATM   17  C6  UNL     1       0.057 -17.271  -5.606  1.00  0.00     0.290 C 
BRANCH  17  18
HETATM   18  C7  UNL     1      -0.837 -16.499  -6.490  1.00  0.00     0.198 C 
HETATM   19  O5  UNL     1      -2.054 -16.787  -6.506  1.00  0.00    -0.646 OA
HETATM   20  O6  UNL     1      -0.367 -15.481  -7.288  1.00  0.00    -0.646 OA
ENDBRANCH  17  18
ENDBRANCH  16  17
ENDBRANCH  14  16
ENDBRANCH   7   9
ENDBRANCH   6   7
BRANCH   6  21
HETATM   21  C8  UNL     1       2.563 -23.061  -4.638  1.00  0.00     0.122 C 
HETATM   22  N5  UNL     1       3.420 -22.625  -5.469  1.00  0.00    -0.386 N 
ATOM     23  H52 UNL     1       3.284 -21.684  -5.840  1.00  0.00     0.157 HD
ATOM     24  H51 UNL     1       4.228 -23.162  -5.782  1.00  0.00     0.157 HD
BRANCH  21  25
HETATM   25  N6  UNL     1       2.756 -24.400  -4.110  1.00  0.00    -0.286 N 
ATOM     26  H6  UNL     1       1.965 -25.043  -4.152  1.00  0.00     0.188 HD
BRANCH  25  27
HETATM   27  N7  UNL     1       3.870 -24.843  -3.582  1.00  0.00    -0.283 N 
ATOM     28  H7  UNL     1       3.932 -24.551  -2.607  1.00  0.00     0.188 HD
BRANCH  27  29
HETATM   29  C9  UNL     1       4.914 -25.530  -3.899  1.00  0.00     0.132 A 
HETATM   30  C10 UNL     1       4.961 -26.141  -5.145  1.00  0.00     0.096 A 
HETATM   31  C11 UNL     1       6.056 -26.875  -5.428  1.00  0.00     0.127 A 
HETATM   32  S1  UNL     1       6.989 -26.730  -4.027  1.00  0.00     0.015 SA
HETATM   33  N8  UNL     1       5.948 -25.725  -3.109  1.00  0.00    -0.294 N 
BRANCH  31  34
HETATM   34  O7  UNL     1       6.322 -27.587  -6.629  1.00  0.00    -0.353 OA
ATOM     35  H7  UNL     1       7.114 -28.063  -6.848  1.00  0.00     0.218 HD
ENDBRANCH  31  34
BRANCH  33  36
HETATM   36  C12 UNL     1       6.292 -25.222  -1.761  1.00  0.00     0.196 C 
BRANCH  36  37
HETATM   37  C13 UNL     1       6.749 -23.819  -1.890  1.00  0.00     0.029 A 
HETATM   38  C14 UNL     1       7.677 -23.365  -2.771  1.00  0.00     0.028 A 
HETATM   39  C15 UNL     1       8.062 -22.024  -2.820  1.00  0.00     0.023 A 
HETATM   40  C16 UNL     1       7.476 -21.151  -1.947  1.00  0.00     0.075 A 
HETATM   41  C17 UNL     1       6.519 -21.606  -1.038  1.00  0.00     0.118 A 
HETATM   42  C19 UNL     1       7.795 -19.730  -1.904  1.00  0.00     0.256 C 
HETATM   43  N9  UNL     1       6.204 -22.898  -1.049  1.00  0.00    -0.344 N 
HETATM   44  N10 UNL     1       5.906 -20.714  -0.132  1.00  0.00    -0.359 N 
ATOM     45  H9  UNL     1       5.504 -23.222  -0.381  1.00  0.00     0.167 HD
HETATM   46  C18 UNL     1       5.936 -19.286  -0.327  1.00  0.00     0.248 C 
ATOM     47  H10 UNL     1       5.427 -21.092   0.685  1.00  0.00     0.162 HD
HETATM   48  N11 UNL     1       7.153 -18.889  -0.980  1.00  0.00    -0.341 N 
ATOM     49  H11 UNL     1       7.559 -17.977  -0.767  1.00  0.00     0.164 HD
HETATM   50  O8  UNL     1       8.650 -19.304  -2.713  1.00  0.00    -0.267 OA
ENDBRANCH  36  37
ENDBRANCH  33  36
ENDBRANCH  27  29
ENDBRANCH  25  27
ENDBRANCH  21  25
ENDBRANCH   6  21
ENDBRANCH   4   6
ENDBRANCH   3   4
TORSDOF 14
ENDMDL
