MODEL 1
REMARK VINA RESULT: -9.860271009      0.000      0.000
REMARK  3 active torsions:
REMARK  status: ('A' for Active; 'I' for Inactive)
REMARK    1  A    between atoms: C2_2  and  C4_4 
REMARK    2  A    between atoms: N2_19  and  C16_20 
REMARK    3  A    between atoms: C16_20  and  C17_21 
ROOT
HETATM    1  C4  UNL     1      64.980  11.498  34.868  1.00  0.00     0.213 C 
HETATM    2  N1  UNL     1      65.617  12.296  35.953  1.00  0.00    -0.064 N 
ATOM      3  H11 UNL     1      66.611  12.099  36.064  1.00  0.00     0.278 HD
ATOM      4  H12 UNL     1      65.322  12.009  36.887  1.00  0.00     0.278 HD
HETATM    5  C5  UNL     1      65.338  13.702  35.670  1.00  0.00     0.191 C 
HETATM    6  C6  UNL     1      66.067  14.592  36.658  1.00  0.00     0.033 C 
HETATM    7  C7  UNL     1      65.147  15.360  37.547  1.00  0.00     0.002 C 
HETATM    8  C8  UNL     1      64.066  16.094  36.811  1.00  0.00     0.001 C 
HETATM    9  C9  UNL     1      63.418  15.322  35.724  1.00  0.00     0.007 C 
HETATM   10  C10 UNL     1      63.865  13.892  35.731  1.00  0.00     0.026 C 
HETATM   11  C11 UNL     1      63.202  13.062  34.662  1.00  0.00    -0.016 C 
HETATM   12  C12 UNL     1      63.664  13.522  33.355  1.00  0.00     0.018 C 
HETATM   13  C13 UNL     1      61.704  13.171  34.707  1.00  0.00     0.013 C 
HETATM   14  C14 UNL     1      61.135  12.351  33.557  1.00  0.00     0.021 C 
HETATM   15  C15 UNL     1      61.861  11.054  33.382  1.00  0.00     0.122 C 
HETATM   16  N2  UNL     1      62.604  10.692  34.554  1.00  0.00    -0.386 N 
HETATM   17  C23 UNL     1      63.549  11.589  35.043  1.00  0.00     0.123 C 
ENDROOT
BRANCH  16  18
HETATM   18  C16 UNL     1      62.248   9.514  35.185  1.00  0.00     0.063 C 
BRANCH  18  19
HETATM   19  C17 UNL     1      61.815   9.422  36.594  1.00  0.00     0.024 C 
HETATM   20  C18 UNL     1      61.529   8.019  37.066  1.00  0.00     0.010 C 
HETATM   21  C19 UNL     1      60.375   7.969  38.042  1.00  0.00     0.001 C 
HETATM   22  C20 UNL     1      60.312   9.155  38.944  1.00  0.00     0.000 C 
HETATM   23  C21 UNL     1      60.313  10.469  38.201  1.00  0.00     0.001 C 
HETATM   24  C22 UNL     1      60.499  10.180  36.748  1.00  0.00     0.010 C 
ENDBRANCH  18  19
ENDBRANCH  16  18
BRANCH   1  25
HETATM   25  C2  UNL     1      65.800  10.293  34.790  1.00  0.00     0.010 C 
HETATM   26  C1  UNL     1      67.183  10.394  34.235  1.00  0.00     0.011 C 
HETATM   27  C3  UNL     1      65.719   9.384  36.001  1.00  0.00     0.011 C 
ENDBRANCH   1  25
TORSDOF 3
ENDMDL
MODEL 2
REMARK VINA RESULT: -9.576249707      1.127      1.764
REMARK  3 active torsions:
REMARK  status: ('A' for Active; 'I' for Inactive)
REMARK    1  A    between atoms: C2_2  and  C4_4 
REMARK    2  A    between atoms: N2_19  and  C16_20 
REMARK    3  A    between atoms: C16_20  and  C17_21 
ROOT
HETATM    1  C4  UNL     1      65.539  11.943  35.261  1.00  0.00     0.213 C 
HETATM    2  N1  UNL     1      65.972  12.975  36.245  1.00  0.00    -0.064 N 
ATOM      3  H11 UNL     1      66.985  13.040  36.338  1.00  0.00     0.278 HD
ATOM      4  H12 UNL     1      65.767  12.718  37.210  1.00  0.00     0.278 HD
HETATM    5  C5  UNL     1      65.350  14.235  35.842  1.00  0.00     0.191 C 
HETATM    6  C6  UNL     1      65.849  15.370  36.718  1.00  0.00     0.033 C 
HETATM    7  C7  UNL     1      64.777  15.972  37.564  1.00  0.00     0.002 C 
HETATM    8  C8  UNL     1      63.540  16.343  36.802  1.00  0.00     0.001 C 
HETATM    9  C9  UNL     1      63.090  15.333  35.815  1.00  0.00     0.007 C 
HETATM   10  C10 UNL     1      63.877  14.063  35.938  1.00  0.00     0.026 C 
HETATM   11  C11 UNL     1      63.427  12.995  34.975  1.00  0.00    -0.016 C 
HETATM   12  C12 UNL     1      63.746  13.424  33.615  1.00  0.00     0.018 C 
HETATM   13  C13 UNL     1      61.950  12.738  35.062  1.00  0.00     0.013 C 
HETATM   14  C14 UNL     1      61.587  11.695  34.014  1.00  0.00     0.021 C 
HETATM   15  C15 UNL     1      62.609  10.605  33.934  1.00  0.00     0.122 C 
HETATM   16  N2  UNL     1      63.433  10.553  35.108  1.00  0.00    -0.386 N 
HETATM   17  C23 UNL     1      64.132  11.698  35.477  1.00  0.00     0.123 C 
ENDROOT
BRANCH  16  18
HETATM   18  C16 UNL     1      63.386   9.392  35.857  1.00  0.00     0.063 C 
BRANCH  18  19
HETATM   19  C17 UNL     1      62.239   8.462  35.882  1.00  0.00     0.024 C 
HETATM   20  C18 UNL     1      61.268   8.703  37.009  1.00  0.00     0.010 C 
HETATM   21  C19 UNL     1      60.684   7.416  37.546  1.00  0.00     0.001 C 
HETATM   22  C20 UNL     1      60.462   6.383  36.494  1.00  0.00     0.000 C 
HETATM   23  C21 UNL     1      61.695   6.097  35.670  1.00  0.00     0.001 C 
HETATM   24  C22 UNL     1      62.766   7.045  36.095  1.00  0.00     0.010 C 
ENDBRANCH  18  19
ENDBRANCH  16  18
BRANCH   1  25
HETATM   25  C2  UNL     1      66.630  10.973  35.265  1.00  0.00     0.010 C 
HETATM   26  C1  UNL     1      67.113  10.423  33.963  1.00  0.00     0.011 C 
HETATM   27  C3  UNL     1      67.761  11.286  36.225  1.00  0.00     0.011 C 
ENDBRANCH   1  25
TORSDOF 3
ENDMDL
MODEL 3
REMARK VINA RESULT: -9.538967338      1.245      1.962
REMARK  3 active torsions:
REMARK  status: ('A' for Active; 'I' for Inactive)
REMARK    1  A    between atoms: C2_2  and  C4_4 
REMARK    2  A    between atoms: N2_19  and  C16_20 
REMARK    3  A    between atoms: C16_20  and  C17_21 
ROOT
HETATM    1  C4  UNL     1      64.756  11.527  35.133  1.00  0.00     0.213 C 
HETATM    2  N1  UNL     1      65.513  12.346  36.122  1.00  0.00    -0.064 N 
ATOM      3  H11 UNL     1      66.499  12.094  36.179  1.00  0.00     0.278 HD
ATOM      4  H12 UNL     1      65.267  12.135  37.089  1.00  0.00     0.278 HD
HETATM    5  C5  UNL     1      65.298  13.748  35.769  1.00  0.00     0.191 C 
HETATM    6  C6  UNL     1      66.145  14.648  36.649  1.00  0.00     0.033 C 
HETATM    7  C7  UNL     1      65.336  15.523  37.546  1.00  0.00     0.002 C 
HETATM    8  C8  UNL     1      64.251  16.278  36.838  1.00  0.00     0.001 C 
HETATM    9  C9  UNL     1      63.485  15.486  35.848  1.00  0.00     0.007 C 
HETATM   10  C10 UNL     1      63.846  14.033  35.915  1.00  0.00     0.026 C 
HETATM   11  C11 UNL     1      63.063  13.185  34.947  1.00  0.00    -0.016 C 
HETATM   12  C12 UNL     1      63.459  13.537  33.585  1.00  0.00     0.018 C 
HETATM   13  C13 UNL     1      61.581  13.390  35.083  1.00  0.00     0.013 C 
HETATM   14  C14 UNL     1      60.886  12.542  34.027  1.00  0.00     0.021 C 
HETATM   15  C15 UNL     1      61.520  11.194  33.887  1.00  0.00     0.122 C 
HETATM   16  N2  UNL     1      62.321  10.856  35.028  1.00  0.00    -0.386 N 
HETATM   17  C23 UNL     1      63.348  11.719  35.396  1.00  0.00     0.123 C 
ENDROOT
BRANCH  16  18
HETATM   18  C16 UNL     1      61.941   9.742  35.754  1.00  0.00     0.063 C 
BRANCH  18  19
HETATM   19  C17 UNL     1      62.290   8.353  35.393  1.00  0.00     0.024 C 
HETATM   20  C18 UNL     1      61.151   7.556  34.811  1.00  0.00     0.010 C 
HETATM   21  C19 UNL     1      61.196   6.105  35.232  1.00  0.00     0.001 C 
HETATM   22  C20 UNL     1      62.581   5.566  35.351  1.00  0.00     0.000 C 
HETATM   23  C21 UNL     1      63.469   6.398  36.245  1.00  0.00     0.001 C 
HETATM   24  C22 UNL     1      62.702   7.610  36.661  1.00  0.00     0.010 C 
ENDBRANCH  18  19
ENDBRANCH  16  18
BRANCH   1  25
HETATM   25  C2  UNL     1      65.496  10.270  35.078  1.00  0.00     0.010 C 
HETATM   26  C1  UNL     1      66.727  10.194  34.235  1.00  0.00     0.011 C 
HETATM   27  C3  UNL     1      65.651   9.559  36.407  1.00  0.00     0.011 C 
ENDBRANCH   1  25
TORSDOF 3
ENDMDL
MODEL 4
REMARK VINA RESULT: -9.184723155      0.416      1.274
REMARK  3 active torsions:
REMARK  status: ('A' for Active; 'I' for Inactive)
REMARK    1  A    between atoms: C2_2  and  C4_4 
REMARK    2  A    between atoms: N2_19  and  C16_20 
REMARK    3  A    between atoms: C16_20  and  C17_21 
ROOT
HETATM    1  C4  UNL     1      65.165  11.650  35.191  1.00  0.00     0.213 C 
HETATM    2  N1  UNL     1      65.705  12.556  36.243  1.00  0.00    -0.064 N 
ATOM      3  H11 UNL     1      66.704  12.430  36.407  1.00  0.00     0.278 HD
ATOM      4  H12 UNL     1      65.387  12.315  37.182  1.00  0.00     0.278 HD
HETATM    5  C5  UNL     1      65.356  13.920  35.852  1.00  0.00     0.191 C 
HETATM    6  C6  UNL     1      65.988  14.919  36.804  1.00  0.00     0.033 C 
HETATM    7  C7  UNL     1      64.986  15.685  37.600  1.00  0.00     0.002 C 
HETATM    8  C8  UNL     1      63.896  16.300  36.773  1.00  0.00     0.001 C 
HETATM    9  C9  UNL     1      63.343  15.418  35.718  1.00  0.00     0.007 C 
HETATM   10  C10 UNL     1      63.873  14.022  35.841  1.00  0.00     0.026 C 
HETATM   11  C11 UNL     1      63.308  13.083  34.807  1.00  0.00    -0.016 C 
HETATM   12  C12 UNL     1      63.799  13.482  33.490  1.00  0.00     0.018 C 
HETATM   13  C13 UNL     1      61.806  13.101  34.785  1.00  0.00     0.013 C 
HETATM   14  C14 UNL     1      61.337  12.173  33.673  1.00  0.00     0.021 C 
HETATM   15  C15 UNL     1      62.146  10.914  33.618  1.00  0.00     0.122 C 
HETATM   16  N2  UNL     1      62.857  10.679  34.840  1.00  0.00    -0.386 N 
HETATM   17  C23 UNL     1      63.725  11.663  35.302  1.00  0.00     0.123 C 
ENDROOT
BRANCH  16  18
HETATM   18  C16 UNL     1      62.545   9.526  35.537  1.00  0.00     0.063 C 
BRANCH  18  19
HETATM   19  C17 UNL     1      61.325   9.349  36.351  1.00  0.00     0.024 C 
HETATM   20  C18 UNL     1      60.777  10.626  36.934  1.00  0.00     0.010 C 
HETATM   21  C19 UNL     1      60.183  10.417  38.309  1.00  0.00     0.001 C 
HETATM   22  C20 UNL     1      59.504   9.099  38.466  1.00  0.00     0.000 C 
HETATM   23  C21 UNL     1      60.381   7.928  38.090  1.00  0.00     0.001 C 
HETATM   24  C22 UNL     1      61.664   8.466  37.549  1.00  0.00     0.010 C 
ENDBRANCH  18  19
ENDBRANCH  16  18
BRANCH   1  25
HETATM   25  C2  UNL     1      66.057  10.495  35.230  1.00  0.00     0.010 C 
HETATM   26  C1  UNL     1      65.661   9.302  36.037  1.00  0.00     0.011 C 
HETATM   27  C3  UNL     1      66.678  10.121  33.898  1.00  0.00     0.011 C 
ENDBRANCH   1  25
TORSDOF 3
ENDMDL
MODEL 5
REMARK VINA RESULT: -7.830152637      1.872      3.280
REMARK  3 active torsions:
REMARK  status: ('A' for Active; 'I' for Inactive)
REMARK    1  A    between atoms: C2_2  and  C4_4 
REMARK    2  A    between atoms: N2_19  and  C16_20 
REMARK    3  A    between atoms: C16_20  and  C17_21 
ROOT
HETATM    1  C4  UNL     1      63.016   9.403  35.627  1.00  0.00     0.213 C 
HETATM    2  N1  UNL     1      64.487   9.428  35.862  1.00  0.00    -0.064 N 
ATOM      3  H11 UNL     1      64.913   8.502  35.835  1.00  0.00     0.278 HD
ATOM      4  H12 UNL     1      64.736   9.658  36.824  1.00  0.00     0.278 HD
HETATM    5  C5  UNL     1      65.060  10.352  34.885  1.00  0.00     0.191 C 
HETATM    6  C6  UNL     1      66.575  10.333  34.969  1.00  0.00     0.033 C 
HETATM    7  C7  UNL     1      67.154  11.630  35.426  1.00  0.00     0.002 C 
HETATM    8  C8  UNL     1      66.641  12.821  34.673  1.00  0.00     0.001 C 
HETATM    9  C9  UNL     1      65.180  12.819  34.424  1.00  0.00     0.007 C 
HETATM   10  C10 UNL     1      64.504  11.702  35.161  1.00  0.00     0.026 C 
HETATM   11  C11 UNL     1      63.011  11.685  34.964  1.00  0.00    -0.016 C 
HETATM   12  C12 UNL     1      62.723  11.353  33.570  1.00  0.00     0.018 C 
HETATM   13  C13 UNL     1      62.382  13.013  35.279  1.00  0.00     0.013 C 
HETATM   14  C14 UNL     1      60.890  12.912  34.991  1.00  0.00     0.021 C 
HETATM   15  C15 UNL     1      60.321  11.603  35.444  1.00  0.00     0.122 C 
HETATM   16  N2  UNL     1      61.170  10.949  36.398  1.00  0.00    -0.386 N 
HETATM   17  C23 UNL     1      62.488  10.683  36.039  1.00  0.00     0.123 C 
ENDROOT
BRANCH  16  18
HETATM   18  C16 UNL     1      60.646  10.728  37.658  1.00  0.00     0.063 C 
BRANCH  18  19
HETATM   19  C17 UNL     1      59.787   9.580  38.013  1.00  0.00     0.024 C 
HETATM   20  C18 UNL     1      58.713   9.895  39.022  1.00  0.00     0.010 C 
HETATM   21  C19 UNL     1      58.457   8.740  39.963  1.00  0.00     0.001 C 
HETATM   22  C20 UNL     1      58.588   7.405  39.311  1.00  0.00     0.000 C 
HETATM   23  C21 UNL     1      59.905   7.217  38.596  1.00  0.00     0.001 C 
HETATM   24  C22 UNL     1      60.655   8.506  38.663  1.00  0.00     0.010 C 
ENDBRANCH  18  19
ENDBRANCH  16  18
BRANCH   1  25
HETATM   25  C2  UNL     1      62.610   8.077  36.081  1.00  0.00     0.010 C 
HETATM   26  C1  UNL     1      61.646   7.293  35.250  1.00  0.00     0.011 C 
HETATM   27  C3  UNL     1      63.727   7.222  36.644  1.00  0.00     0.011 C 
ENDBRANCH   1  25
TORSDOF 3
ENDMDL
