MODEL 1
REMARK VINA RESULT: -9.439832200      0.000      0.000
REMARK  3 active torsions:
REMARK  status: ('A' for Active; 'I' for Inactive)
REMARK    1  A    between atoms: C2_2  and  C3_3 
REMARK    2  A    between atoms: C3_3  and  N1_4 
REMARK    3  A    between atoms: C7_11  and  C9_13 
ROOT
HETATM    1  C9  UNL     1      64.062  12.625  34.384  1.00  0.00    -0.025 C 
HETATM    2  C10 UNL     1      63.220  13.828  34.027  1.00  0.00     0.011 C 
HETATM    3  C11 UNL     1      63.682  15.148  34.538  1.00  0.00     0.001 C 
HETATM    4  C12 UNL     1      64.075  15.060  36.027  1.00  0.00     0.005 C 
HETATM    5  C13 UNL     1      65.165  14.065  36.000  1.00  0.00    -0.005 C 
HETATM    6  C14 UNL     1      65.994  13.934  37.233  1.00  0.00    -0.005 C 
HETATM    7  C15 UNL     1      67.194  14.818  37.109  1.00  0.00     0.006 C 
HETATM    8  C16 UNL     1      68.411  13.951  37.029  1.00  0.00     0.005 C 
HETATM    9  C17 UNL     1      67.964  12.524  37.087  1.00  0.00    -0.014 C 
HETATM   10  C18 UNL     1      68.462  11.946  38.408  1.00  0.00     0.010 C 
HETATM   11  C19 UNL     1      66.473  12.500  37.109  1.00  0.00    -0.002 C 
HETATM   12  C20 UNL     1      65.849  11.901  35.888  1.00  0.00    -0.004 C 
HETATM   13  C21 UNL     1      66.475  12.247  34.602  1.00  0.00     0.006 C 
HETATM   14  C22 UNL     1      65.369  12.605  33.622  1.00  0.00     0.011 C 
HETATM   15  C23 UNL     1      64.535  12.684  35.795  1.00  0.00     0.004 C 
ENDROOT
BRANCH   1  16
HETATM   16  C7  UNL     1      63.188  11.446  34.027  1.00  0.00    -0.016 C 
HETATM   17  C6  UNL     1      61.758  11.838  34.084  1.00  0.00    -0.020 C 
HETATM   18  C5  UNL     1      60.931  11.410  35.065  1.00  0.00    -0.027 C 
HETATM   19  C4  UNL     1      61.449  10.518  36.134  1.00  0.00     0.065 C 
HETATM   20  C3  UNL     1      62.366   9.540  35.483  1.00  0.00     0.127 C 
HETATM   21  C24 UNL     1      63.493  10.161  34.680  1.00  0.00     0.053 C 
HETATM   22  C8  UNL     1      63.497  11.229  32.517  1.00  0.00     0.020 C 
BRANCH  20  23
HETATM   23  C2  UNL     1      61.520   8.611  34.637  1.00  0.00     0.034 C 
HETATM   24  C1  UNL     1      61.532   7.197  35.198  1.00  0.00     0.007 C 
ENDBRANCH  20  23
BRANCH  20  25
HETATM   25  N1  UNL     1      62.996   8.683  36.495  1.00  0.00    -0.070 N 
ATOM     26  H13 UNL     1      62.516   7.793  36.636  1.00  0.00     0.275 HD
ATOM     27  H12 UNL     1      63.891   8.291  36.202  1.00  0.00     0.275 HD
ATOM     28  H11 UNL     1      63.055   9.255  37.338  1.00  0.00     0.275 HD
ENDBRANCH  20  25
ENDBRANCH   1  16
TORSDOF 3
ENDMDL
MODEL 2
REMARK VINA RESULT: -9.437994606      2.579      4.600
REMARK  3 active torsions:
REMARK  status: ('A' for Active; 'I' for Inactive)
REMARK    1  A    between atoms: C2_2  and  C3_3 
REMARK    2  A    between atoms: C3_3  and  N1_4 
REMARK    3  A    between atoms: C7_11  and  C9_13 
ROOT
HETATM    1  C9  UNL     1      62.211   9.751  34.813  1.00  0.00    -0.025 C 
HETATM    2  C10 UNL     1      61.578   9.037  33.642  1.00  0.00     0.011 C 
HETATM    3  C11 UNL     1      61.505   9.787  32.356  1.00  0.00     0.001 C 
HETATM    4  C12 UNL     1      60.996  11.225  32.580  1.00  0.00     0.005 C 
HETATM    5  C13 UNL     1      62.024  11.777  33.485  1.00  0.00    -0.005 C 
HETATM    6  C14 UNL     1      62.021  13.255  33.691  1.00  0.00    -0.005 C 
HETATM    7  C15 UNL     1      62.963  13.885  32.715  1.00  0.00     0.006 C 
HETATM    8  C16 UNL     1      64.107  14.473  33.478  1.00  0.00     0.005 C 
HETATM    9  C17 UNL     1      63.885  14.193  34.930  1.00  0.00    -0.014 C 
HETATM   10  C18 UNL     1      63.617  15.531  35.613  1.00  0.00     0.010 C 
HETATM   11  C19 UNL     1      62.658  13.356  35.064  1.00  0.00    -0.002 C 
HETATM   12  C20 UNL     1      62.911  11.970  35.568  1.00  0.00    -0.004 C 
HETATM   13  C21 UNL     1      64.105  11.294  35.037  1.00  0.00     0.006 C 
HETATM   14  C22 UNL     1      63.711   9.876  34.653  1.00  0.00     0.011 C 
HETATM   15  C23 UNL     1      61.795  11.180  34.876  1.00  0.00     0.004 C 
ENDROOT
BRANCH   1  16
HETATM   16  C7  UNL     1      61.844   8.901  36.004  1.00  0.00    -0.016 C 
HETATM   17  C6  UNL     1      63.039   8.673  36.854  1.00  0.00    -0.020 C 
HETATM   18  C5  UNL     1      63.658   7.472  36.922  1.00  0.00    -0.027 C 
HETATM   19  C4  UNL     1      63.142   6.327  36.129  1.00  0.00     0.065 C 
HETATM   20  C3  UNL     1      61.654   6.379  36.198  1.00  0.00     0.127 C 
HETATM   21  C24 UNL     1      61.043   7.692  35.745  1.00  0.00     0.053 C 
HETATM   22  C8  UNL     1      60.922   9.842  36.832  1.00  0.00     0.020 C 
BRANCH  20  23
HETATM   23  C2  UNL     1      61.249   6.029  37.614  1.00  0.00     0.034 C 
HETATM   24  C1  UNL     1      59.896   6.633  37.962  1.00  0.00     0.007 C 
ENDBRANCH  20  23
BRANCH  20  25
HETATM   25  N1  UNL     1      61.069   5.331  35.352  1.00  0.00    -0.070 N 
ATOM     26  H13 UNL     1      60.064   5.215  35.479  1.00  0.00     0.275 HD
ATOM     27  H12 UNL     1      61.038   5.573  34.361  1.00  0.00     0.275 HD
ATOM     28  H11 UNL     1      61.608   4.488  35.551  1.00  0.00     0.275 HD
ENDBRANCH  20  25
ENDBRANCH   1  16
TORSDOF 3
ENDMDL
MODEL 3
REMARK VINA RESULT: -9.042746966      1.722      6.083
REMARK  3 active torsions:
REMARK  status: ('A' for Active; 'I' for Inactive)
REMARK    1  A    between atoms: C2_2  and  C3_3 
REMARK    2  A    between atoms: C3_3  and  N1_4 
REMARK    3  A    between atoms: C7_11  and  C9_13 
ROOT
HETATM    1  C9  UNL     1      62.218  11.293  34.607  1.00  0.00    -0.025 C 
HETATM    2  C10 UNL     1      61.645  11.665  33.260  1.00  0.00     0.011 C 
HETATM    3  C11 UNL     1      60.804  10.640  32.581  1.00  0.00     0.001 C 
HETATM    4  C12 UNL     1      61.472   9.250  32.632  1.00  0.00     0.005 C 
HETATM    5  C13 UNL     1      61.572   9.010  34.085  1.00  0.00    -0.005 C 
HETATM    6  C14 UNL     1      61.909   7.624  34.521  1.00  0.00    -0.005 C 
HETATM    7  C15 UNL     1      60.641   6.874  34.781  1.00  0.00     0.006 C 
HETATM    8  C16 UNL     1      60.563   6.577  36.246  1.00  0.00     0.005 C 
HETATM    9  C17 UNL     1      61.777   7.158  36.899  1.00  0.00    -0.014 C 
HETATM   10  C18 UNL     1      62.628   5.993  37.392  1.00  0.00     0.010 C 
HETATM   11  C19 UNL     1      62.560   7.893  35.864  1.00  0.00    -0.002 C 
HETATM   12  C20 UNL     1      62.615   9.375  36.070  1.00  0.00    -0.004 C 
HETATM   13  C21 UNL     1      61.368  10.014  36.519  1.00  0.00     0.006 C 
HETATM   14  C22 UNL     1      61.156  11.268  35.684  1.00  0.00     0.011 C 
HETATM   15  C23 UNL     1      62.705   9.886  34.629  1.00  0.00     0.004 C 
ENDROOT
BRANCH   1  16
HETATM   16  C7  UNL     1      63.257  12.357  34.870  1.00  0.00    -0.016 C 
HETATM   17  C6  UNL     1      63.809  12.857  33.587  1.00  0.00    -0.020 C 
HETATM   18  C5  UNL     1      65.063  12.557  33.175  1.00  0.00    -0.027 C 
HETATM   19  C4  UNL     1      65.935  11.702  34.020  1.00  0.00     0.065 C 
HETATM   20  C3  UNL     1      65.717  12.114  35.435  1.00  0.00     0.127 C 
HETATM   21  C24 UNL     1      64.273  12.065  35.897  1.00  0.00     0.053 C 
HETATM   22  C8  UNL     1      62.413  13.532  35.441  1.00  0.00     0.020 C 
BRANCH  20  23
HETATM   23  C2  UNL     1      66.315  13.494  35.608  1.00  0.00     0.034 C 
HETATM   24  C1  UNL     1      65.928  14.096  36.951  1.00  0.00     0.007 C 
ENDBRANCH  20  23
BRANCH  20  25
HETATM   25  N1  UNL     1      66.476  11.242  36.341  1.00  0.00    -0.070 N 
ATOM     26  H13 UNL     1      67.439  11.544  36.489  1.00  0.00     0.275 HD
ATOM     27  H12 UNL     1      66.179  11.305  37.315  1.00  0.00     0.275 HD
ATOM     28  H11 UNL     1      66.395  10.305  35.948  1.00  0.00     0.275 HD
ENDBRANCH  20  25
ENDBRANCH   1  16
TORSDOF 3
ENDMDL
MODEL 4
REMARK VINA RESULT: -8.105256466      2.616      6.208
REMARK  3 active torsions:
REMARK  status: ('A' for Active; 'I' for Inactive)
REMARK    1  A    between atoms: C2_2  and  C3_3 
REMARK    2  A    between atoms: C3_3  and  N1_4 
REMARK    3  A    between atoms: C7_11  and  C9_13 
ROOT
HETATM    1  C9  UNL     1      63.259  10.766  35.066  1.00  0.00    -0.025 C 
HETATM    2  C10 UNL     1      64.752  10.834  34.843  1.00  0.00     0.011 C 
HETATM    3  C11 UNL     1      65.523   9.580  35.067  1.00  0.00     0.001 C 
HETATM    4  C12 UNL     1      65.102   8.896  36.384  1.00  0.00     0.005 C 
HETATM    5  C13 UNL     1      63.669   8.630  36.148  1.00  0.00    -0.005 C 
HETATM    6  C14 UNL     1      62.985   7.709  37.102  1.00  0.00    -0.005 C 
HETATM    7  C15 UNL     1      63.032   6.318  36.553  1.00  0.00     0.006 C 
HETATM    8  C16 UNL     1      61.635   5.898  36.219  1.00  0.00     0.005 C 
HETATM    9  C17 UNL     1      60.721   7.036  36.544  1.00  0.00    -0.014 C 
HETATM   10  C18 UNL     1      59.854   6.598  37.720  1.00  0.00     0.010 C 
HETATM   11  C19 UNL     1      61.551   8.191  36.991  1.00  0.00    -0.002 C 
HETATM   12  C20 UNL     1      61.521   9.366  36.065  1.00  0.00    -0.004 C 
HETATM   13  C21 UNL     1      61.554   9.059  34.626  1.00  0.00     0.006 C 
HETATM   14  C22 UNL     1      62.560   9.992  33.970  1.00  0.00     0.011 C 
HETATM   15  C23 UNL     1      62.918   9.960  36.270  1.00  0.00     0.004 C 
ENDROOT
BRANCH   1  16
HETATM   16  C7  UNL     1      62.826  12.212  35.092  1.00  0.00    -0.016 C 
HETATM   17  C6  UNL     1      62.536  12.682  33.715  1.00  0.00    -0.020 C 
HETATM   18  C5  UNL     1      63.348  13.543  33.060  1.00  0.00    -0.027 C 
HETATM   19  C4  UNL     1      64.577  14.050  33.721  1.00  0.00     0.065 C 
HETATM   20  C3  UNL     1      64.229  14.324  35.145  1.00  0.00     0.127 C 
HETATM   21  C24 UNL     1      63.640  13.143  35.893  1.00  0.00     0.053 C 
HETATM   22  C8  UNL     1      61.445  12.148  35.806  1.00  0.00     0.020 C 
BRANCH  20  23
HETATM   23  C2  UNL     1      63.305  15.522  35.168  1.00  0.00     0.034 C 
HETATM   24  C1  UNL     1      63.321  16.200  36.531  1.00  0.00     0.007 C 
ENDBRANCH  20  23
BRANCH  20  25
HETATM   25  N1  UNL     1      65.426  14.737  35.890  1.00  0.00    -0.070 N 
ATOM     26  H13 UNL     1      66.000  15.421  35.396  1.00  0.00     0.275 HD
ATOM     27  H12 UNL     1      65.222  15.316  36.704  1.00  0.00     0.275 HD
ATOM     28  H11 UNL     1      65.919  13.872  36.114  1.00  0.00     0.275 HD
ENDBRANCH  20  25
ENDBRANCH   1  16
TORSDOF 3
ENDMDL
MODEL 5
REMARK VINA RESULT: -7.790926134      0.980      1.102
REMARK  3 active torsions:
REMARK  status: ('A' for Active; 'I' for Inactive)
REMARK    1  A    between atoms: C2_2  and  C3_3 
REMARK    2  A    between atoms: C3_3  and  N1_4 
REMARK    3  A    between atoms: C7_11  and  C9_13 
ROOT
HETATM    1  C9  UNL     1      63.482  11.756  34.376  1.00  0.00    -0.025 C 
HETATM    2  C10 UNL     1      62.746  12.927  33.768  1.00  0.00     0.011 C 
HETATM    3  C11 UNL     1      63.385  14.266  33.900  1.00  0.00     0.001 C 
HETATM    4  C12 UNL     1      63.886  14.503  35.339  1.00  0.00     0.005 C 
HETATM    5  C13 UNL     1      64.859  13.406  35.510  1.00  0.00    -0.005 C 
HETATM    6  C14 UNL     1      65.768  13.484  36.691  1.00  0.00    -0.005 C 
HETATM    7  C15 UNL     1      67.040  14.156  36.282  1.00  0.00     0.006 C 
HETATM    8  C16 UNL     1      68.148  13.153  36.363  1.00  0.00     0.005 C 
HETATM    9  C17 UNL     1      67.559  11.852  36.808  1.00  0.00    -0.014 C 
HETATM   10  C18 UNL     1      68.100  11.563  38.205  1.00  0.00     0.010 C 
HETATM   11  C19 UNL     1      66.081  12.017  36.913  1.00  0.00    -0.002 C 
HETATM   12  C20 UNL     1      65.299  11.215  35.920  1.00  0.00    -0.004 C 
HETATM   13  C21 UNL     1      65.852  11.152  34.558  1.00  0.00     0.006 C 
HETATM   14  C22 UNL     1      64.713  11.388  33.578  1.00  0.00     0.011 C 
HETATM   15  C23 UNL     1      64.072  12.105  35.699  1.00  0.00     0.004 C 
ENDROOT
BRANCH   1  16
HETATM   16  C7  UNL     1      62.463  10.643  34.379  1.00  0.00    -0.016 C 
HETATM   17  C6  UNL     1      61.261  11.055  35.146  1.00  0.00    -0.020 C 
HETATM   18  C5  UNL     1      60.969  10.539  36.363  1.00  0.00    -0.027 C 
HETATM   19  C4  UNL     1      61.866   9.524  36.971  1.00  0.00     0.065 C 
HETATM   20  C3  UNL     1      62.294   8.605  35.879  1.00  0.00     0.127 C 
HETATM   21  C24 UNL     1      62.949   9.288  34.693  1.00  0.00     0.053 C 
HETATM   22  C8  UNL     1      62.005  10.587  32.894  1.00  0.00     0.020 C 
BRANCH  20  23
HETATM   23  C2  UNL     1      61.086   7.793  35.463  1.00  0.00     0.034 C 
HETATM   24  C1  UNL     1      61.407   6.904  34.270  1.00  0.00     0.007 C 
ENDBRANCH  20  23
BRANCH  20  25
HETATM   25  N1  UNL     1      63.266   7.628  36.388  1.00  0.00    -0.070 N 
ATOM     26  H13 UNL     1      62.844   6.749  36.689  1.00  0.00     0.275 HD
ATOM     27  H12 UNL     1      63.867   7.232  35.665  1.00  0.00     0.275 HD
ATOM     28  H11 UNL     1      63.777   8.112  37.127  1.00  0.00     0.275 HD
ENDBRANCH  20  25
ENDBRANCH   1  16
TORSDOF 3
ENDMDL
