MODEL 1
REMARK VINA RESULT: -8.283899849      0.000      0.000
REMARK  4 active torsions:
REMARK  status: ('A' for Active; 'I' for Inactive)
REMARK    1  A    between atoms: C2_2  and  C4_4 
REMARK    2  A    between atoms: C4_4  and  C5_5 
REMARK    3  A    between atoms: C5_5  and  C7_7 
REMARK    4  A    between atoms: C16_16  and  O1_17 
ROOT
HETATM    1  C7  UNL     1      64.756  10.757  34.515  1.00  0.00    -0.002 C 
HETATM    2  C8  UNL     1      65.309  10.153  35.811  1.00  0.00     0.006 C 
HETATM    3  C9  UNL     1      64.286   9.221  36.347  1.00  0.00     0.006 C 
HETATM    4  C10 UNL     1      63.270   9.150  35.235  1.00  0.00    -0.002 C 
HETATM    5  C11 UNL     1      61.940   8.648  35.634  1.00  0.00    -0.005 C 
HETATM    6  C12 UNL     1      62.225   7.420  36.522  1.00  0.00     0.006 C 
HETATM    7  C13 UNL     1      60.886   6.744  36.705  1.00  0.00     0.005 C 
HETATM    8  C14 UNL     1      60.054   7.661  37.562  1.00  0.00    -0.008 C 
HETATM    9  C15 UNL     1      59.963   7.125  38.998  1.00  0.00     0.036 C 
HETATM   10  C16 UNL     1      59.037   7.976  39.802  1.00  0.00     0.118 C 
HETATM   11  C17 UNL     1      59.349   9.449  39.704  1.00  0.00     0.032 C 
HETATM   12  C18 UNL     1      59.469   9.881  38.246  1.00  0.00     0.008 C 
HETATM   13  C19 UNL     1      60.620   9.045  37.671  1.00  0.00    -0.006 C 
HETATM   14  C20 UNL     1      61.030   9.609  36.300  1.00  0.00    -0.006 C 
HETATM   15  C21 UNL     1      61.486  10.989  36.477  1.00  0.00     0.006 C 
HETATM   16  C22 UNL     1      62.762  11.416  35.864  1.00  0.00     0.010 C 
HETATM   17  C23 UNL     1      63.277  10.587  34.741  1.00  0.00    -0.036 C 
HETATM   18  C24 UNL     1      62.461  10.630  33.495  1.00  0.00     0.016 C 
ENDROOT
BRANCH   1  19
HETATM   19  C5  UNL     1      65.231  12.160  34.425  1.00  0.00    -0.013 C 
HETATM   20  C6  UNL     1      65.283  12.693  33.011  1.00  0.00     0.010 C 
BRANCH  19  21
HETATM   21  C4  UNL     1      66.570  12.293  35.115  1.00  0.00     0.008 C 
BRANCH  21  22
HETATM   22  C2  UNL     1      66.670  13.466  36.033  1.00  0.00    -0.022 C 
HETATM   23  C1  UNL     1      65.322  14.015  36.441  1.00  0.00     0.009 C 
HETATM   24  C3  UNL     1      67.333  12.958  37.309  1.00  0.00     0.009 C 
ENDBRANCH  21  22
ENDBRANCH  19  21
ENDBRANCH   1  19
BRANCH  10  25
HETATM   25  O1  UNL     1      59.182   7.618  41.152  1.00  0.00    -0.396 OA
ATOM     26  H1  UNL     1      58.942   8.368  41.682  1.00  0.00     0.210 HD
ENDBRANCH  10  25
TORSDOF 4
ENDMDL
MODEL 2
REMARK VINA RESULT: -7.783025951      0.784      1.116
REMARK  4 active torsions:
REMARK  status: ('A' for Active; 'I' for Inactive)
REMARK    1  A    between atoms: C2_2  and  C4_4 
REMARK    2  A    between atoms: C4_4  and  C5_5 
REMARK    3  A    between atoms: C5_5  and  C7_7 
REMARK    4  A    between atoms: C16_16  and  O1_17 
ROOT
HETATM    1  C7  UNL     1      64.307  11.432  34.341  1.00  0.00    -0.002 C 
HETATM    2  C8  UNL     1      64.966  10.953  35.639  1.00  0.00     0.006 C 
HETATM    3  C9  UNL     1      64.100   9.898  36.222  1.00  0.00     0.006 C 
HETATM    4  C10 UNL     1      63.085   9.648  35.136  1.00  0.00    -0.002 C 
HETATM    5  C11 UNL     1      61.850   8.970  35.578  1.00  0.00    -0.005 C 
HETATM    6  C12 UNL     1      62.327   7.823  36.490  1.00  0.00     0.006 C 
HETATM    7  C13 UNL     1      61.105   6.965  36.722  1.00  0.00     0.005 C 
HETATM    8  C14 UNL     1      60.164   7.777  37.572  1.00  0.00    -0.008 C 
HETATM    9  C15 UNL     1      60.179   7.276  39.024  1.00  0.00     0.036 C 
HETATM   10  C16 UNL     1      59.153   8.006  39.826  1.00  0.00     0.118 C 
HETATM   11  C17 UNL     1      59.245   9.506  39.682  1.00  0.00     0.032 C 
HETATM   12  C18 UNL     1      59.274   9.907  38.211  1.00  0.00     0.008 C 
HETATM   13  C19 UNL     1      60.524   9.231  37.632  1.00  0.00    -0.006 C 
HETATM   14  C20 UNL     1      60.822   9.808  36.238  1.00  0.00    -0.006 C 
HETATM   15  C21 UNL     1      61.075  11.244  36.368  1.00  0.00     0.006 C 
HETATM   16  C22 UNL     1      62.264  11.834  35.716  1.00  0.00     0.010 C 
HETATM   17  C23 UNL     1      62.873  11.056  34.604  1.00  0.00    -0.036 C 
HETATM   18  C24 UNL     1      62.037  10.943  33.376  1.00  0.00     0.016 C 
ENDROOT
BRANCH   1  19
HETATM   19  C5  UNL     1      64.571  12.886  34.203  1.00  0.00    -0.013 C 
HETATM   20  C6  UNL     1      65.041  13.289  32.823  1.00  0.00     0.010 C 
BRANCH  19  21
HETATM   21  C4  UNL     1      65.545  13.333  35.270  1.00  0.00     0.008 C 
BRANCH  21  22
HETATM   22  C2  UNL     1      64.905  14.026  36.428  1.00  0.00    -0.022 C 
HETATM   23  C1  UNL     1      65.896  14.763  37.299  1.00  0.00     0.009 C 
HETATM   24  C3  UNL     1      63.980  15.085  35.837  1.00  0.00     0.009 C 
ENDBRANCH  21  22
ENDBRANCH  19  21
ENDBRANCH   1  19
BRANCH  10  25
HETATM   25  O1  UNL     1      59.373   7.712  41.181  1.00  0.00    -0.396 OA
ATOM     26  H1  UNL     1      58.545   7.797  41.638  1.00  0.00     0.210 HD
ENDBRANCH  10  25
TORSDOF 4
ENDMDL
MODEL 3
REMARK VINA RESULT: -7.657161959      2.539      7.241
REMARK  4 active torsions:
REMARK  status: ('A' for Active; 'I' for Inactive)
REMARK    1  A    between atoms: C2_2  and  C4_4 
REMARK    2  A    between atoms: C4_4  and  C5_5 
REMARK    3  A    between atoms: C5_5  and  C7_7 
REMARK    4  A    between atoms: C16_16  and  O1_17 
ROOT
HETATM    1  C7  UNL     1      60.749   8.260  36.509  1.00  0.00    -0.002 C 
HETATM    2  C8  UNL     1      60.654   9.445  37.476  1.00  0.00     0.006 C 
HETATM    3  C9  UNL     1      61.479  10.548  36.922  1.00  0.00     0.006 C 
HETATM    4  C10 UNL     1      61.847  10.044  35.549  1.00  0.00    -0.002 C 
HETATM    5  C11 UNL     1      63.003  10.718  34.925  1.00  0.00    -0.005 C 
HETATM    6  C12 UNL     1      62.776  12.221  35.179  1.00  0.00     0.006 C 
HETATM    7  C13 UNL     1      63.795  12.928  34.316  1.00  0.00     0.005 C 
HETATM    8  C14 UNL     1      65.145  12.630  34.913  1.00  0.00    -0.008 C 
HETATM    9  C15 UNL     1      65.680  13.850  35.677  1.00  0.00     0.036 C 
HETATM   10  C16 UNL     1      67.068  13.584  36.157  1.00  0.00     0.118 C 
HETATM   11  C17 UNL     1      67.199  12.276  36.899  1.00  0.00     0.032 C 
HETATM   12  C18 UNL     1      66.598  11.132  36.087  1.00  0.00     0.008 C 
HETATM   13  C19 UNL     1      65.121  11.501  35.899  1.00  0.00    -0.006 C 
HETATM   14  C20 UNL     1      64.351  10.284  35.361  1.00  0.00    -0.006 C 
HETATM   15  C21 UNL     1      64.449   9.197  36.338  1.00  0.00     0.006 C 
HETATM   16  C22 UNL     1      63.225   8.475  36.745  1.00  0.00     0.010 C 
HETATM   17  C23 UNL     1      62.057   8.565  35.827  1.00  0.00    -0.036 C 
HETATM   18  C24 UNL     1      62.230   7.888  34.511  1.00  0.00     0.016 C 
ENDROOT
BRANCH   1  19
HETATM   19  C5  UNL     1      60.723   7.012  37.310  1.00  0.00    -0.013 C 
HETATM   20  C6  UNL     1      61.347   5.827  36.609  1.00  0.00     0.010 C 
BRANCH  19  21
HETATM   21  C4  UNL     1      59.306   6.712  37.746  1.00  0.00     0.008 C 
BRANCH  21  22
HETATM   22  C2  UNL     1      59.123   6.648  39.226  1.00  0.00    -0.022 C 
HETATM   23  C1  UNL     1      59.426   7.958  39.918  1.00  0.00     0.009 C 
HETATM   24  C3  UNL     1      57.642   6.368  39.464  1.00  0.00     0.009 C 
ENDBRANCH  21  22
ENDBRANCH  19  21
ENDBRANCH   1  19
BRANCH  10  25
HETATM   25  O1  UNL     1      67.417  14.601  37.059  1.00  0.00    -0.396 OA
ATOM     26  H1  UNL     1      66.860  14.518  37.824  1.00  0.00     0.210 HD
ENDBRANCH  10  25
TORSDOF 4
ENDMDL
MODEL 4
REMARK VINA RESULT: -7.236402954      0.925      1.380
REMARK  4 active torsions:
REMARK  status: ('A' for Active; 'I' for Inactive)
REMARK    1  A    between atoms: C2_2  and  C4_4 
REMARK    2  A    between atoms: C4_4  and  C5_5 
REMARK    3  A    between atoms: C5_5  and  C7_7 
REMARK    4  A    between atoms: C16_16  and  O1_17 
ROOT
HETATM    1  C7  UNL     1      64.779  10.699  34.427  1.00  0.00    -0.002 C 
HETATM    2  C8  UNL     1      65.328  10.183  35.762  1.00  0.00     0.006 C 
HETATM    3  C9  UNL     1      64.317   9.264  36.341  1.00  0.00     0.006 C 
HETATM    4  C10 UNL     1      63.316   9.108  35.225  1.00  0.00    -0.002 C 
HETATM    5  C11 UNL     1      61.991   8.604  35.639  1.00  0.00    -0.005 C 
HETATM    6  C12 UNL     1      62.289   7.437  36.600  1.00  0.00     0.006 C 
HETATM    7  C13 UNL     1      60.961   6.746  36.809  1.00  0.00     0.005 C 
HETATM    8  C14 UNL     1      60.103   7.695  37.601  1.00  0.00    -0.008 C 
HETATM    9  C15 UNL     1      60.005   7.243  39.066  1.00  0.00     0.036 C 
HETATM   10  C16 UNL     1      59.053   8.121  39.809  1.00  0.00     0.118 C 
HETATM   11  C17 UNL     1      59.338   9.592  39.627  1.00  0.00     0.032 C 
HETATM   12  C18 UNL     1      59.467   9.939  38.147  1.00  0.00     0.008 C 
HETATM   13  C19 UNL     1      60.640   9.094  37.634  1.00  0.00    -0.006 C 
HETATM   14  C20 UNL     1      61.055   9.585  36.237  1.00  0.00    -0.006 C 
HETATM   15  C21 UNL     1      61.482  10.982  36.337  1.00  0.00     0.006 C 
HETATM   16  C22 UNL     1      62.757  11.397  35.714  1.00  0.00     0.010 C 
HETATM   17  C23 UNL     1      63.301  10.514  34.647  1.00  0.00    -0.036 C 
HETATM   18  C24 UNL     1      62.499  10.467  33.392  1.00  0.00     0.016 C 
ENDROOT
BRANCH   1  19
HETATM   19  C5  UNL     1      65.228  12.103  34.260  1.00  0.00    -0.013 C 
HETATM   20  C6  UNL     1      66.729  12.251  34.151  1.00  0.00     0.010 C 
BRANCH  19  21
HETATM   21  C4  UNL     1      64.668  12.957  35.375  1.00  0.00     0.008 C 
BRANCH  21  22
HETATM   22  C2  UNL     1      64.359  14.361  34.972  1.00  0.00    -0.022 C 
HETATM   23  C1  UNL     1      63.719  14.459  33.606  1.00  0.00     0.009 C 
HETATM   24  C3  UNL     1      63.326  14.877  35.969  1.00  0.00     0.009 C 
ENDBRANCH  21  22
ENDBRANCH  19  21
ENDBRANCH   1  19
BRANCH  10  25
HETATM   25  O1  UNL     1      59.189   7.845  41.178  1.00  0.00    -0.396 OA
ATOM     26  H1  UNL     1      58.338   7.585  41.511  1.00  0.00     0.210 HD
ENDBRANCH  10  25
TORSDOF 4
ENDMDL
MODEL 5
REMARK VINA RESULT: -6.701936649      2.799      6.433
REMARK  4 active torsions:
REMARK  status: ('A' for Active; 'I' for Inactive)
REMARK    1  A    between atoms: C2_2  and  C4_4 
REMARK    2  A    between atoms: C4_4  and  C5_5 
REMARK    3  A    between atoms: C5_5  and  C7_7 
REMARK    4  A    between atoms: C16_16  and  O1_17 
ROOT
HETATM    1  C7  UNL     1      61.241   8.205  35.786  1.00  0.00    -0.002 C 
HETATM    2  C8  UNL     1      61.226   8.806  37.196  1.00  0.00     0.006 C 
HETATM    3  C9  UNL     1      61.386  10.276  37.063  1.00  0.00     0.006 C 
HETATM    4  C10 UNL     1      61.270  10.500  35.577  1.00  0.00    -0.002 C 
HETATM    5  C11 UNL     1      61.808  11.787  35.094  1.00  0.00    -0.005 C 
HETATM    6  C12 UNL     1      61.288  12.839  36.094  1.00  0.00     0.006 C 
HETATM    7  C13 UNL     1      61.598  14.176  35.462  1.00  0.00     0.005 C 
HETATM    8  C14 UNL     1      63.096  14.324  35.483  1.00  0.00    -0.008 C 
HETATM    9  C15 UNL     1      63.528  15.304  36.583  1.00  0.00     0.036 C 
HETATM   10  C16 UNL     1      65.001  15.536  36.512  1.00  0.00     0.118 C 
HETATM   11  C17 UNL     1      65.801  14.257  36.466  1.00  0.00     0.032 C 
HETATM   12  C18 UNL     1      65.272  13.327  35.379  1.00  0.00     0.008 C 
HETATM   13  C19 UNL     1      63.815  13.039  35.766  1.00  0.00    -0.006 C 
HETATM   14  C20 UNL     1      63.276  11.878  34.915  1.00  0.00    -0.006 C 
HETATM   15  C21 UNL     1      64.083  10.686  35.181  1.00  0.00     0.006 C 
HETATM   16  C22 UNL     1      63.409   9.403  35.475  1.00  0.00     0.010 C 
HETATM   17  C23 UNL     1      61.992   9.276  35.038  1.00  0.00    -0.036 C 
HETATM   18  C24 UNL     1      61.781   9.251  33.563  1.00  0.00     0.016 C 
ENDROOT
BRANCH   1  19
HETATM   19  C5  UNL     1      61.914   6.885  35.858  1.00  0.00    -0.013 C 
HETATM   20  C6  UNL     1      60.997   5.720  35.560  1.00  0.00     0.010 C 
BRANCH  19  21
HETATM   21  C4  UNL     1      62.590   6.727  37.201  1.00  0.00     0.008 C 
BRANCH  21  22
HETATM   22  C2  UNL     1      64.046   6.408  37.118  1.00  0.00    -0.022 C 
HETATM   23  C1  UNL     1      64.576   6.424  35.703  1.00  0.00     0.009 C 
HETATM   24  C3  UNL     1      64.773   7.524  37.863  1.00  0.00     0.009 C 
ENDBRANCH  21  22
ENDBRANCH  19  21
ENDBRANCH   1  19
BRANCH  10  25
HETATM   25  O1  UNL     1      65.389  16.218  37.676  1.00  0.00    -0.396 OA
ATOM     26  H1  UNL     1      66.116  16.788  37.453  1.00  0.00     0.210 HD
ENDBRANCH  10  25
TORSDOF 4
ENDMDL
