MODEL 1
REMARK VINA RESULT: -6.848296666      0.000      0.000
REMARK  5 active torsions:
REMARK  status: ('A' for Active; 'I' for Inactive)
REMARK    1  A    between atoms: C2_2  and  C4_4 
REMARK    2  A    between atoms: C4_4  and  C5_5 
REMARK    3  A    between atoms: C5_5  and  C6_6 
REMARK    4  A    between atoms: C11_14  and  O1_15 
REMARK    5  A    between atoms: N3_19  and  C13_20 
ROOT
HETATM    1  C6  UNL     1      -4.037 -19.740   6.359  1.00  0.00     0.034 A 
HETATM    2  N1  UNL     1      -3.722 -19.656   7.659  1.00  0.00    -0.302 N 
ATOM      3  H1  UNL     1      -4.227 -20.131   8.406  1.00  0.00     0.186 HD
HETATM    4  N2  UNL     1      -2.667 -18.874   7.845  1.00  0.00    -0.289 N 
HETATM    5  C7  UNL     1      -2.313 -18.461   6.657  1.00  0.00     0.099 A 
HETATM    6  C8  UNL     1      -3.124 -18.966   5.681  1.00  0.00    -0.004 A 
HETATM    7  C9  UNL     1      -2.797 -18.606   4.273  1.00  0.00     0.045 C 
HETATM    8  C10 UNL     1      -1.312 -18.848   4.154  1.00  0.00     0.042 C 
HETATM    9  C11 UNL     1      -0.449 -18.196   5.218  1.00  0.00     0.185 C 
HETATM   10  C12 UNL     1      -1.221 -17.519   6.281  1.00  0.00     0.245 C 
HETATM   11  F1  UNL     1      -1.924 -16.426   5.656  1.00  0.00    -0.209 F 
HETATM   12  N3  UNL     1      -0.585 -17.014   7.428  1.00  0.00    -0.365 N 
HETATM   13  C19 UNL     1      -1.291 -17.097   8.666  1.00  0.00     0.142 C 
HETATM   14  C20 UNL     1      -1.866 -18.444   9.005  1.00  0.00     0.168 C 
ENDROOT
BRANCH  12  15
HETATM   15  C13 UNL     1       0.192 -15.845   7.377  1.00  0.00     0.083 C 
HETATM   16  C14 UNL     1       1.389 -15.816   8.261  1.00  0.00     0.025 C 
HETATM   17  C15 UNL     1       2.150 -14.486   8.226  1.00  0.00     0.002 C 
HETATM   18  C16 UNL     1       1.273 -13.287   8.293  1.00  0.00     0.000 C 
HETATM   19  C17 UNL     1       0.324 -13.406   7.093  1.00  0.00     0.002 C 
HETATM   20  C18 UNL     1      -0.604 -14.560   7.485  1.00  0.00     0.025 C 
ENDBRANCH  12  15
BRANCH   9  21
HETATM   21  O1  UNL     1       0.438 -17.382   4.503  1.00  0.00    -0.390 OA
ATOM     22  H1  UNL     1       0.631 -16.663   5.092  1.00  0.00     0.210 HD
ENDBRANCH   9  21
BRANCH   1  23
HETATM   23  C5  UNL     1      -5.133 -20.469   5.654  1.00  0.00     0.059 C 
BRANCH  23  24
HETATM   24  C4  UNL     1      -4.425 -21.624   4.946  1.00  0.00     0.010 C 
BRANCH  24  25
HETATM   25  C2  UNL     1      -4.812 -21.765   3.509  1.00  0.00    -0.023 C 
HETATM   26  C1  UNL     1      -3.625 -21.483   2.608  1.00  0.00     0.009 C 
HETATM   27  C3  UNL     1      -5.897 -20.721   3.228  1.00  0.00     0.009 C 
ENDBRANCH  24  25
ENDBRANCH  23  24
ENDBRANCH   1  23
TORSDOF 5
ENDMDL
MODEL 2
REMARK VINA RESULT: -6.520570776      7.246      8.885
REMARK  5 active torsions:
REMARK  status: ('A' for Active; 'I' for Inactive)
REMARK    1  A    between atoms: C2_2  and  C4_4 
REMARK    2  A    between atoms: C4_4  and  C5_5 
REMARK    3  A    between atoms: C5_5  and  C6_6 
REMARK    4  A    between atoms: C11_14  and  O1_15 
REMARK    5  A    between atoms: N3_19  and  C13_20 
ROOT
HETATM    1  C6  UNL     1      -0.037 -10.182   8.478  1.00  0.00     0.034 A 
HETATM    2  N1  UNL     1       0.933  -9.269   8.628  1.00  0.00    -0.302 N 
ATOM      3  H1  UNL     1       0.770  -8.275   8.787  1.00  0.00     0.186 HD
HETATM    4  N2  UNL     1       2.133  -9.828   8.543  1.00  0.00    -0.289 N 
HETATM    5  C7  UNL     1       1.921 -11.101   8.338  1.00  0.00     0.099 A 
HETATM    6  C8  UNL     1       0.588 -11.392   8.288  1.00  0.00    -0.004 A 
HETATM    7  C9  UNL     1       0.212 -12.823   8.105  1.00  0.00     0.045 C 
HETATM    8  C10 UNL     1       1.063 -13.570   9.102  1.00  0.00     0.042 C 
HETATM    9  C11 UNL     1       2.549 -13.269   9.058  1.00  0.00     0.185 C 
HETATM   10  C12 UNL     1       2.914 -12.190   8.116  1.00  0.00     0.245 C 
HETATM   11  F1  UNL     1       2.595 -12.666   6.792  1.00  0.00    -0.209 F 
HETATM   12  N3  UNL     1       4.219 -11.672   8.078  1.00  0.00    -0.365 N 
HETATM   13  C19 UNL     1       4.368 -10.276   7.818  1.00  0.00     0.142 C 
HETATM   14  C20 UNL     1       3.525  -9.359   8.657  1.00  0.00     0.168 C 
ENDROOT
BRANCH  12  15
HETATM   15  C13 UNL     1       5.277 -12.399   7.508  1.00  0.00     0.083 C 
HETATM   16  C14 UNL     1       6.131 -13.164   8.457  1.00  0.00     0.025 C 
HETATM   17  C15 UNL     1       7.318 -13.868   7.790  1.00  0.00     0.002 C 
HETATM   18  C16 UNL     1       8.046 -13.023   6.807  1.00  0.00     0.000 C 
HETATM   19  C17 UNL     1       6.999 -12.610   5.765  1.00  0.00     0.002 C 
HETATM   20  C18 UNL     1       6.117 -11.613   6.521  1.00  0.00     0.025 C 
ENDBRANCH  12  15
BRANCH   9  21
HETATM   21  O1  UNL     1       3.153 -14.510   8.820  1.00  0.00    -0.390 OA
ATOM     22  H1  UNL     1       3.358 -14.846   9.685  1.00  0.00     0.210 HD
ENDBRANCH   9  21
BRANCH   1  23
HETATM   23  C5  UNL     1      -1.524 -10.050   8.475  1.00  0.00     0.059 C 
BRANCH  23  24
HETATM   24  C4  UNL     1      -1.931 -10.329   9.921  1.00  0.00     0.010 C 
BRANCH  24  25
HETATM   25  C2  UNL     1      -2.918 -11.443  10.055  1.00  0.00    -0.023 C 
HETATM   26  C1  UNL     1      -2.326 -12.585  10.860  1.00  0.00     0.009 C 
HETATM   27  C3  UNL     1      -3.223 -11.950   8.642  1.00  0.00     0.009 C 
ENDBRANCH  24  25
ENDBRANCH  23  24
ENDBRANCH   1  23
TORSDOF 5
ENDMDL
MODEL 3
REMARK VINA RESULT: -6.490063715      2.960      7.164
REMARK  5 active torsions:
REMARK  status: ('A' for Active; 'I' for Inactive)
REMARK    1  A    between atoms: C2_2  and  C4_4 
REMARK    2  A    between atoms: C4_4  and  C5_5 
REMARK    3  A    between atoms: C5_5  and  C6_6 
REMARK    4  A    between atoms: C11_14  and  O1_15 
REMARK    5  A    between atoms: N3_19  and  C13_20 
ROOT
HETATM    1  C6  UNL     1      -1.518 -17.680   9.647  1.00  0.00     0.034 A 
HETATM    2  N1  UNL     1      -1.056 -17.308   8.445  1.00  0.00    -0.302 N 
ATOM      3  H1  UNL     1      -0.389 -16.552   8.292  1.00  0.00     0.186 HD
HETATM    4  N2  UNL     1      -1.579 -18.054   7.481  1.00  0.00    -0.289 N 
HETATM    5  C7  UNL     1      -2.377 -18.901   8.076  1.00  0.00     0.099 A 
HETATM    6  C8  UNL     1      -2.385 -18.725   9.431  1.00  0.00    -0.004 A 
HETATM    7  C9  UNL     1      -3.223 -19.662  10.232  1.00  0.00     0.045 C 
HETATM    8  C10 UNL     1      -2.878 -21.031   9.698  1.00  0.00     0.042 C 
HETATM    9  C11 UNL     1      -2.964 -21.194   8.193  1.00  0.00     0.185 C 
HETATM   10  C12 UNL     1      -3.260 -19.938   7.471  1.00  0.00     0.245 C 
HETATM   11  F1  UNL     1      -4.582 -19.526   7.874  1.00  0.00    -0.209 F 
HETATM   12  N3  UNL     1      -3.205 -19.878   6.068  1.00  0.00    -0.365 N 
HETATM   13  C19 UNL     1      -2.730 -18.670   5.476  1.00  0.00     0.142 C 
HETATM   14  C20 UNL     1      -1.433 -18.139   6.017  1.00  0.00     0.168 C 
ENDROOT
BRANCH  12  15
HETATM   15  C13 UNL     1      -4.206 -20.461   5.273  1.00  0.00     0.083 C 
HETATM   16  C14 UNL     1      -3.736 -21.363   4.186  1.00  0.00     0.025 C 
HETATM   17  C15 UNL     1      -4.865 -21.902   3.300  1.00  0.00     0.002 C 
HETATM   18  C16 UNL     1      -5.859 -20.872   2.897  1.00  0.00     0.000 C 
HETATM   19  C17 UNL     1      -6.417 -20.305   4.208  1.00  0.00     0.002 C 
HETATM   20  C18 UNL     1      -5.250 -19.486   4.768  1.00  0.00     0.025 C 
ENDBRANCH  12  15
BRANCH   9  21
HETATM   21  O1  UNL     1      -3.885 -22.232   8.003  1.00  0.00    -0.390 OA
ATOM     22  H1  UNL     1      -4.406 -21.956   7.257  1.00  0.00     0.210 HD
ENDBRANCH   9  21
BRANCH   1  23
HETATM   23  C5  UNL     1      -1.250 -17.146  11.016  1.00  0.00     0.059 C 
BRANCH  23  24
HETATM   24  C4  UNL     1      -2.285 -16.036  11.198  1.00  0.00     0.010 C 
BRANCH  24  25
HETATM   25  C2  UNL     1      -3.188 -16.254  12.368  1.00  0.00    -0.023 C 
HETATM   26  C1  UNL     1      -2.717 -17.439  13.190  1.00  0.00     0.009 C 
HETATM   27  C3  UNL     1      -4.580 -16.570  11.813  1.00  0.00     0.009 C 
ENDBRANCH  24  25
ENDBRANCH  23  24
ENDBRANCH   1  23
TORSDOF 5
ENDMDL
MODEL 4
REMARK VINA RESULT: -6.472229004      2.322      7.198
REMARK  5 active torsions:
REMARK  status: ('A' for Active; 'I' for Inactive)
REMARK    1  A    between atoms: C2_2  and  C4_4 
REMARK    2  A    between atoms: C4_4  and  C5_5 
REMARK    3  A    between atoms: C5_5  and  C6_6 
REMARK    4  A    between atoms: C11_14  and  O1_15 
REMARK    5  A    between atoms: N3_19  and  C13_20 
ROOT
HETATM    1  C6  UNL     1      -1.112 -16.904   9.272  1.00  0.00     0.034 A 
HETATM    2  N1  UNL     1      -0.669 -16.760   8.015  1.00  0.00    -0.302 N 
ATOM      3  H1  UNL     1       0.014 -16.064   7.721  1.00  0.00     0.186 HD
HETATM    4  N2  UNL     1      -1.237 -17.644   7.205  1.00  0.00    -0.289 N 
HETATM    5  C7  UNL     1      -2.043 -18.349   7.953  1.00  0.00     0.099 A 
HETATM    6  C8  UNL     1      -2.013 -17.943   9.256  1.00  0.00    -0.004 A 
HETATM    7  C9  UNL     1      -2.856 -18.701  10.224  1.00  0.00     0.045 C 
HETATM    8  C10 UNL     1      -2.563 -20.151   9.928  1.00  0.00     0.042 C 
HETATM    9  C11 UNL     1      -2.692 -20.568   8.475  1.00  0.00     0.185 C 
HETATM   10  C12 UNL     1      -2.970 -19.446   7.553  1.00  0.00     0.245 C 
HETATM   11  F1  UNL     1      -4.269 -18.929   7.905  1.00  0.00    -0.209 F 
HETATM   12  N3  UNL     1      -2.949 -19.630   6.161  1.00  0.00    -0.365 N 
HETATM   13  C19 UNL     1      -2.455 -18.557   5.360  1.00  0.00     0.142 C 
HETATM   14  C20 UNL     1      -1.130 -17.984   5.775  1.00  0.00     0.168 C 
ENDROOT
BRANCH  12  15
HETATM   15  C13 UNL     1      -3.985 -20.309   5.498  1.00  0.00     0.083 C 
HETATM   16  C14 UNL     1      -3.576 -21.465   4.655  1.00  0.00     0.025 C 
HETATM   17  C15 UNL     1      -4.737 -22.113   3.891  1.00  0.00     0.002 C 
HETATM   18  C16 UNL     1      -5.652 -21.137   3.243  1.00  0.00     0.000 C 
HETATM   19  C17 UNL     1      -6.174 -20.248   4.379  1.00  0.00     0.002 C 
HETATM   20  C18 UNL     1      -4.954 -19.405   4.762  1.00  0.00     0.025 C 
ENDBRANCH  12  15
BRANCH   9  21
HETATM   21  O1  UNL     1      -3.646 -21.593   8.485  1.00  0.00    -0.390 OA
ATOM     22  H1  UNL     1      -3.177 -22.359   8.176  1.00  0.00     0.210 HD
ENDBRANCH   9  21
BRANCH   1  23
HETATM   23  C5  UNL     1      -0.794 -16.152  10.522  1.00  0.00     0.059 C 
BRANCH  23  24
HETATM   24  C4  UNL     1      -0.233 -14.819  10.029  1.00  0.00     0.010 C 
BRANCH  24  25
HETATM   25  C2  UNL     1      -1.172 -13.672  10.220  1.00  0.00    -0.023 C 
HETATM   26  C1  UNL     1      -2.404 -14.117  10.987  1.00  0.00     0.009 C 
HETATM   27  C3  UNL     1      -1.607 -13.206   8.828  1.00  0.00     0.009 C 
ENDBRANCH  24  25
ENDBRANCH  23  24
ENDBRANCH   1  23
TORSDOF 5
ENDMDL
MODEL 5
REMARK VINA RESULT: -6.432380871      6.244      9.161
REMARK  5 active torsions:
REMARK  status: ('A' for Active; 'I' for Inactive)
REMARK    1  A    between atoms: C2_2  and  C4_4 
REMARK    2  A    between atoms: C4_4  and  C5_5 
REMARK    3  A    between atoms: C5_5  and  C6_6 
REMARK    4  A    between atoms: C11_14  and  O1_15 
REMARK    5  A    between atoms: N3_19  and  C13_20 
ROOT
HETATM    1  C6  UNL     1       4.756 -13.458   8.120  1.00  0.00     0.034 A 
HETATM    2  N1  UNL     1       4.409 -12.247   7.660  1.00  0.00    -0.302 N 
ATOM      3  H1  UNL     1       5.058 -11.581   7.242  1.00  0.00     0.186 HD
HETATM    4  N2  UNL     1       3.110 -12.030   7.821  1.00  0.00    -0.289 N 
HETATM    5  C7  UNL     1       2.634 -13.108   8.385  1.00  0.00     0.099 A 
HETATM    6  C8  UNL     1       3.607 -14.042   8.598  1.00  0.00    -0.004 A 
HETATM    7  C9  UNL     1       3.183 -15.340   9.196  1.00  0.00     0.045 C 
HETATM    8  C10 UNL     1       1.972 -15.749   8.393  1.00  0.00     0.042 C 
HETATM    9  C11 UNL     1       0.884 -14.701   8.257  1.00  0.00     0.185 C 
HETATM   10  C12 UNL     1       1.242 -13.389   8.837  1.00  0.00     0.245 C 
HETATM   11  F1  UNL     1       1.387 -13.587  10.259  1.00  0.00    -0.209 F 
HETATM   12  N3  UNL     1       0.422 -12.264   8.647  1.00  0.00    -0.365 N 
HETATM   13  C19 UNL     1       1.061 -10.997   8.498  1.00  0.00     0.142 C 
HETATM   14  C20 UNL     1       2.176 -10.939   7.492  1.00  0.00     0.168 C 
ENDROOT
BRANCH  12  15
HETATM   15  C13 UNL     1      -0.800 -12.128   9.327  1.00  0.00     0.083 C 
HETATM   16  C14 UNL     1      -2.020 -12.071   8.477  1.00  0.00     0.025 C 
HETATM   17  C15 UNL     1      -3.312 -11.837   9.268  1.00  0.00     0.002 C 
HETATM   18  C16 UNL     1      -3.202 -10.777  10.305  1.00  0.00     0.000 C 
HETATM   19  C17 UNL     1      -2.067 -11.229  11.234  1.00  0.00     0.002 C 
HETATM   20  C18 UNL     1      -0.810 -11.038  10.381  1.00  0.00     0.025 C 
ENDBRANCH  12  15
BRANCH   9  21
HETATM   21  O1  UNL     1      -0.260 -15.307   8.792  1.00  0.00    -0.390 OA
ATOM     22  H1  UNL     1      -0.054 -15.438   9.710  1.00  0.00     0.210 HD
ENDBRANCH   9  21
BRANCH   1  23
HETATM   23  C5  UNL     1       6.079 -14.148   8.181  1.00  0.00     0.059 C 
BRANCH  23  24
HETATM   24  C4  UNL     1       7.057 -13.144   7.571  1.00  0.00     0.010 C 
BRANCH  24  25
HETATM   25  C2  UNL     1       7.977 -13.751   6.561  1.00  0.00    -0.023 C 
HETATM   26  C1  UNL     1       9.401 -13.282   6.790  1.00  0.00     0.009 C 
HETATM   27  C3  UNL     1       7.519 -13.266   5.183  1.00  0.00     0.009 C 
ENDBRANCH  24  25
ENDBRANCH  23  24
ENDBRANCH   1  23
TORSDOF 5
ENDMDL
