MODEL 1
REMARK VINA RESULT: -6.551991217      0.000      0.000
REMARK  4 active torsions:
REMARK  status: ('A' for Active; 'I' for Inactive)
REMARK    1  A    between atoms: N3_18  and  C14_19 
REMARK    2  A    between atoms: C14_19  and  C15_20 
REMARK    3  A    between atoms: C15_20  and  C16_21 
REMARK    4  A    between atoms: C16_21  and  N4_22 
ROOT
HETATM    1  C1  UNL     1      -0.294 -15.857   7.390  1.00  0.00     0.049 C 
HETATM    2  C2  UNL     1      -1.104 -17.038   7.731  1.00  0.00    -0.038 A 
HETATM    3  C3  UNL     1      -1.600 -17.838   6.713  1.00  0.00     0.033 A 
HETATM    4  C4  UNL     1      -2.337 -18.963   6.993  1.00  0.00     0.114 A 
HETATM    5  N1  UNL     1      -2.607 -19.329   8.253  1.00  0.00    -0.345 N 
ATOM      6  H1  UNL     1      -3.156 -20.167   8.446  1.00  0.00     0.167 HD
HETATM    7  C5  UNL     1      -2.136 -18.565   9.264  1.00  0.00     0.022 A 
HETATM    8  C6  UNL     1      -1.399 -17.439   9.046  1.00  0.00    -0.002 A 
HETATM    9  C7  UNL     1      -0.905 -16.614  10.143  1.00  0.00     0.049 C 
HETATM   10  C8  UNL     1       0.611 -16.809  10.354  1.00  0.00     0.043 C 
HETATM   11  C9  UNL     1      -1.205 -15.111   9.937  1.00  0.00     0.043 C 
HETATM   12  N2  UNL     1      -1.505 -16.910  11.389  1.00  0.00    -0.401 N 
ATOM     13  H2  UNL     1      -1.138 -16.471  12.233  1.00  0.00     0.155 HD
HETATM   14  C10 UNL     1      -2.580 -17.785  11.493  1.00  0.00     0.024 C 
HETATM   15  C11 UNL     1      -2.758 -18.244  12.934  1.00  0.00     0.038 C 
HETATM   16  C12 UNL     1      -3.865 -17.083  11.098  1.00  0.00     0.038 C 
HETATM   17  C13 UNL     1      -2.458 -19.026  10.655  1.00  0.00     0.087 C 
HETATM   18  N3  UNL     1      -2.703 -19.596   5.779  1.00  0.00    -0.363 N 
HETATM   19  C19 UNL     1      -2.555 -18.635   4.718  1.00  0.00     0.172 C 
HETATM   20  C20 UNL     1      -1.490 -17.694   5.240  1.00  0.00     0.147 C 
HETATM   21  C21 UNL     1      -0.166 -18.136   4.695  1.00  0.00     0.059 C 
HETATM   22  F1  UNL     1      -1.803 -16.392   4.831  1.00  0.00    -0.236 F 
ENDROOT
BRANCH  18  23
HETATM   23  C14 UNL     1      -3.157 -20.987   5.610  1.00  0.00     0.126 C 
BRANCH  23  24
HETATM   24  C15 UNL     1      -3.517 -21.231   4.151  1.00  0.00     0.050 C 
BRANCH  24  25
HETATM   25  C16 UNL     1      -4.832 -21.957   4.024  1.00  0.00     0.273 C 
BRANCH  25  26
HETATM   26  N4  UNL     1      -5.866 -21.052   4.498  1.00  0.00     0.080 N 
HETATM   27  C17 UNL     1      -6.861 -21.799   5.219  1.00  0.00     0.309 C 
HETATM   28  C18 UNL     1      -6.516 -20.434   3.347  1.00  0.00     0.309 C 
ENDBRANCH  25  26
ENDBRANCH  24  25
ENDBRANCH  23  24
ENDBRANCH  18  23
TORSDOF 4
ENDMDL
MODEL 2
REMARK VINA RESULT: -6.437641580      2.171      4.031
REMARK  4 active torsions:
REMARK  status: ('A' for Active; 'I' for Inactive)
REMARK    1  A    between atoms: N3_18  and  C14_19 
REMARK    2  A    between atoms: C14_19  and  C15_20 
REMARK    3  A    between atoms: C15_20  and  C16_21 
REMARK    4  A    between atoms: C16_21  and  N4_22 
ROOT
HETATM    1  C1  UNL     1      -1.919 -17.611  11.449  1.00  0.00     0.049 C 
HETATM    2  C2  UNL     1      -1.642 -17.477  10.010  1.00  0.00    -0.038 A 
HETATM    3  C3  UNL     1      -2.159 -18.413   9.129  1.00  0.00     0.033 A 
HETATM    4  C4  UNL     1      -1.944 -18.306   7.776  1.00  0.00     0.114 A 
HETATM    5  N1  UNL     1      -1.227 -17.300   7.257  1.00  0.00    -0.345 N 
ATOM      6  H1  UNL     1      -1.075 -17.234   6.251  1.00  0.00     0.167 HD
HETATM    7  C5  UNL     1      -0.710 -16.375   8.096  1.00  0.00     0.022 A 
HETATM    8  C6  UNL     1      -0.892 -16.429   9.446  1.00  0.00    -0.002 A 
HETATM    9  C7  UNL     1      -0.320 -15.432  10.344  1.00  0.00     0.049 C 
HETATM   10  C8  UNL     1      -1.401 -14.463  10.868  1.00  0.00     0.043 C 
HETATM   11  C9  UNL     1       0.423 -16.069  11.541  1.00  0.00     0.043 C 
HETATM   12  N2  UNL     1       0.659 -14.616   9.734  1.00  0.00    -0.401 N 
ATOM     13  H2  UNL     1       1.027 -13.814  10.246  1.00  0.00     0.155 HD
HETATM   14  C10 UNL     1       1.135 -14.877   8.453  1.00  0.00     0.024 C 
HETATM   15  C11 UNL     1       1.841 -13.653   7.886  1.00  0.00     0.038 C 
HETATM   16  C12 UNL     1       2.161 -15.993   8.494  1.00  0.00     0.038 C 
HETATM   17  C13 UNL     1       0.074 -15.264   7.461  1.00  0.00     0.087 C 
HETATM   18  N3  UNL     1      -2.591 -19.379   7.114  1.00  0.00    -0.363 N 
HETATM   19  C19 UNL     1      -2.861 -20.402   8.090  1.00  0.00     0.172 C 
HETATM   20  C20 UNL     1      -2.966 -19.632   9.389  1.00  0.00     0.147 C 
HETATM   21  C21 UNL     1      -4.413 -19.344   9.647  1.00  0.00     0.059 C 
HETATM   22  F1  UNL     1      -2.407 -20.403  10.413  1.00  0.00    -0.236 F 
ENDROOT
BRANCH  18  23
HETATM   23  C14 UNL     1      -2.935 -19.455   5.683  1.00  0.00     0.126 C 
BRANCH  23  24
HETATM   24  C15 UNL     1      -4.447 -19.380   5.519  1.00  0.00     0.050 C 
BRANCH  24  25
HETATM   25  C16 UNL     1      -4.905 -20.139   4.299  1.00  0.00     0.273 C 
BRANCH  25  26
HETATM   26  N4  UNL     1      -4.363 -21.483   4.405  1.00  0.00     0.080 N 
HETATM   27  C17 UNL     1      -4.177 -22.029   3.087  1.00  0.00     0.309 C 
HETATM   28  C18 UNL     1      -5.324 -22.326   5.108  1.00  0.00     0.309 C 
ENDBRANCH  25  26
ENDBRANCH  24  25
ENDBRANCH  23  24
ENDBRANCH  18  23
TORSDOF 4
ENDMDL
MODEL 3
REMARK VINA RESULT: -6.343487048      2.580      4.625
REMARK  4 active torsions:
REMARK  status: ('A' for Active; 'I' for Inactive)
REMARK    1  A    between atoms: N3_18  and  C14_19 
REMARK    2  A    between atoms: C14_19  and  C15_20 
REMARK    3  A    between atoms: C15_20  and  C16_21 
REMARK    4  A    between atoms: C16_21  and  N4_22 
ROOT
HETATM    1  C1  UNL     1      -1.674 -17.834  11.637  1.00  0.00     0.049 C 
HETATM    2  C2  UNL     1      -1.502 -17.611  10.192  1.00  0.00    -0.038 A 
HETATM    3  C3  UNL     1      -2.138 -18.456   9.295  1.00  0.00     0.033 A 
HETATM    4  C4  UNL     1      -2.023 -18.263   7.939  1.00  0.00     0.114 A 
HETATM    5  N1  UNL     1      -1.294 -17.260   7.433  1.00  0.00    -0.345 N 
ATOM      6  H1  UNL     1      -1.217 -17.130   6.424  1.00  0.00     0.167 HD
HETATM    7  C5  UNL     1      -0.662 -16.424   8.286  1.00  0.00     0.022 A 
HETATM    8  C6  UNL     1      -0.742 -16.566   9.640  1.00  0.00    -0.002 A 
HETATM    9  C7  UNL     1      -0.047 -15.665  10.553  1.00  0.00     0.049 C 
HETATM   10  C8  UNL     1      -1.028 -14.683  11.228  1.00  0.00     0.043 C 
HETATM   11  C9  UNL     1       0.751 -16.422  11.641  1.00  0.00     0.043 C 
HETATM   12  N2  UNL     1       0.927 -14.857   9.921  1.00  0.00    -0.401 N 
ATOM     13  H2  UNL     1       1.377 -14.113  10.455  1.00  0.00     0.155 HD
HETATM   14  C10 UNL     1       1.286 -15.050   8.592  1.00  0.00     0.024 C 
HETATM   15  C11 UNL     1       2.012 -13.826   8.052  1.00  0.00     0.038 C 
HETATM   16  C12 UNL     1       2.248 -16.216   8.474  1.00  0.00     0.038 C 
HETATM   17  C13 UNL     1       0.131 -15.312   7.666  1.00  0.00     0.087 C 
HETATM   18  N3  UNL     1      -2.778 -19.253   7.261  1.00  0.00    -0.363 N 
HETATM   19  C19 UNL     1      -3.029 -20.328   8.186  1.00  0.00     0.172 C 
HETATM   20  C20 UNL     1      -2.989 -19.647   9.537  1.00  0.00     0.147 C 
HETATM   21  C21 UNL     1      -4.394 -19.307   9.931  1.00  0.00     0.059 C 
HETATM   22  F1  UNL     1      -2.396 -20.517  10.459  1.00  0.00    -0.236 F 
ENDROOT
BRANCH  18  23
HETATM   23  C14 UNL     1      -3.236 -19.209   5.862  1.00  0.00     0.126 C 
BRANCH  23  24
HETATM   24  C15 UNL     1      -2.055 -19.450   4.932  1.00  0.00     0.050 C 
BRANCH  24  25
HETATM   25  C16 UNL     1      -1.772 -18.240   4.079  1.00  0.00     0.273 C 
BRANCH  25  26
HETATM   26  N4  UNL     1      -0.894 -18.671   3.005  1.00  0.00     0.080 N 
HETATM   27  C17 UNL     1      -0.972 -20.101   2.868  1.00  0.00     0.309 C 
HETATM   28  C18 UNL     1       0.481 -18.329   3.353  1.00  0.00     0.309 C 
ENDBRANCH  25  26
ENDBRANCH  24  25
ENDBRANCH  23  24
ENDBRANCH  18  23
TORSDOF 4
ENDMDL
MODEL 4
REMARK VINA RESULT: -6.221934158      2.120      3.325
REMARK  4 active torsions:
REMARK  status: ('A' for Active; 'I' for Inactive)
REMARK    1  A    between atoms: N3_18  and  C14_19 
REMARK    2  A    between atoms: C14_19  and  C15_20 
REMARK    3  A    between atoms: C15_20  and  C16_21 
REMARK    4  A    between atoms: C16_21  and  N4_22 
ROOT
HETATM    1  C1  UNL     1      -0.858 -14.199  10.601  1.00  0.00     0.049 C 
HETATM    2  C2  UNL     1      -1.063 -15.478   9.901  1.00  0.00    -0.038 A 
HETATM    3  C3  UNL     1      -0.818 -15.552   8.539  1.00  0.00     0.033 A 
HETATM    4  C4  UNL     1      -0.972 -16.735   7.856  1.00  0.00     0.114 A 
HETATM    5  N1  UNL     1      -1.366 -17.856   8.475  1.00  0.00    -0.345 N 
ATOM      6  H1  UNL     1      -1.477 -18.726   7.955  1.00  0.00     0.167 HD
HETATM    7  C5  UNL     1      -1.613 -17.808   9.803  1.00  0.00     0.022 A 
HETATM    8  C6  UNL     1      -1.476 -16.664  10.532  1.00  0.00    -0.002 A 
HETATM    9  C7  UNL     1      -1.756 -16.621  11.963  1.00  0.00     0.049 C 
HETATM   10  C8  UNL     1      -0.454 -16.559  12.788  1.00  0.00     0.043 C 
HETATM   11  C9  UNL     1      -2.669 -15.435  12.353  1.00  0.00     0.043 C 
HETATM   12  N2  UNL     1      -2.454 -17.755  12.438  1.00  0.00    -0.401 N 
ATOM     13  H2  UNL     1      -2.588 -17.871  13.443  1.00  0.00     0.155 HD
HETATM   14  C10 UNL     1      -2.963 -18.716  11.572  1.00  0.00     0.024 C 
HETATM   15  C11 UNL     1      -3.284 -19.999  12.327  1.00  0.00     0.038 C 
HETATM   16  C12 UNL     1      -4.264 -18.233  10.961  1.00  0.00     0.038 C 
HETATM   17  C13 UNL     1      -2.040 -19.095  10.448  1.00  0.00     0.087 C 
HETATM   18  N3  UNL     1      -0.646 -16.532   6.492  1.00  0.00    -0.363 N 
HETATM   19  C19 UNL     1      -0.692 -15.117   6.231  1.00  0.00     0.172 C 
HETATM   20  C20 UNL     1      -0.394 -14.500   7.581  1.00  0.00     0.147 C 
HETATM   21  C21 UNL     1       1.071 -14.194   7.643  1.00  0.00     0.059 C 
HETATM   22  F1  UNL     1      -1.166 -13.341   7.724  1.00  0.00    -0.236 F 
ENDROOT
BRANCH  18  23
HETATM   23  C14 UNL     1      -0.314 -17.570   5.500  1.00  0.00     0.126 C 
BRANCH  23  24
HETATM   24  C15 UNL     1      -1.580 -18.002   4.773  1.00  0.00     0.050 C 
BRANCH  24  25
HETATM   25  C16 UNL     1      -1.257 -18.720   3.488  1.00  0.00     0.273 C 
BRANCH  25  26
HETATM   26  N4  UNL     1      -1.856 -20.041   3.575  1.00  0.00     0.080 N 
HETATM   27  C17 UNL     1      -2.211 -20.493   2.257  1.00  0.00     0.309 C 
HETATM   28  C18 UNL     1      -3.080 -19.955   4.364  1.00  0.00     0.309 C 
ENDBRANCH  25  26
ENDBRANCH  24  25
ENDBRANCH  23  24
ENDBRANCH  18  23
TORSDOF 4
ENDMDL
MODEL 5
REMARK VINA RESULT: -6.179909733      7.475     11.104
REMARK  4 active torsions:
REMARK  status: ('A' for Active; 'I' for Inactive)
REMARK    1  A    between atoms: N3_18  and  C14_19 
REMARK    2  A    between atoms: C14_19  and  C15_20 
REMARK    3  A    between atoms: C15_20  and  C16_21 
REMARK    4  A    between atoms: C16_21  and  N4_22 
ROOT
HETATM    1  C1  UNL     1       4.264 -15.294   9.320  1.00  0.00     0.049 C 
HETATM    2  C2  UNL     1       3.924 -14.004   8.698  1.00  0.00    -0.038 A 
HETATM    3  C3  UNL     1       4.941 -13.185   8.234  1.00  0.00     0.033 A 
HETATM    4  C4  UNL     1       4.662 -11.986   7.623  1.00  0.00     0.114 A 
HETATM    5  N1  UNL     1       3.402 -11.562   7.456  1.00  0.00    -0.345 N 
ATOM      6  H1  UNL     1       3.210 -10.669   7.001  1.00  0.00     0.167 HD
HETATM    7  C5  UNL     1       2.392 -12.341   7.902  1.00  0.00     0.022 A 
HETATM    8  C6  UNL     1       2.610 -13.540   8.513  1.00  0.00    -0.002 A 
HETATM    9  C7  UNL     1       1.513 -14.369   9.001  1.00  0.00     0.049 C 
HETATM   10  C8  UNL     1       1.280 -15.589   8.085  1.00  0.00     0.043 C 
HETATM   11  C9  UNL     1       1.735 -14.852  10.454  1.00  0.00     0.043 C 
HETATM   12  N2  UNL     1       0.273 -13.693   9.057  1.00  0.00    -0.401 N 
ATOM     13  H2  UNL     1      -0.573 -14.222   9.269  1.00  0.00     0.155 HD
HETATM   14  C10 UNL     1       0.175 -12.324   8.829  1.00  0.00     0.024 C 
HETATM   15  C11 UNL     1      -1.267 -11.933   8.537  1.00  0.00     0.038 C 
HETATM   16  C12 UNL     1       0.593 -11.557  10.069  1.00  0.00     0.038 C 
HETATM   17  C13 UNL     1       1.001 -11.823   7.678  1.00  0.00     0.087 C 
HETATM   18  N3  UNL     1       5.875 -11.364   7.238  1.00  0.00    -0.363 N 
HETATM   19  C19 UNL     1       6.943 -11.976   7.986  1.00  0.00     0.172 C 
HETATM   20  C20 UNL     1       6.414 -13.363   8.285  1.00  0.00     0.147 C 
HETATM   21  C21 UNL     1       6.938 -14.299   7.239  1.00  0.00     0.059 C 
HETATM   22  F1  UNL     1       6.838 -13.737   9.565  1.00  0.00    -0.236 F 
ENDROOT
BRANCH  18  23
HETATM   23  C14 UNL     1       6.039 -10.284   6.250  1.00  0.00     0.126 C 
BRANCH  23  24
HETATM   24  C15 UNL     1       6.092  -8.942   6.968  1.00  0.00     0.050 C 
BRANCH  24  25
HETATM   25  C16 UNL     1       7.060  -8.000   6.299  1.00  0.00     0.273 C 
BRANCH  25  26
HETATM   26  N4  UNL     1       6.297  -6.839   5.871  1.00  0.00     0.080 N 
HETATM   27  C17 UNL     1       6.489  -6.634   4.460  1.00  0.00     0.309 C 
HETATM   28  C18 UNL     1       6.801  -5.660   6.567  1.00  0.00     0.309 C 
ENDBRANCH  25  26
ENDBRANCH  24  25
ENDBRANCH  23  24
ENDBRANCH  18  23
TORSDOF 4
ENDMDL
