MODEL 1
REMARK VINA RESULT: -4.655350685      0.000      0.000
REMARK  5 active torsions:
REMARK  status: ('A' for Active; 'I' for Inactive)
REMARK    1  A    between atoms: C2_2  and  O1_3 
REMARK    2  A    between atoms: O1_3  and  C3_4 
REMARK    3  A    between atoms: C3_4  and  N2_8 
REMARK    4  A    between atoms: N2_8  and  N3_10 
REMARK    5  A    between atoms: C5_15  and  O2_16 
ROOT
HETATM    1  N2  UNL     1     -78.192  86.663  93.989  1.00  0.00    -0.243 N 
ATOM      2  H2  UNL     1     -78.482  87.605  94.251  1.00  0.00     0.192 HD
ENDROOT
BRANCH   1   3
HETATM    3  C3  UNL     1     -77.085  86.099  94.651  1.00  0.00     0.233 C 
HETATM    4  N1  UNL     1     -76.732  84.881  94.402  1.00  0.00    -0.364 N 
ATOM      5  H12 UNL     1     -75.931  84.473  94.881  1.00  0.00     0.159 HD
ATOM      6  H11 UNL     1     -77.304  84.392  93.713  1.00  0.00     0.159 HD
BRANCH   3   7
HETATM    7  O1  UNL     1     -76.307  86.766  95.589  1.00  0.00    -0.322 OA
BRANCH   7   8
HETATM    8  C2  UNL     1     -75.223  87.605  95.236  1.00  0.00     0.174 C 
HETATM    9  C1  UNL     1     -73.964  87.097  95.938  1.00  0.00     0.034 C 
ENDBRANCH   7   8
ENDBRANCH   3   7
ENDBRANCH   1   3
BRANCH   1  10
HETATM   10  N3  UNL     1     -78.915  86.003  92.995  1.00  0.00    -0.152 N 
HETATM   11  N4  UNL     1     -78.409  85.262  92.024  1.00  0.00     0.003 NA
HETATM   12  N5  UNL     1     -79.375  84.781  91.249  1.00  0.00    -0.289 N 
HETATM   13  C4  UNL     1     -80.564  85.208  91.709  1.00  0.00     0.164 A 
ATOM     14  H5  UNL     1     -79.237  84.183  90.434  1.00  0.00     0.183 HD
HETATM   15  C5  UNL     1     -80.245  85.986  92.822  1.00  0.00     0.194 A 
BRANCH  15  16
HETATM   16  O2  UNL     1     -81.140  86.644  93.634  1.00  0.00    -0.343 OA
ATOM     17  H2  UNL     1     -82.080  86.502  93.619  1.00  0.00     0.219 HD
ENDBRANCH  15  16
ENDBRANCH   1  10
TORSDOF 5
ENDMDL
MODEL 2
REMARK VINA RESULT: -4.539254508      1.596      1.975
REMARK  5 active torsions:
REMARK  status: ('A' for Active; 'I' for Inactive)
REMARK    1  A    between atoms: C2_2  and  O1_3 
REMARK    2  A    between atoms: O1_3  and  C3_4 
REMARK    3  A    between atoms: C3_4  and  N2_8 
REMARK    4  A    between atoms: N2_8  and  N3_10 
REMARK    5  A    between atoms: C5_15  and  O2_16 
ROOT
HETATM    1  N2  UNL     1     -77.587  86.619  93.455  1.00  0.00    -0.243 N 
ATOM      2  H2  UNL     1     -77.056  87.324  92.944  1.00  0.00     0.192 HD
ENDROOT
BRANCH   1   3
HETATM    3  C3  UNL     1     -77.348  86.477  94.835  1.00  0.00     0.233 C 
HETATM    4  N1  UNL     1     -76.225  85.992  95.252  1.00  0.00    -0.364 N 
ATOM      5  H12 UNL     1     -76.052  85.889  96.251  1.00  0.00     0.159 HD
ATOM      6  H11 UNL     1     -75.561  85.735  94.522  1.00  0.00     0.159 HD
BRANCH   3   7
HETATM    7  O1  UNL     1     -78.253  86.826  95.829  1.00  0.00    -0.322 OA
BRANCH   7   8
HETATM    8  C2  UNL     1     -78.148  88.020  96.583  1.00  0.00     0.174 C 
HETATM    9  C1  UNL     1     -78.841  89.144  95.814  1.00  0.00     0.034 C 
ENDBRANCH   7   8
ENDBRANCH   3   7
ENDBRANCH   1   3
BRANCH   1  10
HETATM   10  N3  UNL     1     -78.509  85.847  92.748  1.00  0.00    -0.152 N 
HETATM   11  N4  UNL     1     -78.225  84.878  91.895  1.00  0.00     0.003 NA
HETATM   12  N5  UNL     1     -79.338  84.349  91.398  1.00  0.00    -0.289 N 
HETATM   13  C4  UNL     1     -80.401  84.977  91.930  1.00  0.00     0.164 A 
ATOM     14  H5  UNL     1     -79.379  83.587  90.720  1.00  0.00     0.183 HD
HETATM   15  C5  UNL     1     -79.848  85.928  92.787  1.00  0.00     0.194 A 
BRANCH  15  16
HETATM   16  O2  UNL     1     -80.547  86.823  93.563  1.00  0.00    -0.343 OA
ATOM     17  H2  UNL     1     -81.472  87.011  93.461  1.00  0.00     0.219 HD
ENDBRANCH  15  16
ENDBRANCH   1  10
TORSDOF 5
ENDMDL
MODEL 3
REMARK VINA RESULT: -4.507690838      1.932      1.950
REMARK  5 active torsions:
REMARK  status: ('A' for Active; 'I' for Inactive)
REMARK    1  A    between atoms: C2_2  and  O1_3 
REMARK    2  A    between atoms: O1_3  and  C3_4 
REMARK    3  A    between atoms: C3_4  and  N2_8 
REMARK    4  A    between atoms: N2_8  and  N3_10 
REMARK    5  A    between atoms: C5_15  and  O2_16 
ROOT
HETATM    1  N2  UNL     1     -78.000  86.733  94.260  1.00  0.00    -0.243 N 
ATOM      2  H2  UNL     1     -78.387  87.670  94.148  1.00  0.00     0.192 HD
ENDROOT
BRANCH   1   3
HETATM    3  C3  UNL     1     -77.158  86.487  95.362  1.00  0.00     0.233 C 
HETATM    4  N1  UNL     1     -75.898  86.271  95.178  1.00  0.00    -0.364 N 
ATOM      5  H12 UNL     1     -75.288  86.093  95.976  1.00  0.00     0.159 HD
ATOM      6  H11 UNL     1     -75.586  86.295  94.207  1.00  0.00     0.159 HD
BRANCH   3   7
HETATM    7  O1  UNL     1     -77.584  86.455  96.684  1.00  0.00    -0.322 OA
BRANCH   7   8
HETATM    8  C2  UNL     1     -76.906  87.128  97.729  1.00  0.00     0.174 C 
HETATM    9  C1  UNL     1     -76.775  86.176  98.917  1.00  0.00     0.034 C 
ENDBRANCH   7   8
ENDBRANCH   3   7
ENDBRANCH   1   3
BRANCH   1  10
HETATM   10  N3  UNL     1     -78.333  85.765  93.312  1.00  0.00    -0.152 N 
HETATM   11  N4  UNL     1     -77.765  84.579  93.174  1.00  0.00     0.003 NA
HETATM   12  N5  UNL     1     -78.321  83.905  92.174  1.00  0.00    -0.289 N 
HETATM   13  C4  UNL     1     -79.292  84.655  91.623  1.00  0.00     0.164 A 
ATOM     14  H5  UNL     1     -78.055  82.968  91.873  1.00  0.00     0.183 HD
HETATM   15  C5  UNL     1     -79.280  85.836  92.364  1.00  0.00     0.194 A 
BRANCH  15  16
HETATM   16  O2  UNL     1     -80.104  86.921  92.173  1.00  0.00    -0.343 OA
ATOM     17  H2  UNL     1     -81.043  86.862  92.039  1.00  0.00     0.219 HD
ENDBRANCH  15  16
ENDBRANCH   1  10
TORSDOF 5
ENDMDL
MODEL 4
REMARK VINA RESULT: -4.506856489      2.283      2.665
REMARK  5 active torsions:
REMARK  status: ('A' for Active; 'I' for Inactive)
REMARK    1  A    between atoms: C2_2  and  O1_3 
REMARK    2  A    between atoms: O1_3  and  C3_4 
REMARK    3  A    between atoms: C3_4  and  N2_8 
REMARK    4  A    between atoms: N2_8  and  N3_10 
REMARK    5  A    between atoms: C5_15  and  O2_16 
ROOT
HETATM    1  N2  UNL     1     -77.423  86.628  93.829  1.00  0.00    -0.243 N 
ATOM      2  H2  UNL     1     -76.680  86.999  93.237  1.00  0.00     0.192 HD
ENDROOT
BRANCH   1   3
HETATM    3  C3  UNL     1     -77.220  86.616  95.222  1.00  0.00     0.233 C 
HETATM    4  N1  UNL     1     -76.042  86.398  95.704  1.00  0.00    -0.364 N 
ATOM      5  H12 UNL     1     -75.895  86.389  96.713  1.00  0.00     0.159 HD
ATOM      6  H11 UNL     1     -75.307  86.243  95.013  1.00  0.00     0.159 HD
BRANCH   3   7
HETATM    7  O1  UNL     1     -78.221  86.826  96.163  1.00  0.00    -0.322 OA
BRANCH   7   8
HETATM    8  C2  UNL     1     -78.356  88.035  96.888  1.00  0.00     0.174 C 
HETATM    9  C1  UNL     1     -78.911  89.106  95.951  1.00  0.00     0.034 C 
ENDBRANCH   7   8
ENDBRANCH   3   7
ENDBRANCH   1   3
BRANCH   1  10
HETATM   10  N3  UNL     1     -78.584  86.160  93.214  1.00  0.00    -0.152 N 
HETATM   11  N4  UNL     1     -79.773  86.738  93.250  1.00  0.00     0.003 NA
HETATM   12  N5  UNL     1     -80.660  86.029  92.559  1.00  0.00    -0.289 N 
HETATM   13  C4  UNL     1     -80.054  84.946  92.043  1.00  0.00     0.164 A 
ATOM     14  H5  UNL     1     -81.644  86.269  92.440  1.00  0.00     0.183 HD
HETATM   15  C5  UNL     1     -78.732  85.051  92.475  1.00  0.00     0.194 A 
BRANCH  15  16
HETATM   16  O2  UNL     1     -77.716  84.165  92.197  1.00  0.00    -0.343 OA
ATOM     17  H2  UNL     1     -77.603  83.726  91.361  1.00  0.00     0.219 HD
ENDBRANCH  15  16
ENDBRANCH   1  10
TORSDOF 5
ENDMDL
MODEL 5
REMARK VINA RESULT: -4.439478062      1.772      2.059
REMARK  5 active torsions:
REMARK  status: ('A' for Active; 'I' for Inactive)
REMARK    1  A    between atoms: C2_2  and  O1_3 
REMARK    2  A    between atoms: O1_3  and  C3_4 
REMARK    3  A    between atoms: C3_4  and  N2_8 
REMARK    4  A    between atoms: N2_8  and  N3_10 
REMARK    5  A    between atoms: C5_15  and  O2_16 
ROOT
HETATM    1  N2  UNL     1     -77.139  85.451  94.199  1.00  0.00    -0.243 N 
ATOM      2  H2  UNL     1     -76.616  84.579  94.126  1.00  0.00     0.192 HD
ENDROOT
BRANCH   1   3
HETATM    3  C3  UNL     1     -76.666  86.440  95.084  1.00  0.00     0.233 C 
HETATM    4  N1  UNL     1     -77.466  86.972  95.948  1.00  0.00    -0.364 N 
ATOM      5  H12 UNL     1     -77.123  87.688  96.588  1.00  0.00     0.159 HD
ATOM      6  H11 UNL     1     -78.425  86.625  95.929  1.00  0.00     0.159 HD
BRANCH   3   7
HETATM    7  O1  UNL     1     -75.360  86.912  95.108  1.00  0.00    -0.322 OA
BRANCH   7   8
HETATM    8  C2  UNL     1     -74.682  87.243  96.306  1.00  0.00     0.174 C 
HETATM    9  C1  UNL     1     -73.195  86.942  96.123  1.00  0.00     0.034 C 
ENDBRANCH   7   8
ENDBRANCH   3   7
ENDBRANCH   1   3
BRANCH   1  10
HETATM   10  N3  UNL     1     -78.286  85.600  93.418  1.00  0.00    -0.152 N 
HETATM   11  N4  UNL     1     -79.271  86.455  93.632  1.00  0.00     0.003 NA
HETATM   12  N5  UNL     1     -80.209  86.334  92.699  1.00  0.00    -0.289 N 
HETATM   13  C4  UNL     1     -79.846  85.373  91.831  1.00  0.00     0.164 A 
ATOM     14  H5  UNL     1     -81.067  86.883  92.649  1.00  0.00     0.183 HD
HETATM   15  C5  UNL     1     -78.617  84.920  92.310  1.00  0.00     0.194 A 
BRANCH  15  16
HETATM   16  O2  UNL     1     -77.845  83.929  91.750  1.00  0.00    -0.343 OA
ATOM     17  H2  UNL     1     -78.195  83.169  91.299  1.00  0.00     0.219 HD
ENDBRANCH  15  16
ENDBRANCH   1  10
TORSDOF 5
ENDMDL
