MODEL 1
REMARK VINA RESULT: -5.000679756      0.000      0.000
REMARK  3 active torsions:
REMARK  status: ('A' for Active; 'I' for Inactive)
REMARK    1  A    between atoms: C4_6  and  N2_7 
REMARK    2  A    between atoms: N2_7  and  O1_8 
REMARK    3  A    between atoms: N3_10  and  O2_11 
ROOT
HETATM    1  N1  UNL     1     -78.925  88.592  95.464  1.00  0.00    -0.190 NA
HETATM    2  C1  UNL     1     -79.094  87.778  94.658  1.00  0.00     0.120 C 
HETATM    3  C2  UNL     1     -79.299  86.763  93.628  1.00  0.00     0.146 C 
HETATM    4  C3  UNL     1     -78.288  86.183  93.042  1.00  0.00     0.091 C 
HETATM    5  S1  UNL     1     -78.994  85.033  91.869  1.00  0.00    -0.092 SA
HETATM    6  C4  UNL     1     -80.654  85.856  91.879  1.00  0.00     0.301 C 
HETATM    7  N3  UNL     1     -80.579  86.366  93.240  1.00  0.00    -0.217 N 
ENDROOT
BRANCH   7   8
HETATM    8  O2  UNL     1     -81.739  86.410  93.997  1.00  0.00    -0.284 OA
ATOM      9  H2  UNL     1     -82.613  86.155  93.727  1.00  0.00     0.245 HD
ENDBRANCH   7   8
BRANCH   6  10
HETATM   10  N2  UNL     1     -80.577  86.909  90.906  1.00  0.00    -0.064 NA
BRANCH  10  11
HETATM   11  O1  UNL     1     -81.482  86.744  89.918  1.00  0.00    -0.293 OA
ATOM     12  H1  UNL     1     -82.317  87.142  90.136  1.00  0.00     0.238 HD
ENDBRANCH  10  11
ENDBRANCH   6  10
TORSDOF 3
ENDMDL
MODEL 2
REMARK VINA RESULT: -4.363428627      2.690      3.588
REMARK  3 active torsions:
REMARK  status: ('A' for Active; 'I' for Inactive)
REMARK    1  A    between atoms: C4_6  and  N2_7 
REMARK    2  A    between atoms: N2_7  and  O1_8 
REMARK    3  A    between atoms: N3_10  and  O2_11 
ROOT
HETATM    1  N1  UNL     1     -81.430  87.555  89.978  1.00  0.00    -0.190 NA
HETATM    2  C1  UNL     1     -80.754  86.973  90.716  1.00  0.00     0.120 C 
HETATM    3  C2  UNL     1     -79.885  86.245  91.637  1.00  0.00     0.146 C 
HETATM    4  C3  UNL     1     -79.086  86.876  92.453  1.00  0.00     0.091 C 
HETATM    5  S1  UNL     1     -78.224  85.610  93.374  1.00  0.00    -0.092 SA
HETATM    6  C4  UNL     1     -78.628  84.277  92.154  1.00  0.00     0.301 C 
HETATM    7  N3  UNL     1     -79.883  84.850  91.689  1.00  0.00    -0.217 N 
ENDROOT
BRANCH   7   8
HETATM    8  O2  UNL     1     -80.920  83.995  91.355  1.00  0.00    -0.284 OA
ATOM      9  H2  UNL     1     -81.133  83.655  90.493  1.00  0.00     0.245 HD
ENDBRANCH   7   8
BRANCH   6  10
HETATM   10  N2  UNL     1     -77.605  84.339  91.148  1.00  0.00    -0.064 NA
BRANCH  10  11
HETATM   11  O1  UNL     1     -77.938  83.627  90.051  1.00  0.00    -0.293 OA
ATOM     12  H1  UNL     1     -77.483  83.938  89.278  1.00  0.00     0.238 HD
ENDBRANCH  10  11
ENDBRANCH   6  10
TORSDOF 3
ENDMDL
MODEL 3
REMARK VINA RESULT: -4.116519218      3.377      4.832
REMARK  3 active torsions:
REMARK  status: ('A' for Active; 'I' for Inactive)
REMARK    1  A    between atoms: C4_6  and  N2_7 
REMARK    2  A    between atoms: N2_7  and  O1_8 
REMARK    3  A    between atoms: N3_10  and  O2_11 
ROOT
HETATM    1  N1  UNL     1     -77.718  84.252  93.108  1.00  0.00    -0.190 NA
HETATM    2  C1  UNL     1     -77.589  85.197  93.763  1.00  0.00     0.120 C 
HETATM    3  C2  UNL     1     -77.423  86.379  94.605  1.00  0.00     0.146 C 
HETATM    4  C3  UNL     1     -76.254  86.707  95.084  1.00  0.00     0.091 C 
HETATM    5  S1  UNL     1     -76.516  88.193  96.043  1.00  0.00    -0.092 SA
HETATM    6  C4  UNL     1     -78.345  87.931  96.173  1.00  0.00     0.301 C 
HETATM    7  N3  UNL     1     -78.500  87.208  94.919  1.00  0.00    -0.217 N 
ENDROOT
BRANCH   7   8
HETATM    8  O2  UNL     1     -79.656  87.402  94.181  1.00  0.00    -0.284 OA
ATOM      9  H2  UNL     1     -80.467  86.911  94.240  1.00  0.00     0.245 HD
ENDBRANCH   7   8
BRANCH   6  10
HETATM   10  N2  UNL     1     -78.542  87.078  97.312  1.00  0.00    -0.064 NA
BRANCH  10  11
HETATM   11  O1  UNL     1     -79.808  87.147  97.775  1.00  0.00    -0.293 OA
ATOM     12  H1  UNL     1     -80.403  86.626  97.249  1.00  0.00     0.238 HD
ENDBRANCH  10  11
ENDBRANCH   6  10
TORSDOF 3
ENDMDL
MODEL 4
REMARK VINA RESULT: -3.820289998      3.805      5.029
REMARK  3 active torsions:
REMARK  status: ('A' for Active; 'I' for Inactive)
REMARK    1  A    between atoms: C4_6  and  N2_7 
REMARK    2  A    between atoms: N2_7  and  O1_8 
REMARK    3  A    between atoms: N3_10  and  O2_11 
ROOT
HETATM    1  N1  UNL     1     -78.121  84.199  90.905  1.00  0.00    -0.190 NA
HETATM    2  C1  UNL     1     -78.110  84.795  91.897  1.00  0.00     0.120 C 
HETATM    3  C2  UNL     1     -78.088  85.562  93.140  1.00  0.00     0.146 C 
HETATM    4  C3  UNL     1     -78.758  86.675  93.258  1.00  0.00     0.091 C 
HETATM    5  S1  UNL     1     -78.443  87.264  94.916  1.00  0.00    -0.092 SA
HETATM    6  C4  UNL     1     -76.939  86.206  95.136  1.00  0.00     0.301 C 
HETATM    7  N3  UNL     1     -77.361  85.130  94.250  1.00  0.00    -0.217 N 
ENDROOT
BRANCH   7   8
HETATM    8  O2  UNL     1     -77.016  83.829  94.576  1.00  0.00    -0.284 OA
ATOM      9  H2  UNL     1     -76.311  83.544  95.145  1.00  0.00     0.245 HD
ENDBRANCH   7   8
BRANCH   6  10
HETATM   10  N2  UNL     1     -75.845  86.956  94.587  1.00  0.00    -0.064 NA
BRANCH  10  11
HETATM   11  O1  UNL     1     -74.668  86.608  95.150  1.00  0.00    -0.293 OA
ATOM     12  H1  UNL     1     -73.937  87.058  94.743  1.00  0.00     0.238 HD
ENDBRANCH  10  11
ENDBRANCH   6  10
TORSDOF 3
ENDMDL
MODEL 5
REMARK VINA RESULT: -3.676003107      3.189      4.824
REMARK  3 active torsions:
REMARK  status: ('A' for Active; 'I' for Inactive)
REMARK    1  A    between atoms: C4_6  and  N2_7 
REMARK    2  A    between atoms: N2_7  and  O1_8 
REMARK    3  A    between atoms: N3_10  and  O2_11 
ROOT
HETATM    1  N1  UNL     1     -80.272  86.546  92.962  1.00  0.00    -0.190 NA
HETATM    2  C1  UNL     1     -79.377  86.753  93.666  1.00  0.00     0.120 C 
HETATM    3  C2  UNL     1     -78.249  86.998  94.561  1.00  0.00     0.146 C 
HETATM    4  C3  UNL     1     -77.133  86.334  94.438  1.00  0.00     0.091 C 
HETATM    5  S1  UNL     1     -76.052  86.947  95.723  1.00  0.00    -0.092 SA
HETATM    6  C4  UNL     1     -77.438  87.688  96.703  1.00  0.00     0.301 C 
HETATM    7  N3  UNL     1     -78.316  87.957  95.573  1.00  0.00    -0.217 N 
ENDROOT
BRANCH   7   8
HETATM    8  O2  UNL     1     -79.106  89.094  95.604  1.00  0.00    -0.284 OA
ATOM      9  H2  UNL     1     -79.735  89.342  96.271  1.00  0.00     0.245 HD
ENDBRANCH   7   8
BRANCH   6  10
HETATM   10  N2  UNL     1     -77.942  86.631  97.535  1.00  0.00    -0.064 NA
BRANCH  10  11
HETATM   11  O1  UNL     1     -79.237  86.826  97.859  1.00  0.00    -0.293 OA
ATOM     12  H1  UNL     1     -79.822  86.498  97.186  1.00  0.00     0.238 HD
ENDBRANCH  10  11
ENDBRANCH   6  10
TORSDOF 3
ENDMDL
