MODEL 1
REMARK VINA RESULT: -4.723269916      0.000      0.000
REMARK  1 active torsions:
REMARK  status: ('A' for Active; 'I' for Inactive)
REMARK       I    between atoms: C1_2  and  N2_5 
REMARK    1  A    between atoms: N2_5  and  N3_7 
ROOT
HETATM    1  O1  UNL     1     -78.131  86.774  96.333  1.00  0.00    -0.228 OA
HETATM    2  C1  UNL     1     -76.849  86.809  96.372  1.00  0.00     0.421 C 
HETATM    3  N1  UNL     1     -76.013  87.339  97.286  1.00  0.00    -0.300 NA
HETATM    4  S1  UNL     1     -74.992  87.988  98.400  1.00  0.00     0.149 SA
HETATM    5  N2  UNL     1     -76.287  86.135  95.188  1.00  0.00    -0.218 N 
ATOM      6  H2  UNL     1     -75.275  86.080  95.067  1.00  0.00     0.194 HD
ENDROOT
BRANCH   5   7
HETATM    7  N3  UNL     1     -77.123  85.577  94.242  1.00  0.00    -0.172 N 
HETATM    8  C2  UNL     1     -77.976  86.216  93.412  1.00  0.00     0.238 A 
HETATM    9  N4  UNL     1     -78.604  85.340  92.620  1.00  0.00    -0.279 N 
HETATM   10  N5  UNL     1     -78.139  84.137  92.952  1.00  0.00    -0.006 NA
ATOM     11  H4  UNL     1     -79.299  85.551  91.905  1.00  0.00     0.184 HD
HETATM   12  N6  UNL     1     -77.253  84.299  93.926  1.00  0.00     0.015 NA
ENDBRANCH   5   7
TORSDOF 0
ENDMDL
MODEL 2
REMARK VINA RESULT: -4.691239058      2.376      2.435
REMARK  1 active torsions:
REMARK  status: ('A' for Active; 'I' for Inactive)
REMARK       I    between atoms: C1_2  and  N2_5 
REMARK    1  A    between atoms: N2_5  and  N3_7 
ROOT
HETATM    1  O1  UNL     1     -80.167  87.128  94.358  1.00  0.00    -0.228 OA
HETATM    2  C1  UNL     1     -78.996  87.550  94.672  1.00  0.00     0.421 C 
HETATM    3  N1  UNL     1     -78.614  88.560  95.477  1.00  0.00    -0.300 NA
HETATM    4  S1  UNL     1     -78.147  89.794  96.458  1.00  0.00     0.149 SA
HETATM    5  N2  UNL     1     -77.967  86.738  93.998  1.00  0.00    -0.218 N 
ATOM      6  H2  UNL     1     -76.979  86.949  94.140  1.00  0.00     0.194 HD
ENDROOT
BRANCH   5   7
HETATM    7  N3  UNL     1     -78.335  85.692  93.175  1.00  0.00    -0.172 N 
HETATM    8  C2  UNL     1     -79.154  85.733  92.102  1.00  0.00     0.238 A 
HETATM    9  N4  UNL     1     -79.255  84.522  91.543  1.00  0.00    -0.279 N 
HETATM   10  N5  UNL     1     -78.487  83.712  92.268  1.00  0.00    -0.006 NA
ATOM     11  H4  UNL     1     -79.808  84.270  90.724  1.00  0.00     0.184 HD
HETATM   12  N6  UNL     1     -77.944  84.430  93.242  1.00  0.00     0.015 NA
ENDBRANCH   5   7
TORSDOF 0
ENDMDL
MODEL 3
REMARK VINA RESULT: -4.579554759      1.787      2.286
REMARK  1 active torsions:
REMARK  status: ('A' for Active; 'I' for Inactive)
REMARK       I    between atoms: C1_2  and  N2_5 
REMARK    1  A    between atoms: N2_5  and  N3_7 
ROOT
HETATM    1  O1  UNL     1     -78.178  86.746  95.974  1.00  0.00    -0.228 OA
HETATM    2  C1  UNL     1     -77.110  86.811  95.265  1.00  0.00     0.421 C 
HETATM    3  N1  UNL     1     -75.828  87.014  95.625  1.00  0.00    -0.300 NA
HETATM    4  S1  UNL     1     -74.264  87.264  96.064  1.00  0.00     0.149 SA
HETATM    5  N2  UNL     1     -77.436  86.619  93.840  1.00  0.00    -0.218 N 
ATOM      6  H2  UNL     1     -76.694  86.647  93.141  1.00  0.00     0.194 HD
ENDROOT
BRANCH   5   7
HETATM    7  N3  UNL     1     -78.742  86.401  93.448  1.00  0.00    -0.172 N 
HETATM    8  C2  UNL     1     -79.198  85.491  92.561  1.00  0.00     0.238 A 
HETATM    9  N4  UNL     1     -80.529  85.566  92.455  1.00  0.00    -0.279 N 
HETATM   10  N5  UNL     1     -80.916  86.530  93.288  1.00  0.00    -0.006 NA
ATOM     11  H4  UNL     1     -81.128  84.997  91.857  1.00  0.00     0.184 HD
HETATM   12  N6  UNL     1     -79.831  87.020  93.874  1.00  0.00     0.015 NA
ENDBRANCH   5   7
TORSDOF 0
ENDMDL
MODEL 4
REMARK VINA RESULT: -4.455576440      2.141      2.858
REMARK  1 active torsions:
REMARK  status: ('A' for Active; 'I' for Inactive)
REMARK       I    between atoms: C1_2  and  N2_5 
REMARK    1  A    between atoms: N2_5  and  N3_7 
ROOT
HETATM    1  O1  UNL     1     -79.737  87.546  94.768  1.00  0.00    -0.228 OA
HETATM    2  C1  UNL     1     -78.482  87.279  94.728  1.00  0.00     0.421 C 
HETATM    3  N1  UNL     1     -77.503  87.530  95.618  1.00  0.00    -0.300 NA
HETATM    4  S1  UNL     1     -76.306  87.837  96.703  1.00  0.00     0.149 SA
HETATM    5  N2  UNL     1     -78.152  86.586  93.470  1.00  0.00    -0.218 N 
ATOM      6  H2  UNL     1     -77.188  86.307  93.281  1.00  0.00     0.194 HD
ENDROOT
BRANCH   5   7
HETATM    7  N3  UNL     1     -79.140  86.311  92.546  1.00  0.00    -0.172 N 
HETATM    8  C2  UNL     1     -79.560  85.101  92.119  1.00  0.00     0.238 A 
HETATM    9  N4  UNL     1     -80.553  85.235  91.233  1.00  0.00    -0.279 N 
HETATM   10  N5  UNL     1     -80.762  86.543  91.103  1.00  0.00    -0.006 NA
ATOM     11  H4  UNL     1     -81.050  84.484  90.753  1.00  0.00     0.184 HD
HETATM   12  N6  UNL     1     -79.907  87.173  91.897  1.00  0.00     0.015 NA
ENDBRANCH   5   7
TORSDOF 0
ENDMDL
MODEL 5
REMARK VINA RESULT: -4.319220524      2.934      3.231
REMARK  1 active torsions:
REMARK  status: ('A' for Active; 'I' for Inactive)
REMARK       I    between atoms: C1_2  and  N2_5 
REMARK    1  A    between atoms: N2_5  and  N3_7 
ROOT
HETATM    1  O1  UNL     1     -80.362  86.446  93.022  1.00  0.00    -0.228 OA
HETATM    2  C1  UNL     1     -79.339  86.772  93.726  1.00  0.00     0.421 C 
HETATM    3  N1  UNL     1     -79.185  87.734  94.657  1.00  0.00    -0.300 NA
HETATM    4  S1  UNL     1     -78.996  88.908  95.792  1.00  0.00     0.149 SA
HETATM    5  N2  UNL     1     -78.198  85.900  93.396  1.00  0.00    -0.218 N 
ATOM      6  H2  UNL     1     -77.303  86.033  93.868  1.00  0.00     0.194 HD
ENDROOT
BRANCH   5   7
HETATM    7  N3  UNL     1     -78.334  84.903  92.451  1.00  0.00    -0.172 N 
HETATM    8  C2  UNL     1     -77.913  84.916  91.168  1.00  0.00     0.238 A 
HETATM    9  N4  UNL     1     -78.207  83.759  90.566  1.00  0.00    -0.279 N 
HETATM   10  N5  UNL     1     -78.817  83.007  91.480  1.00  0.00    -0.006 NA
ATOM     11  H4  UNL     1     -78.004  83.503  89.600  1.00  0.00     0.184 HD
HETATM   12  N6  UNL     1     -78.885  83.709  92.604  1.00  0.00     0.015 NA
ENDBRANCH   5   7
TORSDOF 0
ENDMDL
