MODEL 1
REMARK VINA RESULT: -5.027637757      0.000      0.000
REMARK  1 active torsions:
REMARK  status: ('A' for Active; 'I' for Inactive)
REMARK    1  A    between atoms: N1_3  and  C3_4 
ROOT
HETATM    1  C3  UNL     1     -78.301  86.826  94.205  1.00  0.00     0.346 C 
HETATM    2  N2  UNL     1     -79.438  87.582  94.630  1.00  0.00    -0.092 NA
HETATM    3  N3  UNL     1     -79.092  88.593  95.489  1.00  0.00    -0.334 N 
ATOM      4  H3  UNL     1     -79.755  89.322  95.752  1.00  0.00     0.175 HD
HETATM    5  C4  UNL     1     -77.771  88.573  95.991  1.00  0.00     0.161 C 
HETATM    6  C5  UNL     1     -77.099  87.254  96.041  1.00  0.00     0.192 C 
HETATM    7  O1  UNL     1     -77.741  86.246  95.345  1.00  0.00    -0.349 OA
ENDROOT
BRANCH   1   8
HETATM    8  N1  UNL     1     -78.586  85.883  93.168  1.00  0.00    -0.310 N 
HETATM    9  C2  UNL     1     -77.980  84.734  92.826  1.00  0.00     0.113 A 
HETATM   10  C1  UNL     1     -78.635  84.167  91.737  1.00  0.00     0.106 A 
HETATM   11  N4  UNL     1     -79.628  84.991  91.444  1.00  0.00    -0.361 N 
HETATM   12  C6  UNL     1     -79.608  86.020  92.295  1.00  0.00     0.186 A 
ATOM     13  H4  UNL     1     -80.302  84.861  90.689  1.00  0.00     0.166 HD
ENDBRANCH   1   8
TORSDOF 1
ENDMDL
MODEL 2
REMARK VINA RESULT: -4.584139010      0.685      1.211
REMARK  1 active torsions:
REMARK  status: ('A' for Active; 'I' for Inactive)
REMARK    1  A    between atoms: N1_3  and  C3_4 
ROOT
HETATM    1  C3  UNL     1     -78.304  86.775  94.143  1.00  0.00     0.346 C 
HETATM    2  N2  UNL     1     -79.186  87.577  94.932  1.00  0.00    -0.092 NA
HETATM    3  N3  UNL     1     -78.503  88.405  95.785  1.00  0.00    -0.334 N 
ATOM      4  H3  UNL     1     -78.972  89.154  96.294  1.00  0.00     0.175 HD
HETATM    5  C4  UNL     1     -77.116  88.168  95.924  1.00  0.00     0.161 C 
HETATM    6  C5  UNL     1     -76.647  86.790  95.644  1.00  0.00     0.192 C 
HETATM    7  O1  UNL     1     -77.574  85.973  95.023  1.00  0.00    -0.349 OA
ENDROOT
BRANCH   1   8
HETATM    8  N1  UNL     1     -78.961  86.034  93.111  1.00  0.00    -0.310 N 
HETATM    9  C2  UNL     1     -80.191  86.151  92.583  1.00  0.00     0.113 A 
HETATM   10  C1  UNL     1     -80.368  85.190  91.594  1.00  0.00     0.106 A 
HETATM   11  N4  UNL     1     -79.235  84.508  91.545  1.00  0.00    -0.361 N 
HETATM   12  C6  UNL     1     -78.387  85.007  92.449  1.00  0.00     0.186 A 
ATOM     13  H4  UNL     1     -79.041  83.728  90.918  1.00  0.00     0.166 HD
ENDBRANCH   1   8
TORSDOF 1
ENDMDL
MODEL 3
REMARK VINA RESULT: -4.329561190      1.785      4.465
REMARK  1 active torsions:
REMARK  status: ('A' for Active; 'I' for Inactive)
REMARK    1  A    between atoms: N1_3  and  C3_4 
ROOT
HETATM    1  C3  UNL     1     -78.594  86.080  93.304  1.00  0.00     0.346 C 
HETATM    2  N2  UNL     1     -78.305  84.735  92.913  1.00  0.00    -0.092 NA
HETATM    3  N3  UNL     1     -78.916  84.401  91.733  1.00  0.00    -0.334 N 
ATOM      4  H3  UNL     1     -78.682  83.543  91.233  1.00  0.00     0.175 HD
HETATM    5  C4  UNL     1     -79.887  85.305  91.243  1.00  0.00     0.161 C 
HETATM    6  C5  UNL     1     -80.561  86.162  92.246  1.00  0.00     0.192 C 
HETATM    7  O1  UNL     1     -79.974  86.168  93.498  1.00  0.00    -0.349 OA
ENDROOT
BRANCH   1   8
HETATM    8  N1  UNL     1     -77.832  86.533  94.427  1.00  0.00    -0.310 N 
HETATM    9  C2  UNL     1     -78.064  87.514  95.316  1.00  0.00     0.113 A 
HETATM   10  C1  UNL     1     -77.020  87.568  96.234  1.00  0.00     0.106 A 
HETATM   11  N4  UNL     1     -76.175  86.615  95.877  1.00  0.00    -0.361 N 
HETATM   12  C6  UNL     1     -76.653  85.989  94.798  1.00  0.00     0.186 A 
ATOM     13  H4  UNL     1     -75.299  86.392  96.350  1.00  0.00     0.166 HD
ENDBRANCH   1   8
TORSDOF 1
ENDMDL
MODEL 4
REMARK VINA RESULT: -4.317249181      1.579      4.458
REMARK  1 active torsions:
REMARK  status: ('A' for Active; 'I' for Inactive)
REMARK    1  A    between atoms: N1_3  and  C3_4 
ROOT
HETATM    1  C3  UNL     1     -78.186  85.956  93.420  1.00  0.00     0.346 C 
HETATM    2  N2  UNL     1     -77.786  84.587  93.320  1.00  0.00    -0.092 NA
HETATM    3  N3  UNL     1     -78.220  84.009  92.155  1.00  0.00    -0.334 N 
ATOM      4  H3  UNL     1     -77.882  83.095  91.853  1.00  0.00     0.175 HD
HETATM    5  C4  UNL     1     -79.159  84.742  91.394  1.00  0.00     0.161 C 
HETATM    6  C5  UNL     1     -79.998  85.714  92.134  1.00  0.00     0.192 C 
HETATM    7  O1  UNL     1     -79.582  85.980  93.425  1.00  0.00    -0.349 OA
ENDROOT
BRANCH   1   8
HETATM    8  N1  UNL     1     -77.601  86.651  94.525  1.00  0.00    -0.310 N 
HETATM    9  C2  UNL     1     -76.377  86.573  95.072  1.00  0.00     0.113 A 
HETATM   10  C1  UNL     1     -76.285  87.461  96.139  1.00  0.00     0.106 A 
HETATM   11  N4  UNL     1     -77.463  88.059  96.214  1.00  0.00    -0.361 N 
HETATM   12  C6  UNL     1     -78.257  87.582  95.252  1.00  0.00     0.186 A 
ATOM     13  H4  UNL     1     -77.723  88.770  96.898  1.00  0.00     0.166 HD
ENDBRANCH   1   8
TORSDOF 1
ENDMDL
MODEL 5
REMARK VINA RESULT: -4.188911084      1.342      1.468
REMARK  1 active torsions:
REMARK  status: ('A' for Active; 'I' for Inactive)
REMARK    1  A    between atoms: N1_3  and  C3_4 
ROOT
HETATM    1  C3  UNL     1     -78.390  86.679  94.345  1.00  0.00     0.346 C 
HETATM    2  N2  UNL     1     -77.033  87.117  94.458  1.00  0.00    -0.092 NA
HETATM    3  N3  UNL     1     -76.808  87.793  95.629  1.00  0.00    -0.334 N 
ATOM      4  H3  UNL     1     -75.864  88.025  95.939  1.00  0.00     0.175 HD
HETATM    5  C4  UNL     1     -77.947  88.152  96.384  1.00  0.00     0.161 C 
HETATM    6  C5  UNL     1     -79.218  88.305  95.637  1.00  0.00     0.192 C 
HETATM    7  O1  UNL     1     -79.194  87.820  94.342  1.00  0.00    -0.349 OA
ENDROOT
BRANCH   1   8
HETATM    8  N1  UNL     1     -78.629  85.812  93.233  1.00  0.00    -0.310 N 
HETATM    9  C2  UNL     1     -77.988  84.706  92.819  1.00  0.00     0.113 A 
HETATM   10  C1  UNL     1     -78.604  84.210  91.675  1.00  0.00     0.106 A 
HETATM   11  N4  UNL     1     -79.609  85.032  91.420  1.00  0.00    -0.361 N 
HETATM   12  C6  UNL     1     -79.632  85.993  92.347  1.00  0.00     0.186 A 
ATOM     13  H4  UNL     1     -80.261  84.945  90.641  1.00  0.00     0.166 HD
ENDBRANCH   1   8
TORSDOF 1
ENDMDL
