MODEL 1
REMARK VINA RESULT: -4.352965967      0.000      0.000
REMARK  4 active torsions:
REMARK  status: ('A' for Active; 'I' for Inactive)
REMARK    1  A    between atoms: N4_8  and  C3_9 
REMARK    2  A    between atoms: C3_9  and  C4_10 
REMARK    3  A    between atoms: C4_10  and  O1_11 
REMARK    4  A    between atoms: N5_13  and  O2_14 
ROOT
HETATM    1  N1  UNL     1     -76.882  89.856  96.436  1.00  0.00    -0.193 NA
HETATM    2  C1  UNL     1     -76.663  88.730  96.656  1.00  0.00     0.106 C 
HETATM    3  C2  UNL     1     -76.384  87.326  96.941  1.00  0.00     0.332 C 
HETATM    4  N2  UNL     1     -75.211  86.857  96.239  1.00  0.00    -0.286 N 
ATOM      5  H2  UNL     1     -74.246  86.943  96.559  1.00  0.00     0.184 HD
HETATM    6  N3  UNL     1     -75.588  86.326  95.171  1.00  0.00    -0.230 N 
ATOM      7  H3  UNL     1     -74.965  85.909  94.480  1.00  0.00     0.209 HD
HETATM    8  N4  UNL     1     -76.988  86.383  95.054  1.00  0.00    -0.211 N 
HETATM    9  N5  UNL     1     -77.429  86.505  96.398  1.00  0.00    -0.050 NA
ENDROOT
BRANCH   9  10
HETATM   10  O2  UNL     1     -78.649  87.034  96.484  1.00  0.00    -0.290 OA
ATOM     11  H2  UNL     1     -79.354  86.434  96.270  1.00  0.00     0.239 HD
ENDBRANCH   9  10
BRANCH   8  12
HETATM   12  C3  UNL     1     -77.778  86.331  93.844  1.00  0.00     0.193 C 
BRANCH  12  13
HETATM   13  C4  UNL     1     -77.771  84.901  93.343  1.00  0.00     0.187 C 
BRANCH  13  14
HETATM   14  O1  UNL     1     -77.087  84.058  94.207  1.00  0.00    -0.399 OA
ATOM     15  H1  UNL     1     -77.598  83.287  94.424  1.00  0.00     0.209 HD
ENDBRANCH  13  14
ENDBRANCH  12  13
ENDBRANCH   8  12
TORSDOF 4
ENDMDL
MODEL 2
REMARK VINA RESULT: -3.752014406      1.913      2.548
REMARK  4 active torsions:
REMARK  status: ('A' for Active; 'I' for Inactive)
REMARK    1  A    between atoms: N4_8  and  C3_9 
REMARK    2  A    between atoms: C3_9  and  C4_10 
REMARK    3  A    between atoms: C4_10  and  O1_11 
REMARK    4  A    between atoms: N5_13  and  O2_14 
ROOT
HETATM    1  N1  UNL     1     -77.178  86.237  98.010  1.00  0.00    -0.193 NA
HETATM    2  C1  UNL     1     -77.150  86.912  97.059  1.00  0.00     0.106 C 
HETATM    3  C2  UNL     1     -77.115  87.766  95.876  1.00  0.00     0.332 C 
HETATM    4  N2  UNL     1     -78.434  87.972  95.320  1.00  0.00    -0.286 N 
ATOM      5  H2  UNL     1     -79.104  88.684  95.612  1.00  0.00     0.184 HD
HETATM    6  N3  UNL     1     -78.607  87.122  94.419  1.00  0.00    -0.230 N 
ATOM      7  H3  UNL     1     -79.455  87.038  93.857  1.00  0.00     0.209 HD
HETATM    8  N4  UNL     1     -77.475  86.299  94.284  1.00  0.00    -0.211 N 
HETATM    9  N5  UNL     1     -76.423  87.093  94.813  1.00  0.00    -0.050 NA
ENDROOT
BRANCH   9  10
HETATM   10  O2  UNL     1     -75.385  86.359  95.207  1.00  0.00    -0.290 OA
ATOM     11  H2  UNL     1     -74.541  86.786  95.112  1.00  0.00     0.239 HD
ENDBRANCH   9  10
BRANCH   8  12
HETATM   12  C3  UNL     1     -77.411  84.963  93.736  1.00  0.00     0.193 C 
BRANCH  12  13
HETATM   13  C4  UNL     1     -78.378  84.889  92.572  1.00  0.00     0.187 C 
BRANCH  13  14
HETATM   14  O1  UNL     1     -78.229  83.711  91.854  1.00  0.00    -0.399 OA
ATOM     15  H1  UNL     1     -78.788  83.693  91.087  1.00  0.00     0.209 HD
ENDBRANCH  13  14
ENDBRANCH  12  13
ENDBRANCH   8  12
TORSDOF 4
ENDMDL
MODEL 3
REMARK VINA RESULT: -3.730822627      2.284      2.707
REMARK  4 active torsions:
REMARK  status: ('A' for Active; 'I' for Inactive)
REMARK    1  A    between atoms: N4_8  and  C3_9 
REMARK    2  A    between atoms: C3_9  and  C4_10 
REMARK    3  A    between atoms: C4_10  and  O1_11 
REMARK    4  A    between atoms: N5_13  and  O2_14 
ROOT
HETATM    1  N1  UNL     1     -75.384  88.073  94.639  1.00  0.00    -0.193 NA
HETATM    2  C1  UNL     1     -76.086  87.182  94.916  1.00  0.00     0.106 C 
HETATM    3  C2  UNL     1     -76.955  86.066  95.271  1.00  0.00     0.332 C 
HETATM    4  N2  UNL     1     -76.671  84.889  94.482  1.00  0.00    -0.286 N 
ATOM      5  H2  UNL     1     -75.961  84.185  94.687  1.00  0.00     0.184 HD
HETATM    6  N3  UNL     1     -77.450  84.884  93.504  1.00  0.00    -0.230 N 
ATOM      7  H3  UNL     1     -77.469  84.165  92.781  1.00  0.00     0.209 HD
HETATM    8  N4  UNL     1     -78.298  86.006  93.537  1.00  0.00    -0.211 N 
HETATM    9  N5  UNL     1     -78.310  86.373  94.909  1.00  0.00    -0.050 NA
ENDROOT
BRANCH   9  10
HETATM   10  O2  UNL     1     -78.656  87.646  95.088  1.00  0.00    -0.290 OA
ATOM     11  H2  UNL     1     -79.592  87.804  95.089  1.00  0.00     0.239 HD
ENDBRANCH   9  10
BRANCH   8  12
HETATM   12  C3  UNL     1     -78.986  86.629  92.428  1.00  0.00     0.193 C 
BRANCH  12  13
HETATM   13  C4  UNL     1     -80.411  86.115  92.414  1.00  0.00     0.187 C 
BRANCH  13  14
HETATM   14  O1  UNL     1     -81.071  86.402  93.600  1.00  0.00    -0.399 OA
ATOM     15  H1  UNL     1     -81.603  85.671  93.892  1.00  0.00     0.209 HD
ENDBRANCH  13  14
ENDBRANCH  12  13
ENDBRANCH   8  12
TORSDOF 4
ENDMDL
MODEL 4
REMARK VINA RESULT: -3.690702590      4.805      5.950
REMARK  4 active torsions:
REMARK  status: ('A' for Active; 'I' for Inactive)
REMARK    1  A    between atoms: N4_8  and  C3_9 
REMARK    2  A    between atoms: C3_9  and  C4_10 
REMARK    3  A    between atoms: C4_10  and  O1_11 
REMARK    4  A    between atoms: N5_13  and  O2_14 
ROOT
HETATM    1  N1  UNL     1     -74.008  86.920  96.041  1.00  0.00    -0.193 NA
HETATM    2  C1  UNL     1     -73.629  86.806  97.139  1.00  0.00     0.106 C 
HETATM    3  C2  UNL     1     -73.165  86.669  98.516  1.00  0.00     0.332 C 
HETATM    4  N2  UNL     1     -72.301  87.761  98.905  1.00  0.00    -0.286 N 
ATOM      5  H2  UNL     1     -72.604  88.664  99.271  1.00  0.00     0.184 HD
HETATM    6  N3  UNL     1     -71.118  87.403  98.714  1.00  0.00    -0.230 N 
ATOM      7  H3  UNL     1     -70.300  87.981  98.904  1.00  0.00     0.209 HD
HETATM    8  N4  UNL     1     -71.070  86.094  98.201  1.00  0.00    -0.211 N 
HETATM    9  N5  UNL     1     -72.302  85.526  98.624  1.00  0.00    -0.050 NA
ENDROOT
BRANCH   9  10
HETATM   10  O2  UNL     1     -72.663  84.487  97.874  1.00  0.00    -0.290 OA
ATOM     11  H2  UNL     1     -73.083  83.782  98.354  1.00  0.00     0.239 HD
ENDBRANCH   9  10
BRANCH   8  12
HETATM   12  C3  UNL     1     -70.012  85.484  97.427  1.00  0.00     0.193 C 
BRANCH  12  13
HETATM   13  C4  UNL     1     -70.227  85.850  95.973  1.00  0.00     0.187 C 
BRANCH  13  14
HETATM   14  O1  UNL     1     -71.350  85.228  95.447  1.00  0.00    -0.399 OA
ATOM     15  H1  UNL     1     -71.392  85.319  94.503  1.00  0.00     0.209 HD
ENDBRANCH  13  14
ENDBRANCH  12  13
ENDBRANCH   8  12
TORSDOF 4
ENDMDL
MODEL 5
REMARK VINA RESULT: -3.675270602      3.563      4.628
REMARK  4 active torsions:
REMARK  status: ('A' for Active; 'I' for Inactive)
REMARK    1  A    between atoms: N4_8  and  C3_9 
REMARK    2  A    between atoms: C3_9  and  C4_10 
REMARK    3  A    between atoms: C4_10  and  O1_11 
REMARK    4  A    between atoms: N5_13  and  O2_14 
ROOT
HETATM    1  N1  UNL     1     -82.636  87.173  96.261  1.00  0.00    -0.193 NA
HETATM    2  C1  UNL     1     -82.000  87.765  97.041  1.00  0.00     0.106 C 
HETATM    3  C2  UNL     1     -81.214  88.510  98.019  1.00  0.00     0.332 C 
HETATM    4  N2  UNL     1     -80.713  89.752  97.476  1.00  0.00    -0.286 N 
ATOM      5  H2  UNL     1     -81.215  90.640  97.447  1.00  0.00     0.184 HD
HETATM    6  N3  UNL     1     -79.557  89.546  97.047  1.00  0.00    -0.230 N 
ATOM      7  H3  UNL     1     -78.966  90.253  96.610  1.00  0.00     0.209 HD
HETATM    8  N4  UNL     1     -79.182  88.206  97.251  1.00  0.00    -0.211 N 
HETATM    9  N5  UNL     1     -80.011  87.788  98.325  1.00  0.00    -0.050 NA
ENDROOT
BRANCH   9  10
HETATM   10  O2  UNL     1     -80.156  86.465  98.368  1.00  0.00    -0.290 OA
ATOM     11  H2  UNL     1     -79.924  86.070  99.200  1.00  0.00     0.239 HD
ENDBRANCH   9  10
BRANCH   8  12
HETATM   12  C3  UNL     1     -78.186  87.445  96.529  1.00  0.00     0.193 C 
BRANCH  12  13
HETATM   13  C4  UNL     1     -78.425  87.650  95.047  1.00  0.00     0.187 C 
BRANCH  13  14
HETATM   14  O1  UNL     1     -79.766  87.507  94.719  1.00  0.00    -0.399 OA
ATOM     15  H1  UNL     1     -80.195  88.348  94.621  1.00  0.00     0.209 HD
ENDBRANCH  13  14
ENDBRANCH  12  13
ENDBRANCH   8  12
TORSDOF 4
ENDMDL
