MODEL 1
REMARK VINA RESULT: -7.776159154      0.000      0.000
REMARK  4 active torsions:
REMARK  status: ('A' for Active; 'I' for Inactive)
REMARK    1  A    between atoms: C2_2  and  N1_4 
REMARK    2  A    between atoms: N1_4  and  C4_6 
REMARK    3  A    between atoms: C5_9  and  N3_10 
REMARK    4  A    between atoms: C10_24  and  C11_25 
ROOT
HETATM    1  C4  UNL     1      17.795  -2.564   8.150  1.00  0.00     0.681 A 
HETATM    2  N2  UNL     1      18.361  -3.267   7.180  1.00  0.00    -0.175 N 
ATOM      3  H2  UNL     1      18.929  -4.083   7.408  1.00  0.00     0.186 HD
HETATM    4  C5  UNL     1      18.183  -2.896   5.857  1.00  0.00     0.146 A 
HETATM    5  C6  UNL     1      17.412  -1.819   5.621  1.00  0.00     0.131 A 
HETATM    6  C7  UNL     1      16.832  -1.088   6.677  1.00  0.00     0.154 A 
HETATM    7  N4  UNL     1      16.096   0.018   6.480  1.00  0.00    -0.313 N 
ATOM      8  H4  UNL     1      15.693   0.531   7.264  1.00  0.00     0.170 HD
HETATM    9  C8  UNL     1      15.913   0.416   5.235  1.00  0.00     0.236 A 
HETATM   10  F1  UNL     1      15.189   1.541   4.968  1.00  0.00    -0.182 F 
HETATM   11  C9  UNL     1      16.433  -0.257   4.163  1.00  0.00     0.186 A 
HETATM   12  N5  UNL     1      16.293  -0.087   2.851  1.00  0.00    -0.280 N 
ATOM     13  H5  UNL     1      15.791   0.675   2.398  1.00  0.00     0.188 HD
HETATM   14  N6  UNL     1      16.897  -1.044   2.255  1.00  0.00    -0.284 N 
ATOM     15  H6  UNL     1      16.944  -1.153   1.242  1.00  0.00     0.188 HD
HETATM   16  C10 UNL     1      17.495  -1.936   3.187  1.00  0.00     0.145 A 
HETATM   17  N7  UNL     1      17.186  -1.390   4.350  1.00  0.00    -0.271 N 
HETATM   18  N8  UNL     1      17.050  -1.497   7.928  1.00  0.00    -0.174 N 
ATOM     19  H8  UNL     1      16.643  -0.986   8.712  1.00  0.00     0.186 HD
ENDROOT
BRANCH   1  20
HETATM   20  N1  UNL     1      18.000  -2.995   9.369  1.00  0.00    -0.222 N 
ATOM     21  H1  UNL     1      17.879  -3.986   9.579  1.00  0.00     0.178 HD
BRANCH  20  22
HETATM   22  C2  UNL     1      18.393  -2.091  10.414  1.00  0.00     0.091 C 
HETATM   23  C1  UNL     1      18.069  -2.797  11.741  1.00  0.00     0.032 C 
HETATM   24  C3  UNL     1      19.856  -1.759  10.445  1.00  0.00     0.032 C 
ENDBRANCH  20  22
ENDBRANCH   1  20
BRANCH   4  25
HETATM   25  N3  UNL     1      18.942  -3.502   5.124  1.00  0.00    -0.383 N 
ATOM     26  H32 UNL     1      19.942  -3.383   4.959  1.00  0.00     0.157 HD
ATOM     27  H31 UNL     1      18.512  -4.358   4.774  1.00  0.00     0.157 HD
ENDBRANCH   4  25
BRANCH  16  28
HETATM   28  C11 UNL     1      18.071  -3.178   2.717  1.00  0.00     0.156 C 
HETATM   29  C12 UNL     1      18.116  -2.835   1.116  1.00  0.00     0.060 C 
HETATM   30  C13 UNL     1      17.132  -4.359   2.468  1.00  0.00     0.060 C 
HETATM   31  F2  UNL     1      19.399  -3.415   2.692  1.00  0.00    -0.235 F 
ENDBRANCH  16  28
TORSDOF 4
ENDMDL
MODEL 2
REMARK VINA RESULT: -7.723066078      2.143      6.101
REMARK  4 active torsions:
REMARK  status: ('A' for Active; 'I' for Inactive)
REMARK    1  A    between atoms: C2_2  and  N1_4 
REMARK    2  A    between atoms: N1_4  and  C4_6 
REMARK    3  A    between atoms: C5_9  and  N3_10 
REMARK    4  A    between atoms: C10_24  and  C11_25 
ROOT
HETATM    1  C4  UNL     1      17.531  -2.796   3.749  1.00  0.00     0.681 A 
HETATM    2  N2  UNL     1      16.843  -1.678   3.570  1.00  0.00    -0.175 N 
ATOM      3  H2  UNL     1      16.463  -1.457   2.650  1.00  0.00     0.186 HD
HETATM    4  C5  UNL     1      16.638  -0.810   4.630  1.00  0.00     0.146 A 
HETATM    5  C6  UNL     1      17.152  -1.167   5.822  1.00  0.00     0.131 A 
HETATM    6  C7  UNL     1      17.888  -2.359   5.975  1.00  0.00     0.154 A 
HETATM    7  N4  UNL     1      18.454  -2.720   7.138  1.00  0.00    -0.313 N 
ATOM      8  H4  UNL     1      18.987  -3.586   7.219  1.00  0.00     0.170 HD
HETATM    9  C8  UNL     1      18.297  -1.915   8.171  1.00  0.00     0.236 A 
HETATM   10  F1  UNL     1      18.862  -2.217   9.376  1.00  0.00    -0.182 F 
HETATM   11  C9  UNL     1      17.581  -0.752   8.095  1.00  0.00     0.186 A 
HETATM   12  N5  UNL     1      17.224   0.137   9.018  1.00  0.00    -0.280 N 
ATOM     13  H5  UNL     1      17.509   0.129   9.997  1.00  0.00     0.188 HD
HETATM   14  N6  UNL     1      16.462   1.004   8.469  1.00  0.00    -0.284 N 
ATOM     15  H6  UNL     1      16.047   1.798   8.957  1.00  0.00     0.188 HD
HETATM   16  C10 UNL     1      16.267   0.718   7.090  1.00  0.00     0.145 A 
HETATM   17  N7  UNL     1      16.994  -0.370   6.914  1.00  0.00    -0.271 N 
HETATM   18  N8  UNL     1      18.053  -3.144   4.910  1.00  0.00    -0.174 N 
ATOM     19  H8  UNL     1      18.582  -4.013   4.993  1.00  0.00     0.186 HD
ENDROOT
BRANCH   1  20
HETATM   20  N1  UNL     1      17.662  -3.567   2.699  1.00  0.00    -0.222 N 
ATOM     21  H1  UNL     1      16.903  -4.197   2.441  1.00  0.00     0.178 HD
BRANCH  20  22
HETATM   22  C2  UNL     1      18.860  -3.536   1.906  1.00  0.00     0.091 C 
HETATM   23  C1  UNL     1      19.297  -4.999   1.726  1.00  0.00     0.032 C 
HETATM   24  C3  UNL     1      18.691  -2.961   0.529  1.00  0.00     0.032 C 
ENDBRANCH  20  22
ENDBRANCH   1  20
BRANCH   4  25
HETATM   25  N3  UNL     1      16.190   0.254   4.248  1.00  0.00    -0.383 N 
ATOM     26  H32 UNL     1      15.401   0.461   3.636  1.00  0.00     0.157 HD
ATOM     27  H31 UNL     1      16.582   1.031   4.780  1.00  0.00     0.157 HD
ENDBRANCH   4  25
BRANCH  16  28
HETATM   28  C11 UNL     1      15.294   1.479   6.334  1.00  0.00     0.156 C 
HETATM   29  C12 UNL     1      14.944   2.615   7.461  1.00  0.00     0.060 C 
HETATM   30  C13 UNL     1      13.844   0.994   6.331  1.00  0.00     0.060 C 
HETATM   31  F2  UNL     1      15.630   2.458   5.468  1.00  0.00    -0.235 F 
ENDBRANCH  16  28
TORSDOF 4
ENDMDL
MODEL 3
REMARK VINA RESULT: -7.646086207      2.075      5.683
REMARK  4 active torsions:
REMARK  status: ('A' for Active; 'I' for Inactive)
REMARK    1  A    between atoms: C2_2  and  N1_4 
REMARK    2  A    between atoms: N1_4  and  C4_6 
REMARK    3  A    between atoms: C5_9  and  N3_10 
REMARK    4  A    between atoms: C10_24  and  C11_25 
ROOT
HETATM    1  C4  UNL     1      17.324  -2.654   3.623  1.00  0.00     0.681 A 
HETATM    2  N2  UNL     1      17.804  -2.998   4.809  1.00  0.00    -0.175 N 
ATOM      3  H2  UNL     1      18.335  -3.862   4.912  1.00  0.00     0.186 HD
HETATM    4  C5  UNL     1      17.586  -2.185   5.909  1.00  0.00     0.146 A 
HETATM    5  C6  UNL     1      16.890  -1.051   5.705  1.00  0.00     0.131 A 
HETATM    6  C7  UNL     1      16.386  -0.721   4.431  1.00  0.00     0.154 A 
HETATM    7  N4  UNL     1      15.648   0.377   4.202  1.00  0.00    -0.313 N 
ATOM      8  H4  UNL     1      15.290   0.589   3.271  1.00  0.00     0.170 HD
HETATM    9  C8  UNL     1      15.402   1.173   5.226  1.00  0.00     0.236 A 
HETATM   10  F1  UNL     1      14.645   2.296   5.063  1.00  0.00    -0.182 F 
HETATM   11  C9  UNL     1      15.876   0.921   6.484  1.00  0.00     0.186 A 
HETATM   12  N5  UNL     1      15.830   1.625   7.612  1.00  0.00    -0.280 N 
ATOM     13  H5  UNL     1      15.333   2.505   7.747  1.00  0.00     0.188 HD
HETATM   14  N6  UNL     1      16.514   1.009   8.499  1.00  0.00    -0.284 N 
ATOM     15  H6  UNL     1      16.642   1.336   9.457  1.00  0.00     0.188 HD
HETATM   16  C10 UNL     1      17.074  -0.189   7.978  1.00  0.00     0.145 A 
HETATM   17  N7  UNL     1      16.633  -0.197   6.733  1.00  0.00    -0.271 N 
HETATM   18  N8  UNL     1      16.627  -1.553   3.417  1.00  0.00    -0.174 N 
ATOM     19  H8  UNL     1      16.273  -1.339   2.484  1.00  0.00     0.186 HD
ENDROOT
BRANCH   1  20
HETATM   20  N1  UNL     1      17.592  -3.470   2.635  1.00  0.00    -0.222 N 
ATOM     21  H1  UNL     1      16.921  -4.197   2.386  1.00  0.00     0.178 HD
BRANCH  20  22
HETATM   22  C2  UNL     1      18.820  -3.356   1.896  1.00  0.00     0.091 C 
HETATM   23  C1  UNL     1      19.403  -4.776   1.803  1.00  0.00     0.032 C 
HETATM   24  C3  UNL     1      18.665  -2.857   0.489  1.00  0.00     0.032 C 
ENDBRANCH  20  22
ENDBRANCH   1  20
BRANCH   4  25
HETATM   25  N3  UNL     1      17.893  -2.750   6.942  1.00  0.00    -0.383 N 
ATOM     26  H32 UNL     1      17.408  -3.474   7.472  1.00  0.00     0.157 HD
ATOM     27  H31 UNL     1      18.867  -2.568   7.186  1.00  0.00     0.157 HD
ENDBRANCH   4  25
BRANCH  16  28
HETATM   28  C11 UNL     1      18.027  -0.936   8.772  1.00  0.00     0.156 C 
HETATM   29  C12 UNL     1      17.838  -0.140  10.192  1.00  0.00     0.060 C 
HETATM   30  C13 UNL     1      19.499  -0.525   8.705  1.00  0.00     0.060 C 
HETATM   31  F2  UNL     1      17.726  -2.094   9.395  1.00  0.00    -0.235 F 
ENDBRANCH  16  28
TORSDOF 4
ENDMDL
MODEL 4
REMARK VINA RESULT: -7.612485823      2.398      5.864
REMARK  4 active torsions:
REMARK  status: ('A' for Active; 'I' for Inactive)
REMARK    1  A    between atoms: C2_2  and  N1_4 
REMARK    2  A    between atoms: N1_4  and  C4_6 
REMARK    3  A    between atoms: C5_9  and  N3_10 
REMARK    4  A    between atoms: C10_24  and  C11_25 
ROOT
HETATM    1  C4  UNL     1      18.625  -3.625   5.057  1.00  0.00     0.681 A 
HETATM    2  N2  UNL     1      17.743  -2.719   4.663  1.00  0.00    -0.175 N 
ATOM      3  H2  UNL     1      17.413  -2.716   3.698  1.00  0.00     0.186 HD
HETATM    4  C5  UNL     1      17.267  -1.775   5.559  1.00  0.00     0.146 A 
HETATM    5  C6  UNL     1      17.731  -1.840   6.821  1.00  0.00     0.131 A 
HETATM    6  C7  UNL     1      18.676  -2.812   7.204  1.00  0.00     0.154 A 
HETATM    7  N4  UNL     1      19.194  -2.875   8.442  1.00  0.00    -0.313 N 
ATOM      8  H4  UNL     1      19.882  -3.586   8.690  1.00  0.00     0.170 HD
HETATM    9  C8  UNL     1      18.781  -1.986   9.324  1.00  0.00     0.236 A 
HETATM   10  F1  UNL     1      19.280  -1.986  10.593  1.00  0.00    -0.182 F 
HETATM   11  C9  UNL     1      17.852  -1.027   9.022  1.00  0.00     0.186 A 
HETATM   12  N5  UNL     1      17.238  -0.115   9.771  1.00  0.00    -0.280 N 
ATOM     13  H5  UNL     1      17.426   0.077  10.754  1.00  0.00     0.188 HD
HETATM   14  N6  UNL     1      16.369   0.481   9.046  1.00  0.00    -0.284 N 
ATOM     15  H6  UNL     1      15.758   1.228   9.377  1.00  0.00     0.188 HD
HETATM   16  C10 UNL     1      16.366  -0.031   7.720  1.00  0.00     0.145 A 
HETATM   17  N7  UNL     1      17.313  -0.951   7.762  1.00  0.00    -0.271 N 
HETATM   18  N8  UNL     1      19.097  -3.686   6.288  1.00  0.00    -0.174 N 
ATOM     19  H8  UNL     1      19.782  -4.399   6.539  1.00  0.00     0.186 HD
ENDROOT
BRANCH   1  20
HETATM   20  N1  UNL     1      19.007  -4.489   4.152  1.00  0.00    -0.222 N 
ATOM     21  H1  UNL     1      18.711  -5.463   4.229  1.00  0.00     0.178 HD
BRANCH  20  22
HETATM   22  C2  UNL     1      19.837  -4.086   3.050  1.00  0.00     0.091 C 
HETATM   23  C1  UNL     1      21.147  -4.879   3.182  1.00  0.00     0.032 C 
HETATM   24  C3  UNL     1      19.277  -4.394   1.692  1.00  0.00     0.032 C 
ENDBRANCH  20  22
ENDBRANCH   1  20
BRANCH   4  25
HETATM   25  N3  UNL     1      16.650  -0.896   4.987  1.00  0.00    -0.383 N 
ATOM     26  H32 UNL     1      16.345   0.021   5.313  1.00  0.00     0.157 HD
ATOM     27  H31 UNL     1      16.603  -1.072   3.983  1.00  0.00     0.157 HD
ENDBRANCH   4  25
BRANCH  16  28
HETATM   28  C11 UNL     1      15.333   0.388   6.795  1.00  0.00     0.156 C 
HETATM   29  C12 UNL     1      14.648   1.561   7.711  1.00  0.00     0.060 C 
HETATM   30  C13 UNL     1      14.022  -0.400   6.774  1.00  0.00     0.060 C 
HETATM   31  F2  UNL     1      15.539   1.290   5.814  1.00  0.00    -0.235 F 
ENDBRANCH  16  28
TORSDOF 4
ENDMDL
MODEL 5
REMARK VINA RESULT: -7.451709286      2.189      5.744
REMARK  4 active torsions:
REMARK  status: ('A' for Active; 'I' for Inactive)
REMARK    1  A    between atoms: C2_2  and  N1_4 
REMARK    2  A    between atoms: N1_4  and  C4_6 
REMARK    3  A    between atoms: C5_9  and  N3_10 
REMARK    4  A    between atoms: C10_24  and  C11_25 
ROOT
HETATM    1  C4  UNL     1      18.476  -3.708   4.884  1.00  0.00     0.681 A 
HETATM    2  N2  UNL     1      18.759  -3.989   6.147  1.00  0.00    -0.175 N 
ATOM      3  H2  UNL     1      19.311  -4.816   6.373  1.00  0.00     0.186 HD
HETATM    4  C5  UNL     1      18.307  -3.159   7.161  1.00  0.00     0.146 A 
HETATM    5  C6  UNL     1      17.597  -2.076   6.796  1.00  0.00     0.131 A 
HETATM    6  C7  UNL     1      17.306  -1.813   5.443  1.00  0.00     0.154 A 
HETATM    7  N4  UNL     1      16.561  -0.768   5.048  1.00  0.00    -0.313 N 
ATOM      8  H4  UNL     1      16.361  -0.605   4.062  1.00  0.00     0.170 HD
HETATM    9  C8  UNL     1      16.097   0.040   5.983  1.00  0.00     0.236 A 
HETATM   10  F1  UNL     1      15.320   1.110   5.649  1.00  0.00    -0.182 F 
HETATM   11  C9  UNL     1      16.356  -0.148   7.313  1.00  0.00     0.186 A 
HETATM   12  N5  UNL     1      16.075   0.583   8.388  1.00  0.00    -0.280 N 
ATOM     13  H5  UNL     1      15.515   1.435   8.401  1.00  0.00     0.188 HD
HETATM   14  N6  UNL     1      16.626   0.035   9.403  1.00  0.00    -0.284 N 
ATOM     15  H6  UNL     1      16.566   0.395  10.356  1.00  0.00     0.188 HD
HETATM   16  C10 UNL     1      17.333  -1.142   9.033  1.00  0.00     0.145 A 
HETATM   17  N7  UNL     1      17.118  -1.211   7.731  1.00  0.00    -0.271 N 
HETATM   18  N8  UNL     1      17.767  -2.657   4.519  1.00  0.00    -0.174 N 
ATOM     19  H8  UNL     1      17.570  -2.491   3.531  1.00  0.00     0.186 HD
ENDROOT
BRANCH   1  20
HETATM   20  N1  UNL     1      18.957  -4.534   3.989  1.00  0.00    -0.222 N 
ATOM     21  H1  UNL     1      18.738  -5.528   4.052  1.00  0.00     0.178 HD
BRANCH  20  22
HETATM   22  C2  UNL     1      19.791  -4.058   2.919  1.00  0.00     0.091 C 
HETATM   23  C1  UNL     1      21.158  -4.737   3.102  1.00  0.00     0.032 C 
HETATM   24  C3  UNL     1      19.311  -4.411   1.541  1.00  0.00     0.032 C 
ENDBRANCH  20  22
ENDBRANCH   1  20
BRANCH   4  25
HETATM   25  N3  UNL     1      18.460  -3.675   8.253  1.00  0.00    -0.383 N 
ATOM     26  H32 UNL     1      17.875  -4.340   8.760  1.00  0.00     0.157 HD
ATOM     27  H31 UNL     1      19.408  -3.530   8.600  1.00  0.00     0.157 HD
ENDBRANCH   4  25
BRANCH  16  28
HETATM   28  C11 UNL     1      18.172  -1.807  10.008  1.00  0.00     0.156 C 
HETATM   29  C12 UNL     1      17.815  -0.879  11.310  1.00  0.00     0.060 C 
HETATM   30  C13 UNL     1      19.645  -1.401  10.087  1.00  0.00     0.060 C 
HETATM   31  F2  UNL     1      17.784  -2.901  10.695  1.00  0.00    -0.235 F 
ENDBRANCH  16  28
TORSDOF 4
ENDMDL
