MODEL 1
REMARK VINA RESULT: -8.763169682      0.000      0.000
REMARK  4 active torsions:
REMARK  status: ('A' for Active; 'I' for Inactive)
REMARK       I    between atoms: C2_2  and  N1_4 
REMARK    1  A    between atoms: C4_6  and  O2_7 
REMARK    2  A    between atoms: O2_7  and  C5_8 
REMARK    3  A    between atoms: C6_11  and  N3_12 
REMARK    4  A    between atoms: C9_20  and  C10_21 
ROOT
HETATM    1  C10 UNL     1      17.982  -2.083   1.134  1.00  0.00     0.197 C 
HETATM    2  F1  UNL     1      17.725  -1.190   2.147  1.00  0.00    -0.194 F 
HETATM    3  C11 UNL     1      18.011  -1.562  -0.233  1.00  0.00     0.130 C 
HETATM    4  N5  UNL     1      18.054  -1.156  -1.312  1.00  0.00    -0.189 NA
ENDROOT
BRANCH   1   5
HETATM    5  C9  UNL     1      18.206  -3.357   1.313  1.00  0.00     0.074 C 
HETATM    6  C8  UNL     1      18.669  -3.997   2.511  1.00  0.00     0.079 C 
HETATM    7  C7  UNL     1      19.687  -4.937   2.311  1.00  0.00     0.273 C 
HETATM    8  C12 UNL     1      18.084  -3.671   3.711  1.00  0.00     0.183 C 
HETATM    9  N4  UNL     1      20.645  -5.203   3.215  1.00  0.00    -0.156 N 
HETATM   10  O3  UNL     1      19.732  -5.574   1.249  1.00  0.00    -0.267 OA
HETATM   11  C6  UNL     1      20.591  -5.105   4.554  1.00  0.00     0.680 C 
ATOM     12  H4  UNL     1      21.535  -5.523   2.832  1.00  0.00     0.187 HD
HETATM   13  N2  UNL     1      19.679  -4.524   5.301  1.00  0.00    -0.168 N 
HETATM   14  C5  UNL     1      18.551  -3.781   5.019  1.00  0.00     0.198 C 
ATOM     15  H2  UNL     1      19.838  -4.648   6.301  1.00  0.00     0.186 HD
HETATM   16  F2  UNL     1      16.825  -3.166   3.649  1.00  0.00    -0.200 F 
BRANCH  11  17
HETATM   17  N3  UNL     1      21.563  -5.658   5.232  1.00  0.00    -0.234 N 
ATOM     18  H32 UNL     1      21.484  -5.649   6.249  1.00  0.00     0.174 HD
ATOM     19  H31 UNL     1      22.309  -6.042   4.652  1.00  0.00     0.174 HD
ENDBRANCH  11  17
BRANCH  14  20
HETATM   20  O2  UNL     1      17.962  -3.197   6.065  1.00  0.00    -0.324 OA
BRANCH  20  21
HETATM   21  C4  UNL     1      17.827  -2.007   6.685  1.00  0.00     0.166 C 
HETATM   22  C3  UNL     1      16.854  -1.073   5.976  1.00  0.00     0.160 C 
HETATM   23  N1  UNL     1      15.968  -1.053   7.100  1.00  0.00    -0.347 N 
HETATM   24  C2  UNL     1      14.776  -0.323   7.388  1.00  0.00     0.215 C 
HETATM   25  C13 UNL     1      16.767  -2.042   7.756  1.00  0.00     0.160 C 
HETATM   26  C1  UNL     1      14.207   0.663   6.419  1.00  0.00     0.117 C 
HETATM   27  O1  UNL     1      14.206  -0.529   8.491  1.00  0.00    -0.274 OA
ENDBRANCH  20  21
ENDBRANCH  14  20
ENDBRANCH   1   5
TORSDOF 4
ENDMDL
MODEL 2
REMARK VINA RESULT: -8.684652728      0.985      1.046
REMARK  4 active torsions:
REMARK  status: ('A' for Active; 'I' for Inactive)
REMARK       I    between atoms: C2_2  and  N1_4 
REMARK    1  A    between atoms: C4_6  and  O2_7 
REMARK    2  A    between atoms: O2_7  and  C5_8 
REMARK    3  A    between atoms: C6_11  and  N3_12 
REMARK    4  A    between atoms: C9_20  and  C10_21 
ROOT
HETATM    1  C10 UNL     1      17.969  -2.071   1.192  1.00  0.00     0.197 C 
HETATM    2  F1  UNL     1      17.735  -1.160   2.194  1.00  0.00    -0.194 F 
HETATM    3  C11 UNL     1      18.003  -1.568  -0.181  1.00  0.00     0.130 C 
HETATM    4  N5  UNL     1      18.051  -1.176  -1.266  1.00  0.00    -0.189 NA
ENDROOT
BRANCH   1   5
HETATM    5  C9  UNL     1      18.165  -3.348   1.386  1.00  0.00     0.074 C 
HETATM    6  C8  UNL     1      18.665  -3.977   2.574  1.00  0.00     0.079 C 
HETATM    7  C7  UNL     1      19.647  -4.949   2.348  1.00  0.00     0.273 C 
HETATM    8  C12 UNL     1      18.143  -3.613   3.793  1.00  0.00     0.183 C 
HETATM    9  N4  UNL     1      20.637  -5.225   3.213  1.00  0.00    -0.156 N 
HETATM   10  O3  UNL     1      19.627  -5.606   1.298  1.00  0.00    -0.267 OA
HETATM   11  C6  UNL     1      20.646  -5.101   4.551  1.00  0.00     0.680 C 
ATOM     12  H4  UNL     1      21.500  -5.577   2.797  1.00  0.00     0.187 HD
HETATM   13  N2  UNL     1      19.785  -4.481   5.327  1.00  0.00    -0.168 N 
HETATM   14  C5  UNL     1      18.666  -3.712   5.080  1.00  0.00     0.198 C 
ATOM     15  H2  UNL     1      19.985  -4.591   6.320  1.00  0.00     0.186 HD
HETATM   16  F2  UNL     1      16.897  -3.075   3.776  1.00  0.00    -0.200 F 
BRANCH  11  17
HETATM   17  N3  UNL     1      21.632  -5.668   5.196  1.00  0.00    -0.234 N 
ATOM     18  H32 UNL     1      21.941  -6.582   4.864  1.00  0.00     0.174 HD
ATOM     19  H31 UNL     1      21.986  -5.120   5.980  1.00  0.00     0.174 HD
ENDBRANCH  11  17
BRANCH  14  20
HETATM   20  O2  UNL     1      18.141  -3.093   6.140  1.00  0.00    -0.324 OA
BRANCH  20  21
HETATM   21  C4  UNL     1      18.050  -1.885   6.731  1.00  0.00     0.166 C 
HETATM   22  C3  UNL     1      16.616  -1.383   6.847  1.00  0.00     0.160 C 
HETATM   23  N1  UNL     1      16.671  -1.384   8.277  1.00  0.00    -0.347 N 
HETATM   24  C2  UNL     1      15.764  -0.948   9.288  1.00  0.00     0.215 C 
HETATM   25  C13 UNL     1      17.966  -1.993   8.233  1.00  0.00     0.160 C 
HETATM   26  C1  UNL     1      14.441  -0.341   8.945  1.00  0.00     0.117 C 
HETATM   27  O1  UNL     1      16.106  -1.084  10.491  1.00  0.00    -0.274 OA
ENDBRANCH  20  21
ENDBRANCH  14  20
ENDBRANCH   1   5
TORSDOF 4
ENDMDL
MODEL 3
REMARK VINA RESULT: -8.364711205      2.640      4.246
REMARK  4 active torsions:
REMARK  status: ('A' for Active; 'I' for Inactive)
REMARK       I    between atoms: C2_2  and  N1_4 
REMARK    1  A    between atoms: C4_6  and  O2_7 
REMARK    2  A    between atoms: O2_7  and  C5_8 
REMARK    3  A    between atoms: C6_11  and  N3_12 
REMARK    4  A    between atoms: C9_20  and  C10_21 
ROOT
HETATM    1  C10 UNL     1      17.523  -2.011   2.392  1.00  0.00     0.197 C 
HETATM    2  F1  UNL     1      17.033  -0.754   2.130  1.00  0.00    -0.194 F 
HETATM    3  C11 UNL     1      18.261  -2.683   1.322  1.00  0.00     0.130 C 
HETATM    4  N5  UNL     1      18.861  -3.212   0.491  1.00  0.00    -0.189 NA
ENDROOT
BRANCH   1   5
HETATM    5  C9  UNL     1      17.377  -2.638   3.528  1.00  0.00     0.074 C 
HETATM    6  C8  UNL     1      17.419  -2.068   4.844  1.00  0.00     0.079 C 
HETATM    7  C7  UNL     1      18.184  -2.792   5.767  1.00  0.00     0.273 C 
HETATM    8  C12 UNL     1      16.710  -0.917   5.097  1.00  0.00     0.183 C 
HETATM    9  N4  UNL     1      18.847  -2.228   6.791  1.00  0.00    -0.156 N 
HETATM   10  O3  UNL     1      18.275  -4.022   5.655  1.00  0.00    -0.267 OA
HETATM   11  C6  UNL     1      18.557  -1.102   7.465  1.00  0.00     0.680 C 
ATOM     12  H4  UNL     1      19.684  -2.723   7.100  1.00  0.00     0.187 HD
HETATM   13  N2  UNL     1      17.693  -0.159   7.161  1.00  0.00    -0.168 N 
HETATM   14  C5  UNL     1      16.868   0.059   6.077  1.00  0.00     0.198 C 
ATOM     15  H2  UNL     1      17.616   0.562   7.877  1.00  0.00     0.186 HD
HETATM   16  F2  UNL     1      15.658  -0.667   4.276  1.00  0.00    -0.200 F 
BRANCH  11  17
HETATM   17  N3  UNL     1      19.204  -0.892   8.582  1.00  0.00    -0.234 N 
ATOM     18  H32 UNL     1      18.718  -0.368   9.310  1.00  0.00     0.174 HD
ATOM     19  H31 UNL     1      20.146  -1.283   8.597  1.00  0.00     0.174 HD
ENDBRANCH  11  17
BRANCH  14  20
HETATM   20  O2  UNL     1      16.252   1.244   6.045  1.00  0.00    -0.324 OA
BRANCH  20  21
HETATM   21  C4  UNL     1      15.180   1.901   6.532  1.00  0.00     0.166 C 
HETATM   22  C3  UNL     1      14.699   3.019   5.615  1.00  0.00     0.160 C 
HETATM   23  N1  UNL     1      13.433   2.382   5.411  1.00  0.00    -0.347 N 
HETATM   24  C2  UNL     1      12.242   2.778   4.733  1.00  0.00     0.215 C 
HETATM   25  C13 UNL     1      13.884   1.238   6.143  1.00  0.00     0.160 C 
HETATM   26  C1  UNL     1      12.133   4.100   4.045  1.00  0.00     0.117 C 
HETATM   27  O1  UNL     1      11.268   1.979   4.729  1.00  0.00    -0.274 OA
ENDBRANCH  20  21
ENDBRANCH  14  20
ENDBRANCH   1   5
TORSDOF 4
ENDMDL
MODEL 4
REMARK VINA RESULT: -8.226227730      3.722      6.276
REMARK  4 active torsions:
REMARK  status: ('A' for Active; 'I' for Inactive)
REMARK       I    between atoms: C2_2  and  N1_4 
REMARK    1  A    between atoms: C4_6  and  O2_7 
REMARK    2  A    between atoms: O2_7  and  C5_8 
REMARK    3  A    between atoms: C6_11  and  N3_12 
REMARK    4  A    between atoms: C9_20  and  C10_21 
ROOT
HETATM    1  C10 UNL     1      16.543  -3.025   8.558  1.00  0.00     0.197 C 
HETATM    2  F1  UNL     1      15.215  -3.337   8.390  1.00  0.00    -0.194 F 
HETATM    3  C11 UNL     1      17.036  -2.893   9.929  1.00  0.00     0.130 C 
HETATM    4  N5  UNL     1      17.437  -2.805  11.007  1.00  0.00    -0.189 NA
ENDROOT
BRANCH   1   5
HETATM    5  C9  UNL     1      17.389  -2.845   7.579  1.00  0.00     0.074 C 
HETATM    6  C8  UNL     1      17.329  -1.842   6.555  1.00  0.00     0.079 C 
HETATM    7  C7  UNL     1      17.575  -2.316   5.261  1.00  0.00     0.273 C 
HETATM    8  C12 UNL     1      17.072  -0.539   6.911  1.00  0.00     0.183 C 
HETATM    9  N4  UNL     1      17.026  -1.787   4.155  1.00  0.00    -0.156 N 
HETATM   10  O3  UNL     1      18.337  -3.279   5.098  1.00  0.00    -0.267 OA
HETATM   11  C6  UNL     1      16.624  -0.523   3.936  1.00  0.00     0.680 C 
ATOM     12  H4  UNL     1      16.897  -2.432   3.375  1.00  0.00     0.187 HD
HETATM   13  N2  UNL     1      16.462   0.452   4.802  1.00  0.00    -0.168 N 
HETATM   14  C5  UNL     1      16.560   0.528   6.176  1.00  0.00     0.198 C 
ATOM     15  H2  UNL     1      16.210   1.339   4.367  1.00  0.00     0.186 HD
HETATM   16  F2  UNL     1      17.373  -0.194   8.189  1.00  0.00    -0.200 F 
BRANCH  11  17
HETATM   17  N3  UNL     1      16.356  -0.189   2.700  1.00  0.00    -0.234 N 
ATOM     18  H32 UNL     1      17.128   0.165   2.135  1.00  0.00     0.174 HD
ATOM     19  H31 UNL     1      15.379  -0.319   2.437  1.00  0.00     0.174 HD
ENDBRANCH  11  17
BRANCH  14  20
HETATM   20  O2  UNL     1      16.140   1.670   6.727  1.00  0.00    -0.324 OA
BRANCH  20  21
HETATM   21  C4  UNL     1      15.027   2.393   6.963  1.00  0.00     0.166 C 
HETATM   22  C3  UNL     1      14.615   3.258   5.778  1.00  0.00     0.160 C 
HETATM   23  N1  UNL     1      13.375   2.560   5.627  1.00  0.00    -0.347 N 
HETATM   24  C2  UNL     1      12.241   2.759   4.785  1.00  0.00     0.215 C 
HETATM   25  C13 UNL     1      13.772   1.625   6.635  1.00  0.00     0.160 C 
HETATM   26  C1  UNL     1      12.181   3.886   3.804  1.00  0.00     0.117 C 
HETATM   27  O1  UNL     1      11.277   1.956   4.887  1.00  0.00    -0.274 OA
ENDBRANCH  20  21
ENDBRANCH  14  20
ENDBRANCH   1   5
TORSDOF 4
ENDMDL
MODEL 5
REMARK VINA RESULT: -8.124548359      3.250      7.282
REMARK  4 active torsions:
REMARK  status: ('A' for Active; 'I' for Inactive)
REMARK       I    between atoms: C2_2  and  N1_4 
REMARK    1  A    between atoms: C4_6  and  O2_7 
REMARK    2  A    between atoms: O2_7  and  C5_8 
REMARK    3  A    between atoms: C6_11  and  N3_12 
REMARK    4  A    between atoms: C9_20  and  C10_21 
ROOT
HETATM    1  C10 UNL     1      15.031  -0.156   8.428  1.00  0.00     0.197 C 
HETATM    2  F1  UNL     1      14.488  -0.959   9.404  1.00  0.00    -0.194 F 
HETATM    3  C11 UNL     1      14.259   0.027   7.199  1.00  0.00     0.130 C 
HETATM    4  N5  UNL     1      13.647   0.192   6.235  1.00  0.00    -0.189 NA
ENDROOT
BRANCH   1   5
HETATM    5  C9  UNL     1      16.183   0.452   8.529  1.00  0.00     0.074 C 
HETATM    6  C8  UNL     1      17.459  -0.146   8.795  1.00  0.00     0.079 C 
HETATM    7  C7  UNL     1      18.227   0.526   9.754  1.00  0.00     0.273 C 
HETATM    8  C12 UNL     1      17.828  -1.273   8.098  1.00  0.00     0.183 C 
HETATM    9  N4  UNL     1      19.099  -0.086  10.574  1.00  0.00    -0.156 N 
HETATM   10  O3  UNL     1      18.116   1.753   9.876  1.00  0.00    -0.267 OA
HETATM   11  C6  UNL     1      19.801  -1.213  10.369  1.00  0.00     0.680 C 
ATOM     12  H4  UNL     1      19.247   0.368  11.476  1.00  0.00     0.187 HD
HETATM   13  N2  UNL     1      19.656  -2.113   9.422  1.00  0.00    -0.168 N 
HETATM   14  C5  UNL     1      18.747  -2.275   8.397  1.00  0.00     0.198 C 
ATOM     15  H2  UNL     1      20.364  -2.846   9.451  1.00  0.00     0.186 HD
HETATM   16  F2  UNL     1      17.221  -1.462   6.899  1.00  0.00    -0.200 F 
BRANCH  11  17
HETATM   17  N3  UNL     1      20.771  -1.473  11.207  1.00  0.00    -0.234 N 
ATOM     18  H32 UNL     1      20.518  -1.925  12.086  1.00  0.00     0.174 HD
ATOM     19  H31 UNL     1      21.692  -1.183  10.880  1.00  0.00     0.174 HD
ENDBRANCH  11  17
BRANCH  14  20
HETATM   20  O2  UNL     1      18.819  -3.433   7.734  1.00  0.00    -0.324 OA
BRANCH  20  21
HETATM   21  C4  UNL     1      18.526  -4.001   6.547  1.00  0.00     0.166 C 
HETATM   22  C3  UNL     1      19.384  -3.470   5.405  1.00  0.00     0.160 C 
HETATM   23  N1  UNL     1      19.966  -4.756   5.170  1.00  0.00    -0.347 N 
HETATM   24  C2  UNL     1      20.856  -5.255   4.173  1.00  0.00     0.215 C 
HETATM   25  C13 UNL     1      19.298  -5.276   6.324  1.00  0.00     0.160 C 
HETATM   26  C1  UNL     1      21.377  -4.381   3.078  1.00  0.00     0.117 C 
HETATM   27  O1  UNL     1      21.196  -6.466   4.233  1.00  0.00    -0.274 OA
ENDBRANCH  20  21
ENDBRANCH  14  20
ENDBRANCH   1   5
TORSDOF 4
ENDMDL
