MODEL 1
REMARK VINA RESULT: -7.855798428      0.000      0.000
REMARK  3 active torsions:
REMARK  status: ('A' for Active; 'I' for Inactive)
REMARK    1  A    between atoms: C2_2  and  N1_5 
REMARK    2  A    between atoms: N1_5  and  C5_7 
REMARK    3  A    between atoms: N4_16  and  C9_17 
ROOT
HETATM    1  C5  UNL     1      19.234  -3.686   4.680  1.00  0.00     0.140 A 
HETATM    2  C6  UNL     1      19.794  -4.912   4.835  1.00  0.00     0.158 A 
HETATM    3  N2  UNL     1      20.377  -5.716   3.786  1.00  0.00    -0.092 NA
HETATM    4  C7  UNL     1      19.871  -5.551   6.086  1.00  0.00     0.277 A 
HETATM    5  O1  UNL     1      20.403  -6.689   6.161  1.00  0.00    -0.266 OA
HETATM    6  N3  UNL     1      19.370  -4.914   7.144  1.00  0.00    -0.274 N 
ATOM      7  H3  UNL     1      19.409  -5.351   8.065  1.00  0.00     0.173 HD
HETATM    8  C8  UNL     1      18.815  -3.706   7.005  1.00  0.00     0.333 A 
HETATM    9  O2  UNL     1      18.355  -3.149   8.055  1.00  0.00    -0.246 OA
HETATM   10  N4  UNL     1      18.739  -3.092   5.815  1.00  0.00    -0.256 N 
ENDROOT
BRANCH  10  11
HETATM   11  C9  UNL     1      18.107  -1.781   5.790  1.00  0.00     0.239 C 
HETATM   12  C10 UNL     1      16.621  -1.814   5.721  1.00  0.00     0.133 C 
HETATM   13  C11 UNL     1      15.906  -1.065   6.812  1.00  0.00     0.249 C 
HETATM   14  F1  UNL     1      15.737  -1.792   7.970  1.00  0.00    -0.206 F 
HETATM   15  F2  UNL     1      14.604  -0.816   6.349  1.00  0.00    -0.206 F 
HETATM   16  C12 UNL     1      16.529   0.306   7.069  1.00  0.00     0.105 C 
HETATM   17  C13 UNL     1      18.039   0.222   6.892  1.00  0.00     0.176 C 
HETATM   18  O3  UNL     1      18.437  -1.128   6.998  1.00  0.00    -0.366 OA
ENDBRANCH  10  11
BRANCH   1  19
HETATM   19  N1  UNL     1      19.133  -3.018   3.470  1.00  0.00    -0.366 N 
ATOM     20  H1  UNL     1      19.850  -2.297   3.394  1.00  0.00     0.162 HD
BRANCH  19  21
HETATM   21  C2  UNL     1      18.324  -3.048   2.309  1.00  0.00     0.021 C 
HETATM   22  C1  UNL     1      17.156  -4.100   2.556  1.00  0.00     0.037 C 
HETATM   23  C3  UNL     1      17.573  -1.811   1.955  1.00  0.00     0.037 C 
HETATM   24  C4  UNL     1      19.006  -3.617   1.096  1.00  0.00     0.037 C 
ENDBRANCH  19  21
ENDBRANCH   1  19
TORSDOF 3
ENDMDL
MODEL 2
REMARK VINA RESULT: -7.721408883      3.611      6.169
REMARK  3 active torsions:
REMARK  status: ('A' for Active; 'I' for Inactive)
REMARK    1  A    between atoms: C2_2  and  N1_5 
REMARK    2  A    between atoms: N1_5  and  C5_7 
REMARK    3  A    between atoms: N4_16  and  C9_17 
ROOT
HETATM    1  C5  UNL     1      17.438  -2.427   4.176  1.00  0.00     0.140 A 
HETATM    2  C6  UNL     1      16.898  -1.334   3.584  1.00  0.00     0.158 A 
HETATM    3  N2  UNL     1      16.093  -0.327   4.236  1.00  0.00    -0.092 NA
HETATM    4  C7  UNL     1      17.077  -1.053   2.217  1.00  0.00     0.277 A 
HETATM    5  O1  UNL     1      16.548  -0.021   1.728  1.00  0.00    -0.266 OA
HETATM    6  N3  UNL     1      17.805  -1.905   1.495  1.00  0.00    -0.274 N 
ATOM      7  H3  UNL     1      17.953  -1.731   0.501  1.00  0.00     0.173 HD
HETATM    8  C8  UNL     1      18.343  -2.987   2.067  1.00  0.00     0.333 A 
HETATM    9  O2  UNL     1      19.029  -3.761   1.323  1.00  0.00    -0.246 OA
HETATM   10  N4  UNL     1      18.176  -3.259   3.369  1.00  0.00    -0.256 N 
ENDROOT
BRANCH  10  11
HETATM   11  C9  UNL     1      18.806  -4.470   3.875  1.00  0.00     0.239 C 
HETATM   12  C10 UNL     1      19.572  -5.238   2.855  1.00  0.00     0.133 C 
HETATM   13  C11 UNL     1      21.012  -5.508   3.197  1.00  0.00     0.249 C 
HETATM   14  F1  UNL     1      21.865  -4.477   2.870  1.00  0.00    -0.206 F 
HETATM   15  F2  UNL     1      21.424  -6.585   2.396  1.00  0.00    -0.206 F 
HETATM   16  C12 UNL     1      21.181  -5.970   4.643  1.00  0.00     0.105 C 
HETATM   17  C13 UNL     1      20.178  -5.246   5.530  1.00  0.00     0.176 C 
HETATM   18  O3  UNL     1      19.735  -4.083   4.865  1.00  0.00    -0.366 OA
ENDBRANCH  10  11
BRANCH   1  19
HETATM   19  N1  UNL     1      17.288  -2.746   5.517  1.00  0.00    -0.366 N 
ATOM     20  H1  UNL     1      16.901  -3.684   5.624  1.00  0.00     0.162 HD
BRANCH  19  21
HETATM   21  C2  UNL     1      17.516  -2.149   6.779  1.00  0.00     0.021 C 
HETATM   22  C1  UNL     1      17.906  -3.303   7.802  1.00  0.00     0.037 C 
HETATM   23  C3  UNL     1      18.663  -1.206   6.905  1.00  0.00     0.037 C 
HETATM   24  C4  UNL     1      16.284  -1.569   7.418  1.00  0.00     0.037 C 
ENDBRANCH  19  21
ENDBRANCH   1  19
TORSDOF 3
ENDMDL
MODEL 3
REMARK VINA RESULT: -7.501295118      3.068      5.151
REMARK  3 active torsions:
REMARK  status: ('A' for Active; 'I' for Inactive)
REMARK    1  A    between atoms: C2_2  and  N1_5 
REMARK    2  A    between atoms: N1_5  and  C5_7 
REMARK    3  A    between atoms: N4_16  and  C9_17 
ROOT
HETATM    1  C5  UNL     1      17.690  -2.205   6.244  1.00  0.00     0.140 A 
HETATM    2  C6  UNL     1      17.316  -2.264   7.546  1.00  0.00     0.158 A 
HETATM    3  N2  UNL     1      16.671  -1.207   8.291  1.00  0.00    -0.092 NA
HETATM    4  C7  UNL     1      17.520  -3.409   8.337  1.00  0.00     0.277 A 
HETATM    5  O1  UNL     1      17.148  -3.398   9.539  1.00  0.00    -0.266 OA
HETATM    6  N3  UNL     1      18.105  -4.464   7.769  1.00  0.00    -0.274 N 
ATOM      7  H3  UNL     1      18.268  -5.309   8.316  1.00  0.00     0.173 HD
HETATM    8  C8  UNL     1      18.480  -4.419   6.487  1.00  0.00     0.333 A 
HETATM    9  O2  UNL     1      19.033  -5.460   6.003  1.00  0.00    -0.246 OA
HETATM   10  N4  UNL     1      18.288  -3.330   5.728  1.00  0.00    -0.256 N 
ENDROOT
BRANCH  10  11
HETATM   11  C9  UNL     1      18.744  -3.401   4.348  1.00  0.00     0.239 C 
HETATM   12  C10 UNL     1      20.212  -3.593   4.193  1.00  0.00     0.133 C 
HETATM   13  C11 UNL     1      20.624  -4.784   3.371  1.00  0.00     0.249 C 
HETATM   14  F1  UNL     1      20.678  -5.961   4.084  1.00  0.00    -0.206 F 
HETATM   15  F2  UNL     1      21.945  -4.552   2.956  1.00  0.00    -0.206 F 
HETATM   16  C12 UNL     1      19.798  -4.912   2.093  1.00  0.00     0.105 C 
HETATM   17  C13 UNL     1      18.366  -4.473   2.364  1.00  0.00     0.176 C 
HETATM   18  O3  UNL     1      18.128  -4.524   3.754  1.00  0.00    -0.366 OA
ENDBRANCH  10  11
BRANCH   1  19
HETATM   19  N1  UNL     1      17.513  -1.100   5.426  1.00  0.00    -0.366 N 
ATOM     20  H1  UNL     1      18.411  -0.736   5.110  1.00  0.00     0.162 HD
BRANCH  19  21
HETATM   21  C2  UNL     1      16.446  -0.330   4.905  1.00  0.00     0.021 C 
HETATM   22  C1  UNL     1      16.522  -0.406   3.317  1.00  0.00     0.037 C 
HETATM   23  C3  UNL     1      15.056  -0.790   5.182  1.00  0.00     0.037 C 
HETATM   24  C4  UNL     1      16.573   1.147   5.153  1.00  0.00     0.037 C 
ENDBRANCH  19  21
ENDBRANCH   1  19
TORSDOF 3
ENDMDL
MODEL 4
REMARK VINA RESULT: -7.429337335      1.008      1.465
REMARK  3 active torsions:
REMARK  status: ('A' for Active; 'I' for Inactive)
REMARK    1  A    between atoms: C2_2  and  N1_5 
REMARK    2  A    between atoms: N1_5  and  C5_7 
REMARK    3  A    between atoms: N4_16  and  C9_17 
ROOT
HETATM    1  C5  UNL     1      18.849  -3.764   4.966  1.00  0.00     0.140 A 
HETATM    2  C6  UNL     1      19.707  -4.798   5.150  1.00  0.00     0.158 A 
HETATM    3  N2  UNL     1      20.587  -5.357   4.150  1.00  0.00    -0.092 NA
HETATM    4  C7  UNL     1      19.839  -5.455   6.386  1.00  0.00     0.277 A 
HETATM    5  O1  UNL     1      20.654  -6.408   6.490  1.00  0.00    -0.266 OA
HETATM    6  N3  UNL     1      19.083  -5.034   7.401  1.00  0.00    -0.274 N 
ATOM      7  H3  UNL     1      19.154  -5.491   8.310  1.00  0.00     0.173 HD
HETATM    8  C8  UNL     1      18.233  -4.017   7.233  1.00  0.00     0.333 A 
HETATM    9  O2  UNL     1      17.539  -3.662   8.241  1.00  0.00    -0.246 OA
HETATM   10  N4  UNL     1      18.103  -3.386   6.056  1.00  0.00    -0.256 N 
ENDROOT
BRANCH  10  11
HETATM   11  C9  UNL     1      17.140  -2.297   5.996  1.00  0.00     0.239 C 
HETATM   12  C10 UNL     1      16.500  -1.968   7.299  1.00  0.00     0.133 C 
HETATM   13  C11 UNL     1      16.631  -0.535   7.740  1.00  0.00     0.249 C 
HETATM   14  F1  UNL     1      17.809  -0.261   8.399  1.00  0.00    -0.206 F 
HETATM   15  F2  UNL     1      15.624  -0.309   8.691  1.00  0.00    -0.206 F 
HETATM   16  C12 UNL     1      16.359   0.443   6.598  1.00  0.00     0.105 C 
HETATM   17  C13 UNL     1      16.885  -0.136   5.293  1.00  0.00     0.176 C 
HETATM   18  O3  UNL     1      17.835  -1.138   5.587  1.00  0.00    -0.366 OA
ENDBRANCH  10  11
BRANCH   1  19
HETATM   19  N1  UNL     1      18.683  -3.087   3.768  1.00  0.00    -0.366 N 
ATOM     20  H1  UNL     1      19.196  -2.206   3.776  1.00  0.00     0.162 HD
BRANCH  19  21
HETATM   21  C2  UNL     1      18.008  -3.265   2.537  1.00  0.00     0.021 C 
HETATM   22  C1  UNL     1      19.084  -3.704   1.450  1.00  0.00     0.037 C 
HETATM   23  C3  UNL     1      16.999  -4.358   2.449  1.00  0.00     0.037 C 
HETATM   24  C4  UNL     1      17.465  -1.995   1.943  1.00  0.00     0.037 C 
ENDBRANCH  19  21
ENDBRANCH   1  19
TORSDOF 3
ENDMDL
MODEL 5
REMARK VINA RESULT: -7.259822435      2.429      4.134
REMARK  3 active torsions:
REMARK  status: ('A' for Active; 'I' for Inactive)
REMARK    1  A    between atoms: C2_2  and  N1_5 
REMARK    2  A    between atoms: N1_5  and  C5_7 
REMARK    3  A    between atoms: N4_16  and  C9_17 
ROOT
HETATM    1  C5  UNL     1      18.065  -3.130   3.818  1.00  0.00     0.140 A 
HETATM    2  C6  UNL     1      17.848  -2.539   2.616  1.00  0.00     0.158 A 
HETATM    3  N2  UNL     1      18.258  -3.057   1.331  1.00  0.00    -0.092 NA
HETATM    4  C7  UNL     1      17.170  -1.313   2.492  1.00  0.00     0.277 A 
HETATM    5  O1  UNL     1      17.002  -0.819   1.347  1.00  0.00    -0.266 OA
HETATM    6  N3  UNL     1      16.733  -0.726   3.606  1.00  0.00    -0.274 N 
ATOM      7  H3  UNL     1      16.239   0.165   3.550  1.00  0.00     0.173 HD
HETATM    8  C8  UNL     1      16.941  -1.296   4.797  1.00  0.00     0.333 A 
HETATM    9  O2  UNL     1      16.498  -0.685   5.823  1.00  0.00    -0.246 OA
HETATM   10  N4  UNL     1      17.587  -2.465   4.921  1.00  0.00    -0.256 N 
ENDROOT
BRANCH  10  11
HETATM   11  C9  UNL     1      17.756  -2.983   6.271  1.00  0.00     0.239 C 
HETATM   12  C10 UNL     1      18.945  -2.451   6.991  1.00  0.00     0.133 C 
HETATM   13  C11 UNL     1      18.660  -1.802   8.318  1.00  0.00     0.249 C 
HETATM   14  F1  UNL     1      18.289  -0.479   8.223  1.00  0.00    -0.206 F 
HETATM   15  F2  UNL     1      19.869  -1.788   9.031  1.00  0.00    -0.206 F 
HETATM   16  C12 UNL     1      17.685  -2.624   9.160  1.00  0.00     0.105 C 
HETATM   17  C13 UNL     1      16.654  -3.280   8.252  1.00  0.00     0.176 C 
HETATM   18  O3  UNL     1      16.625  -2.591   7.020  1.00  0.00    -0.366 OA
ENDBRANCH  10  11
BRANCH   1  19
HETATM   19  N1  UNL     1      18.729  -4.334   3.991  1.00  0.00    -0.366 N 
ATOM     20  H1  UNL     1      18.067  -5.091   4.163  1.00  0.00     0.162 HD
BRANCH  19  21
HETATM   21  C2  UNL     1      20.059  -4.818   3.997  1.00  0.00     0.021 C 
HETATM   22  C1  UNL     1      20.263  -5.700   2.688  1.00  0.00     0.037 C 
HETATM   23  C3  UNL     1      21.161  -3.821   3.888  1.00  0.00     0.037 C 
HETATM   24  C4  UNL     1      20.349  -5.809   5.090  1.00  0.00     0.037 C 
ENDBRANCH  19  21
ENDBRANCH   1  19
TORSDOF 3
ENDMDL
