MODEL 1
REMARK VINA RESULT: -7.768746136      0.000      0.000
REMARK  3 active torsions:
REMARK  status: ('A' for Active; 'I' for Inactive)
REMARK    1  A    between atoms: C5_11  and  C6_12 
REMARK    2  A    between atoms: C6_12  and  C7_14 
REMARK    3  A    between atoms: C12_23  and  O4_24 
ROOT
HETATM    1  C6  UNL     1      16.999  -1.819   7.011  1.00  0.00     0.204 C 
HETATM    2  O2  UNL     1      16.166  -2.330   7.785  1.00  0.00    -0.286 OA
ENDROOT
BRANCH   1   3
HETATM    3  C5  UNL     1      17.127  -0.384   7.075  1.00  0.00     0.075 A 
HETATM    4  C2  UNL     1      16.144   0.346   6.396  1.00  0.00     0.027 A 
HETATM    5  C1  UNL     1      14.950  -0.413   5.807  1.00  0.00     0.069 C 
HETATM    6  N1  UNL     1      16.234   1.656   6.359  1.00  0.00    -0.312 N 
HETATM    7  C3  UNL     1      17.270   2.268   6.981  1.00  0.00     0.325 A 
ATOM      8  H1  UNL     1      15.530   2.207   5.867  1.00  0.00     0.170 HD
HETATM    9  O1  UNL     1      17.360   3.503   6.943  1.00  0.00    -0.247 OA
HETATM   10  N2  UNL     1      18.217   1.594   7.636  1.00  0.00    -0.298 N 
HETATM   11  C4  UNL     1      18.164   0.260   7.700  1.00  0.00     0.120 A 
ATOM     12  H2  UNL     1      18.981   2.097   8.087  1.00  0.00     0.171 HD
HETATM   13  S1  UNL     1      19.308  -0.531   8.606  1.00  0.00    -0.059 SA
ENDBRANCH   1   3
BRANCH   1  14
HETATM   14  C7  UNL     1      17.770  -2.669   6.096  1.00  0.00     0.108 A 
HETATM   15  C8  UNL     1      17.840  -2.556   4.726  1.00  0.00     0.179 A 
HETATM   16  F1  UNL     1      17.095  -1.640   4.080  1.00  0.00    -0.201 F 
HETATM   17  C9  UNL     1      18.609  -3.435   3.961  1.00  0.00     0.223 A 
HETATM   18  F2  UNL     1      18.681  -3.234   2.631  1.00  0.00    -0.197 F 
HETATM   19  C10 UNL     1      19.314  -4.433   4.573  1.00  0.00     0.291 A 
HETATM   20  O3  UNL     1      20.054  -5.233   3.891  1.00  0.00    -0.264 OA
HETATM   21  N3  UNL     1      19.272  -4.578   5.901  1.00  0.00    -0.296 N 
HETATM   22  C11 UNL     1      19.928  -5.652   6.602  1.00  0.00     0.162 C 
HETATM   23  C12 UNL     1      18.514  -3.714   6.650  1.00  0.00     0.162 A 
BRANCH  23  24
HETATM   24  O4  UNL     1      18.468  -3.891   8.023  1.00  0.00    -0.345 OA
ATOM     25  H4  UNL     1      19.126  -4.446   8.426  1.00  0.00     0.219 HD
ENDBRANCH  23  24
ENDBRANCH   1  14
TORSDOF 3
ENDMDL
MODEL 2
REMARK VINA RESULT: -7.540954398      1.235      1.879
REMARK  3 active torsions:
REMARK  status: ('A' for Active; 'I' for Inactive)
REMARK    1  A    between atoms: C5_11  and  C6_12 
REMARK    2  A    between atoms: C6_12  and  C7_14 
REMARK    3  A    between atoms: C12_23  and  O4_24 
ROOT
HETATM    1  C6  UNL     1      17.064  -1.848   6.829  1.00  0.00     0.204 C 
HETATM    2  O2  UNL     1      16.284  -2.336   7.671  1.00  0.00    -0.286 OA
ENDROOT
BRANCH   1   3
HETATM    3  C5  UNL     1      17.112  -0.408   6.769  1.00  0.00     0.075 A 
HETATM    4  C2  UNL     1      18.146   0.197   7.494  1.00  0.00     0.027 A 
HETATM    5  C1  UNL     1      19.214  -0.701   8.127  1.00  0.00     0.069 C 
HETATM    6  N1  UNL     1      18.212   1.508   7.536  1.00  0.00    -0.312 N 
HETATM    7  C3  UNL     1      17.284   2.242   6.876  1.00  0.00     0.325 A 
ATOM      8  H1  UNL     1      18.955   1.970   8.060  1.00  0.00     0.170 HD
HETATM    9  O1  UNL     1      17.341   3.478   6.919  1.00  0.00    -0.247 OA
HETATM   10  N2  UNL     1      16.292   1.687   6.177  1.00  0.00    -0.298 N 
HETATM   11  C4  UNL     1      16.187   0.356   6.106  1.00  0.00     0.120 A 
ATOM     12  H2  UNL     1      15.613   2.279   5.698  1.00  0.00     0.171 HD
HETATM   13  S1  UNL     1      14.995  -0.290   5.147  1.00  0.00    -0.059 SA
ENDBRANCH   1   3
BRANCH   1  14
HETATM   14  C7  UNL     1      17.854  -2.730   5.961  1.00  0.00     0.108 A 
HETATM   15  C8  UNL     1      17.968  -2.654   4.592  1.00  0.00     0.179 A 
HETATM   16  F1  UNL     1      17.253  -1.747   3.899  1.00  0.00    -0.201 F 
HETATM   17  C9  UNL     1      18.750  -3.560   3.874  1.00  0.00     0.223 A 
HETATM   18  F2  UNL     1      18.866  -3.395   2.543  1.00  0.00    -0.197 F 
HETATM   19  C10 UNL     1      19.425  -4.549   4.534  1.00  0.00     0.291 A 
HETATM   20  O3  UNL     1      20.176  -5.375   3.897  1.00  0.00    -0.264 OA
HETATM   21  N3  UNL     1      19.339  -4.659   5.864  1.00  0.00    -0.296 N 
HETATM   22  C11 UNL     1      19.960  -5.721   6.613  1.00  0.00     0.162 C 
HETATM   23  C12 UNL     1      18.568  -3.768   6.566  1.00  0.00     0.162 A 
BRANCH  23  24
HETATM   24  O4  UNL     1      18.476  -3.909   7.941  1.00  0.00    -0.345 OA
ATOM     25  H4  UNL     1      18.647  -3.145   8.481  1.00  0.00     0.219 HD
ENDBRANCH  23  24
ENDBRANCH   1  14
TORSDOF 3
ENDMDL
MODEL 3
REMARK VINA RESULT: -7.352024800      5.007      7.148
REMARK  3 active torsions:
REMARK  status: ('A' for Active; 'I' for Inactive)
REMARK    1  A    between atoms: C5_11  and  C6_12 
REMARK    2  A    between atoms: C6_12  and  C7_14 
REMARK    3  A    between atoms: C12_23  and  O4_24 
ROOT
HETATM    1  C6  UNL     1      12.495   2.630   4.454  1.00  0.00     0.204 C 
HETATM    2  O2  UNL     1      11.315   2.402   4.789  1.00  0.00    -0.286 OA
ENDROOT
BRANCH   1   3
HETATM    3  C5  UNL     1      12.677   3.549   3.358  1.00  0.00     0.075 A 
HETATM    4  C2  UNL     1      12.427   3.031   2.082  1.00  0.00     0.027 A 
HETATM    5  C1  UNL     1      11.829   1.625   1.970  1.00  0.00     0.069 C 
HETATM    6  N1  UNL     1      12.635   3.795   1.033  1.00  0.00    -0.312 N 
HETATM    7  C3  UNL     1      13.080   5.062   1.210  1.00  0.00     0.325 A 
ATOM      8  H1  UNL     1      12.462   3.437   0.093  1.00  0.00     0.170 HD
HETATM    9  O1  UNL     1      13.281   5.781   0.223  1.00  0.00    -0.247 OA
HETATM   10  N2  UNL     1      13.322   5.577   2.417  1.00  0.00    -0.298 N 
HETATM   11  C4  UNL     1      13.124   4.837   3.513  1.00  0.00     0.120 A 
ATOM     12  H2  UNL     1      13.659   6.536   2.504  1.00  0.00     0.171 HD
HETATM   13  S1  UNL     1      13.345   5.549   4.996  1.00  0.00    -0.059 SA
ENDBRANCH   1   3
BRANCH   1  14
HETATM   14  C7  UNL     1      13.599   1.965   5.157  1.00  0.00     0.108 A 
HETATM   15  C8  UNL     1      14.449   1.013   4.643  1.00  0.00     0.179 A 
HETATM   16  F1  UNL     1      14.266   0.539   3.396  1.00  0.00    -0.201 F 
HETATM   17  C9  UNL     1      15.463   0.447   5.417  1.00  0.00     0.223 A 
HETATM   18  F2  UNL     1      16.298  -0.437   4.837  1.00  0.00    -0.197 F 
HETATM   19  C10 UNL     1      15.628   0.840   6.716  1.00  0.00     0.291 A 
HETATM   20  O3  UNL     1      16.575   0.356   7.438  1.00  0.00    -0.264 OA
HETATM   21  N3  UNL     1      14.822   1.761   7.255  1.00  0.00    -0.296 N 
HETATM   22  C11 UNL     1      14.891   2.165   8.635  1.00  0.00     0.162 C 
HETATM   23  C12 UNL     1      13.825   2.314   6.491  1.00  0.00     0.162 A 
BRANCH  23  24
HETATM   24  O4  UNL     1      12.988   3.253   7.071  1.00  0.00    -0.345 OA
ATOM     25  H4  UNL     1      12.814   3.183   8.003  1.00  0.00     0.219 HD
ENDBRANCH  23  24
ENDBRANCH   1  14
TORSDOF 3
ENDMDL
MODEL 4
REMARK VINA RESULT: -7.088530541      3.377      5.242
REMARK  3 active torsions:
REMARK  status: ('A' for Active; 'I' for Inactive)
REMARK    1  A    between atoms: C5_11  and  C6_12 
REMARK    2  A    between atoms: C6_12  and  C7_14 
REMARK    3  A    between atoms: C12_23  and  O4_24 
ROOT
HETATM    1  C6  UNL     1      16.117  -0.845   8.763  1.00  0.00     0.204 C 
HETATM    2  O2  UNL     1      15.281  -0.994   9.677  1.00  0.00    -0.286 OA
ENDROOT
BRANCH   1   3
HETATM    3  C5  UNL     1      17.499  -1.028   9.131  1.00  0.00     0.075 A 
HETATM    4  C2  UNL     1      17.897  -2.350   9.365  1.00  0.00     0.027 A 
HETATM    5  C1  UNL     1      16.907  -3.475   9.047  1.00  0.00     0.069 C 
HETATM    6  N1  UNL     1      19.126  -2.584   9.766  1.00  0.00    -0.312 N 
HETATM    7  C3  UNL     1      19.978  -1.544   9.940  1.00  0.00     0.325 A 
ATOM      8  H1  UNL     1      19.436  -3.539   9.946  1.00  0.00     0.170 HD
HETATM    9  O1  UNL     1      21.135  -1.762  10.323  1.00  0.00    -0.247 OA
HETATM   10  N2  UNL     1      19.621  -0.277   9.721  1.00  0.00    -0.298 N 
HETATM   11  C4  UNL     1      18.381   0.007   9.310  1.00  0.00     0.120 A 
ATOM     12  H2  UNL     1      20.295   0.475   9.867  1.00  0.00     0.171 HD
HETATM   13  S1  UNL     1      18.011   1.586   8.957  1.00  0.00    -0.059 SA
ENDBRANCH   1   3
BRANCH   1  14
HETATM   14  C7  UNL     1      15.671  -0.489   7.410  1.00  0.00     0.108 A 
HETATM   15  C8  UNL     1      16.085  -1.058   6.228  1.00  0.00     0.179 A 
HETATM   16  F1  UNL     1      17.052  -1.996   6.227  1.00  0.00    -0.201 F 
HETATM   17  C9  UNL     1      15.589  -0.626   4.998  1.00  0.00     0.223 A 
HETATM   18  F2  UNL     1      15.992  -1.264   3.882  1.00  0.00    -0.197 F 
HETATM   19  C10 UNL     1      14.667   0.383   4.951  1.00  0.00     0.291 A 
HETATM   20  O3  UNL     1      14.173   0.775   3.831  1.00  0.00    -0.264 OA
HETATM   21  N3  UNL     1      14.240   0.964   6.076  1.00  0.00    -0.296 N 
HETATM   22  C11 UNL     1      13.331   2.081   6.096  1.00  0.00     0.162 C 
HETATM   23  C12 UNL     1      14.732   0.539   7.284  1.00  0.00     0.162 A 
BRANCH  23  24
HETATM   24  O4  UNL     1      14.291   1.164   8.439  1.00  0.00    -0.345 OA
ATOM     25  H4  UNL     1      13.815   1.983   8.351  1.00  0.00     0.219 HD
ENDBRANCH  23  24
ENDBRANCH   1  14
TORSDOF 3
ENDMDL
MODEL 5
REMARK VINA RESULT: -7.072134430      1.577      1.810
REMARK  3 active torsions:
REMARK  status: ('A' for Active; 'I' for Inactive)
REMARK    1  A    between atoms: C5_11  and  C6_12 
REMARK    2  A    between atoms: C6_12  and  C7_14 
REMARK    3  A    between atoms: C12_23  and  O4_24 
ROOT
HETATM    1  C6  UNL     1      16.421  -0.945   5.917  1.00  0.00     0.204 C 
HETATM    2  O2  UNL     1      15.636  -1.562   6.664  1.00  0.00    -0.286 OA
ENDROOT
BRANCH   1   3
HETATM    3  C5  UNL     1      16.658   0.438   6.252  1.00  0.00     0.075 A 
HETATM    4  C2  UNL     1      15.693   1.347   5.804  1.00  0.00     0.027 A 
HETATM    5  C1  UNL     1      14.412   0.796   5.168  1.00  0.00     0.069 C 
HETATM    6  N1  UNL     1      15.878   2.630   6.019  1.00  0.00    -0.312 N 
HETATM    7  C3  UNL     1      16.993   3.041   6.670  1.00  0.00     0.325 A 
ATOM      8  H1  UNL     1      15.189   3.311   5.698  1.00  0.00     0.170 HD
HETATM    9  O1  UNL     1      17.172   4.250   6.868  1.00  0.00    -0.247 OA
HETATM   10  N2  UNL     1      17.925   2.192   7.108  1.00  0.00    -0.298 N 
HETATM   11  C4  UNL     1      17.777   0.878   6.913  1.00  0.00     0.120 A 
ATOM     12  H2  UNL     1      18.750   2.547   7.591  1.00  0.00     0.171 HD
HETATM   13  S1  UNL     1      18.911  -0.147   7.559  1.00  0.00    -0.059 SA
ENDBRANCH   1   3
BRANCH   1  14
HETATM   14  C7  UNL     1      17.030  -1.625   4.768  1.00  0.00     0.108 A 
HETATM   15  C8  UNL     1      16.903  -1.278   3.442  1.00  0.00     0.179 A 
HETATM   16  F1  UNL     1      16.095  -0.265   3.078  1.00  0.00    -0.201 F 
HETATM   17  C9  UNL     1      17.531  -2.013   2.435  1.00  0.00     0.223 A 
HETATM   18  F2  UNL     1      17.415  -1.586   1.162  1.00  0.00    -0.197 F 
HETATM   19  C10 UNL     1      18.293  -3.101   2.758  1.00  0.00     0.291 A 
HETATM   20  O3  UNL     1      18.906  -3.772   1.849  1.00  0.00    -0.264 OA
HETATM   21  N3  UNL     1      18.439  -3.472   4.033  1.00  0.00    -0.296 N 
HETATM   22  C11 UNL     1      19.163  -4.649   4.438  1.00  0.00     0.162 C 
HETATM   23  C12 UNL     1      17.820  -2.750   5.022  1.00  0.00     0.162 A 
BRANCH  23  24
HETATM   24  O4  UNL     1      17.968  -3.160   6.336  1.00  0.00    -0.345 OA
ATOM     25  H4  UNL     1      17.766  -2.537   7.025  1.00  0.00     0.219 HD
ENDBRANCH  23  24
ENDBRANCH   1  14
TORSDOF 3
ENDMDL
