MODEL 1
REMARK VINA RESULT: -7.730069719      0.000      0.000
REMARK  2 active torsions:
REMARK  status: ('A' for Active; 'I' for Inactive)
REMARK    1  A    between atoms: O1_2  and  C2_3 
REMARK    2  A    between atoms: C4_6  and  C5_7 
ROOT
HETATM    1  C2  UNL     1      16.633  -1.088   6.045  1.00  0.00     0.128 A 
HETATM    2  C3  UNL     1      17.204  -1.725   4.964  1.00  0.00     0.168 A 
HETATM    3  F1  UNL     1      16.976  -1.191   3.748  1.00  0.00    -0.202 F 
HETATM    4  C4  UNL     1      17.970  -2.858   5.111  1.00  0.00     0.093 A 
HETATM    5  C6  UNL     1      18.156  -3.350   6.381  1.00  0.00     0.162 A 
HETATM    6  F2  UNL     1      18.921  -4.481   6.516  1.00  0.00    -0.203 F 
HETATM    7  C7  UNL     1      17.599  -2.746   7.517  1.00  0.00     0.110 A 
HETATM    8  C8  UNL     1      16.846  -1.617   7.297  1.00  0.00     0.089 A 
HETATM    9  S2  UNL     1      16.100  -0.787   8.717  1.00  0.00     0.007 SA
HETATM   10  N3  UNL     1      16.560  -1.706  10.141  1.00  0.00    -0.160 N 
ATOM     11  H3  UNL     1      16.246  -1.416  11.067  1.00  0.00     0.193 HD
HETATM   12  C9  UNL     1      17.365  -2.843   9.988  1.00  0.00     0.682 A 
HETATM   13  N4  UNL     1      17.690  -3.504  11.063  1.00  0.00    -0.234 N 
ATOM     14  H41 UNL     1      18.276  -4.331  10.952  1.00  0.00     0.174 HD
ATOM     15  H42 UNL     1      17.335  -3.146  11.949  1.00  0.00     0.174 HD
HETATM   16  N5  UNL     1      17.856  -3.337   8.767  1.00  0.00    -0.187 N 
ATOM     17  H5  UNL     1      18.434  -4.176   8.790  1.00  0.00     0.184 HD
ENDROOT
BRANCH   4  18
HETATM   18  C5  UNL     1      18.600  -3.554   3.965  1.00  0.00     0.152 C 
HETATM   19  N1  UNL     1      17.854  -4.239   3.131  1.00  0.00    -0.265 N 
HETATM   20  S1  UNL     1      19.032  -4.866   1.973  1.00  0.00     0.287 S 
ATOM     21  H1  UNL     1      16.844  -4.375   3.146  1.00  0.00     0.180 HD
HETATM   22  O2  UNL     1      19.240  -3.805   0.876  1.00  0.00    -0.202 OA
HETATM   23  O3  UNL     1      20.393  -4.691   3.034  1.00  0.00    -0.153 OA
HETATM   24  N2  UNL     1      19.953  -3.558   3.669  1.00  0.00    -0.232 N 
ATOM     25  H2  UNL     1      20.572  -2.781   3.903  1.00  0.00     0.197 HD
ENDBRANCH   4  18
BRANCH   1  26
HETATM   26  O1  UNL     1      15.862   0.056   5.882  1.00  0.00    -0.351 OA
HETATM   27  C1  UNL     1      16.444   1.325   5.637  1.00  0.00     0.210 C 
ENDBRANCH   1  26
TORSDOF 2
ENDMDL
MODEL 2
REMARK VINA RESULT: -7.539602263      2.502      5.720
REMARK  2 active torsions:
REMARK  status: ('A' for Active; 'I' for Inactive)
REMARK    1  A    between atoms: O1_2  and  C2_3 
REMARK    2  A    between atoms: C4_6  and  C5_7 
ROOT
HETATM    1  C2  UNL     1      17.630  -2.743   2.872  1.00  0.00     0.128 A 
HETATM    2  C3  UNL     1      17.005  -1.860   3.726  1.00  0.00     0.168 A 
HETATM    3  F1  UNL     1      16.085  -1.037   3.188  1.00  0.00    -0.202 F 
HETATM    4  C4  UNL     1      17.306  -1.812   5.067  1.00  0.00     0.093 A 
HETATM    5  C6  UNL     1      18.260  -2.679   5.545  1.00  0.00     0.162 A 
HETATM    6  F2  UNL     1      18.552  -2.621   6.885  1.00  0.00    -0.203 F 
HETATM    7  C7  UNL     1      18.929  -3.597   4.725  1.00  0.00     0.110 A 
HETATM    8  C8  UNL     1      18.579  -3.591   3.395  1.00  0.00     0.089 A 
HETATM    9  S2  UNL     1      19.401  -4.751   2.281  1.00  0.00     0.007 SA
HETATM   10  N3  UNL     1      20.536  -5.671   3.255  1.00  0.00    -0.160 N 
ATOM     11  H3  UNL     1      21.118  -6.391   2.827  1.00  0.00     0.193 HD
HETATM   12  C9  UNL     1      20.633  -5.402   4.626  1.00  0.00     0.682 A 
HETATM   13  N4  UNL     1      21.485  -6.101   5.323  1.00  0.00    -0.234 N 
ATOM     14  H41 UNL     1      21.555  -5.905   6.321  1.00  0.00     0.174 HD
ATOM     15  H42 UNL     1      22.026  -6.802   4.818  1.00  0.00     0.174 HD
HETATM   16  N5  UNL     1      19.887  -4.436   5.323  1.00  0.00    -0.187 N 
ATOM     17  H5  UNL     1      20.050  -4.336   6.324  1.00  0.00     0.184 HD
ENDROOT
BRANCH   4  18
HETATM   18  C5  UNL     1      16.642  -0.877   6.005  1.00  0.00     0.152 C 
HETATM   19  N1  UNL     1      16.948   0.399   5.977  1.00  0.00    -0.265 N 
HETATM   20  S1  UNL     1      15.924   1.078   7.246  1.00  0.00     0.287 S 
ATOM     21  H1  UNL     1      17.613   0.879   5.371  1.00  0.00     0.180 HD
HETATM   22  O2  UNL     1      14.555   1.420   6.627  1.00  0.00    -0.202 OA
HETATM   23  O3  UNL     1      15.684  -0.430   8.068  1.00  0.00    -0.153 OA
HETATM   24  N2  UNL     1      15.688  -1.222   6.949  1.00  0.00    -0.232 N 
ATOM     25  H2  UNL     1      15.043  -2.002   6.821  1.00  0.00     0.197 HD
ENDBRANCH   4  18
BRANCH   1  26
HETATM   26  O1  UNL     1      17.316  -2.782   1.518  1.00  0.00    -0.351 OA
HETATM   27  C1  UNL     1      17.853  -1.849   0.596  1.00  0.00     0.210 C 
ENDBRANCH   1  26
TORSDOF 2
ENDMDL
MODEL 3
REMARK VINA RESULT: -7.528253742      0.717      1.248
REMARK  2 active torsions:
REMARK  status: ('A' for Active; 'I' for Inactive)
REMARK    1  A    between atoms: O1_2  and  C2_3 
REMARK    2  A    between atoms: C4_6  and  C5_7 
ROOT
HETATM    1  C2  UNL     1      16.725  -1.337   6.114  1.00  0.00     0.128 A 
HETATM    2  C3  UNL     1      17.394  -1.998   5.106  1.00  0.00     0.168 A 
HETATM    3  F1  UNL     1      17.203  -1.553   3.849  1.00  0.00    -0.202 F 
HETATM    4  C4  UNL     1      18.218  -3.069   5.364  1.00  0.00     0.093 A 
HETATM    5  C6  UNL     1      18.361  -3.472   6.670  1.00  0.00     0.162 A 
HETATM    6  F2  UNL     1      19.186  -4.542   6.915  1.00  0.00    -0.203 F 
HETATM    7  C7  UNL     1      17.706  -2.839   7.735  1.00  0.00     0.110 A 
HETATM    8  C8  UNL     1      16.899  -1.776   7.406  1.00  0.00     0.089 A 
HETATM    9  S2  UNL     1      16.025  -0.913   8.730  1.00  0.00     0.007 SA
HETATM   10  N3  UNL     1      16.459  -1.715  10.231  1.00  0.00    -0.160 N 
ATOM     11  H3  UNL     1      16.076  -1.391  11.119  1.00  0.00     0.193 HD
HETATM   12  C9  UNL     1      17.339  -2.804  10.192  1.00  0.00     0.682 A 
HETATM   13  N4  UNL     1      17.643  -3.379  11.322  1.00  0.00    -0.234 N 
ATOM     14  H41 UNL     1      18.283  -4.171  11.294  1.00  0.00     0.174 HD
ATOM     15  H42 UNL     1      17.217  -2.992  12.164  1.00  0.00     0.174 HD
HETATM   16  N5  UNL     1      17.927  -3.337   9.032  1.00  0.00    -0.187 N 
ATOM     17  H5  UNL     1      18.553  -4.135   9.137  1.00  0.00     0.184 HD
ENDROOT
BRANCH   4  18
HETATM   18  C5  UNL     1      18.953  -3.791   4.299  1.00  0.00     0.152 C 
HETATM   19  N1  UNL     1      20.257  -3.673   4.215  1.00  0.00    -0.265 N 
HETATM   20  S1  UNL     1      20.656  -4.690   2.826  1.00  0.00     0.287 S 
ATOM     21  H1  UNL     1      20.886  -3.129   4.806  1.00  0.00     0.180 HD
HETATM   22  O2  UNL     1      20.846  -6.135   3.327  1.00  0.00    -0.202 OA
HETATM   23  O3  UNL     1      19.060  -4.652   2.149  1.00  0.00    -0.153 OA
HETATM   24  N2  UNL     1      18.384  -4.615   3.342  1.00  0.00    -0.232 N 
ATOM     25  H2  UNL     1      17.532  -5.150   3.510  1.00  0.00     0.197 HD
ENDBRANCH   4  18
BRANCH   1  26
HETATM   26  O1  UNL     1      15.896  -0.256   5.839  1.00  0.00    -0.351 OA
HETATM   27  C1  UNL     1      16.413   1.028   5.535  1.00  0.00     0.210 C 
ENDBRANCH   1  26
TORSDOF 2
ENDMDL
MODEL 4
REMARK VINA RESULT: -7.476685068      2.310      6.720
REMARK  2 active torsions:
REMARK  status: ('A' for Active; 'I' for Inactive)
REMARK    1  A    between atoms: O1_2  and  C2_3 
REMARK    2  A    between atoms: C4_6  and  C5_7 
ROOT
HETATM    1  C2  UNL     1      19.343  -4.688   4.857  1.00  0.00     0.128 A 
HETATM    2  C3  UNL     1      18.881  -4.211   6.065  1.00  0.00     0.168 A 
HETATM    3  F1  UNL     1      19.283  -4.863   7.174  1.00  0.00    -0.202 F 
HETATM    4  C4  UNL     1      18.043  -3.124   6.143  1.00  0.00     0.093 A 
HETATM    5  C6  UNL     1      17.670  -2.512   4.970  1.00  0.00     0.162 A 
HETATM    6  F2  UNL     1      16.833  -1.428   5.060  1.00  0.00    -0.203 F 
HETATM    7  C7  UNL     1      18.107  -2.952   3.713  1.00  0.00     0.110 A 
HETATM    8  C8  UNL     1      18.942  -4.043   3.709  1.00  0.00     0.089 A 
HETATM    9  S2  UNL     1      19.545  -4.663   2.123  1.00  0.00     0.007 SA
HETATM   10  N3  UNL     1      18.854  -3.632   0.880  1.00  0.00    -0.160 N 
ATOM     11  H3  UNL     1      19.061  -3.800  -0.104  1.00  0.00     0.193 HD
HETATM   12  C9  UNL     1      18.016  -2.575   1.259  1.00  0.00     0.682 A 
HETATM   13  N4  UNL     1      17.518  -1.827   0.315  1.00  0.00    -0.234 N 
ATOM     14  H41 UNL     1      16.908  -1.059   0.590  1.00  0.00     0.174 HD
ATOM     15  H42 UNL     1      17.776  -2.064  -0.643  1.00  0.00     0.174 HD
HETATM   16  N5  UNL     1      17.660  -2.249   2.579  1.00  0.00    -0.187 N 
ATOM     17  H5  UNL     1      17.040  -1.453   2.724  1.00  0.00     0.184 HD
ENDROOT
BRANCH   4  18
HETATM   18  C5  UNL     1      17.540  -2.589   7.430  1.00  0.00     0.152 C 
HETATM   19  N1  UNL     1      16.551  -3.196   8.044  1.00  0.00    -0.265 N 
HETATM   20  S1  UNL     1      16.319  -2.208   9.490  1.00  0.00     0.287 S 
ATOM     21  H1  UNL     1      16.042  -4.032   7.757  1.00  0.00     0.180 HD
HETATM   22  O2  UNL     1      17.278  -2.721  10.582  1.00  0.00    -0.202 OA
HETATM   23  O3  UNL     1      17.094  -0.800   8.836  1.00  0.00    -0.153 OA
HETATM   24  N2  UNL     1      18.026  -1.469   8.084  1.00  0.00    -0.232 N 
ATOM     25  H2  UNL     1      18.997  -1.165   8.011  1.00  0.00     0.197 HD
ENDBRANCH   4  18
BRANCH   1  26
HETATM   26  O1  UNL     1      20.190  -5.787   4.792  1.00  0.00    -0.351 OA
HETATM   27  C1  UNL     1      21.586  -5.673   5.009  1.00  0.00     0.210 C 
ENDBRANCH   1  26
TORSDOF 2
ENDMDL
MODEL 5
REMARK VINA RESULT: -7.454540190      2.206      6.722
REMARK  2 active torsions:
REMARK  status: ('A' for Active; 'I' for Inactive)
REMARK    1  A    between atoms: O1_2  and  C2_3 
REMARK    2  A    between atoms: C4_6  and  C5_7 
ROOT
HETATM    1  C2  UNL     1      19.331  -4.658   4.909  1.00  0.00     0.128 A 
HETATM    2  C3  UNL     1      18.855  -4.161   6.104  1.00  0.00     0.168 A 
HETATM    3  F1  UNL     1      19.245  -4.793   7.228  1.00  0.00    -0.202 F 
HETATM    4  C4  UNL     1      18.014  -3.074   6.154  1.00  0.00     0.093 A 
HETATM    5  C6  UNL     1      17.653  -2.484   4.967  1.00  0.00     0.162 A 
HETATM    6  F2  UNL     1      16.813  -1.400   5.029  1.00  0.00    -0.203 F 
HETATM    7  C7  UNL     1      18.104  -2.944   3.723  1.00  0.00     0.110 A 
HETATM    8  C8  UNL     1      18.942  -4.034   3.746  1.00  0.00     0.089 A 
HETATM    9  S2  UNL     1      19.563  -4.680   2.178  1.00  0.00     0.007 SA
HETATM   10  N3  UNL     1      18.885  -3.671   0.911  1.00  0.00    -0.160 N 
ATOM     11  H3  UNL     1      19.103  -3.856  -0.069  1.00  0.00     0.193 HD
HETATM   12  C9  UNL     1      18.040  -2.610   1.262  1.00  0.00     0.682 A 
HETATM   13  N4  UNL     1      17.552  -1.879   0.299  1.00  0.00    -0.234 N 
ATOM     14  H41 UNL     1      16.938  -1.107   0.555  1.00  0.00     0.174 HD
ATOM     15  H42 UNL     1      17.821  -2.131  -0.652  1.00  0.00     0.174 HD
HETATM   16  N5  UNL     1      17.670  -2.262   2.572  1.00  0.00    -0.187 N 
ATOM     17  H5  UNL     1      17.046  -1.465   2.696  1.00  0.00     0.184 HD
ENDROOT
BRANCH   4  18
HETATM   18  C5  UNL     1      17.496  -2.519   7.426  1.00  0.00     0.152 C 
HETATM   19  N1  UNL     1      18.129  -1.529   8.009  1.00  0.00    -0.265 N 
HETATM   20  S1  UNL     1      17.153  -1.230   9.451  1.00  0.00     0.287 S 
ATOM     21  H1  UNL     1      18.976  -1.049   7.705  1.00  0.00     0.180 HD
HETATM   22  O2  UNL     1      16.024  -0.251   9.073  1.00  0.00    -0.202 OA
HETATM   23  O3  UNL     1      16.408  -2.797   9.455  1.00  0.00    -0.153 OA
HETATM   24  N2  UNL     1      16.362  -2.952   8.093  1.00  0.00    -0.232 N 
ATOM     25  H2  UNL     1      15.557  -3.354   7.611  1.00  0.00     0.197 HD
ENDBRANCH   4  18
BRANCH   1  26
HETATM   26  O1  UNL     1      20.181  -5.757   4.873  1.00  0.00    -0.351 OA
HETATM   27  C1  UNL     1      21.576  -5.634   5.088  1.00  0.00     0.210 C 
ENDBRANCH   1  26
TORSDOF 2
ENDMDL
