MODEL 1
REMARK VINA RESULT: -8.467317593      0.000      0.000
REMARK  9 active torsions:
REMARK  status: ('A' for Active; 'I' for Inactive)
REMARK    1  A    between atoms: C2_2  and  O1_3 
REMARK    2  A    between atoms: O1_3  and  C3_4 
REMARK    3  A    between atoms: C10_13  and  O4_14 
REMARK    4  A    between atoms: O4_14  and  C11_15 
REMARK    5  A    between atoms: C11_15  and  C12_16 
REMARK    6  A    between atoms: C12_16  and  O5_17 
REMARK    7  A    between atoms: C14_20  and  O6_21 
REMARK    8  A    between atoms: C15_24  and  C16_25 
REMARK    9  A    between atoms: C21_32  and  O10_33 
ROOT
HETATM    1  C3  UNL     1      -4.829 -13.455  28.788  1.00  0.00     0.191 C 
HETATM    2  C4  UNL     1      -3.463 -13.548  28.254  1.00  0.00     0.041 A 
HETATM    3  C5  UNL     1      -2.429 -13.252  29.107  1.00  0.00     0.084 A 
HETATM    4  C6  UNL     1      -1.143 -13.320  28.676  1.00  0.00     0.076 A 
HETATM    5  C7  UNL     1      -0.860 -13.688  27.371  1.00  0.00     0.098 A 
HETATM    6  O2  UNL     1       0.394 -13.731  27.028  1.00  0.00    -0.274 OA
HETATM    7  C8  UNL     1       0.770 -14.063  25.835  1.00  0.00     0.290 A 
HETATM    8  O3  UNL     1       1.993 -14.086  25.567  1.00  0.00    -0.260 OA
HETATM    9  C9  UNL     1      -0.203 -14.377  24.912  1.00  0.00     0.120 A 
HETATM   10  C10 UNL     1      -1.552 -14.352  25.204  1.00  0.00     0.090 A 
HETATM   11  C13 UNL     1      -1.903 -13.995  26.482  1.00  0.00     0.065 A 
HETATM   12  C14 UNL     1      -3.199 -13.926  26.921  1.00  0.00     0.093 A 
HETATM   13  O7  UNL     1      -2.720 -12.888  30.396  1.00  0.00    -0.340 OA
HETATM   14  C15 UNL     1      -3.919 -12.243  30.779  1.00  0.00     0.191 C 
HETATM   15  C21 UNL     1      -4.974 -12.261  29.719  1.00  0.00     0.183 C 
ENDROOT
BRANCH  14  16
HETATM   16  C16 UNL     1      -3.540 -10.824  31.185  1.00  0.00     0.181 C 
HETATM   17  C17 UNL     1      -4.571 -10.264  32.112  1.00  0.00     0.206 C 
HETATM   18  O8  UNL     1      -3.938 -10.137  33.322  1.00  0.00    -0.353 OA
HETATM   19  C18 UNL     1      -2.609  -9.956  33.012  1.00  0.00     0.157 C 
HETATM   20  C19 UNL     1      -1.691 -10.260  34.177  1.00  0.00     0.078 C 
HETATM   21  C20 UNL     1      -2.381  -8.499  32.626  1.00  0.00     0.078 C 
HETATM   22  O9  UNL     1      -2.379 -10.799  31.926  1.00  0.00    -0.346 OA
ENDBRANCH  14  16
BRANCH  15  23
HETATM   23  O10 UNL     1      -4.900 -11.054  29.018  1.00  0.00    -0.390 OA
ATOM     24  H10 UNL     1      -5.634 -10.487  29.225  1.00  0.00     0.210 HD
ENDBRANCH  15  23
BRANCH   1  25
HETATM   25  O1  UNL     1      -5.837 -13.445  27.869  1.00  0.00    -0.379 OA
BRANCH  25  26
HETATM   26  C2  UNL     1      -7.041 -13.880  28.422  1.00  0.00     0.164 C 
HETATM   27  C1  UNL     1      -6.956 -15.310  28.897  1.00  0.00     0.033 C 
ENDBRANCH  25  26
ENDBRANCH   1  25
BRANCH  12  28
HETATM   28  O6  UNL     1      -4.275 -14.194  26.169  1.00  0.00    -0.359 OA
ATOM     29  H6  UNL     1      -4.156 -14.097  25.231  1.00  0.00     0.217 HD
ENDBRANCH  12  28
BRANCH  10  30
HETATM   30  O4  UNL     1      -2.519 -14.665  24.282  1.00  0.00    -0.348 OA
BRANCH  30  31
HETATM   31  C11 UNL     1      -2.148 -15.055  22.981  1.00  0.00     0.201 C 
BRANCH  31  32
HETATM   32  C12 UNL     1      -2.844 -16.336  22.588  1.00  0.00     0.190 C 
BRANCH  32  33
HETATM   33  O5  UNL     1      -3.415 -16.131  21.328  1.00  0.00    -0.399 OA
ATOM     34  H5  UNL     1      -3.016 -16.754  20.732  1.00  0.00     0.209 HD
ENDBRANCH  32  33
ENDBRANCH  31  32
ENDBRANCH  30  31
ENDBRANCH  10  30
TORSDOF 9
ENDMDL
MODEL 2
REMARK VINA RESULT: -8.321366086      2.176      7.123
REMARK  9 active torsions:
REMARK  status: ('A' for Active; 'I' for Inactive)
REMARK    1  A    between atoms: C2_2  and  O1_3 
REMARK    2  A    between atoms: O1_3  and  C3_4 
REMARK    3  A    between atoms: C10_13  and  O4_14 
REMARK    4  A    between atoms: O4_14  and  C11_15 
REMARK    5  A    between atoms: C11_15  and  C12_16 
REMARK    6  A    between atoms: C12_16  and  O5_17 
REMARK    7  A    between atoms: C14_20  and  O6_21 
REMARK    8  A    between atoms: C15_24  and  C16_25 
REMARK    9  A    between atoms: C21_32  and  O10_33 
ROOT
HETATM    1  C3  UNL     1      -2.487 -11.013  30.463  1.00  0.00     0.191 C 
HETATM    2  C4  UNL     1      -3.313 -12.118  29.960  1.00  0.00     0.041 A 
HETATM    3  C5  UNL     1      -2.690 -13.084  29.211  1.00  0.00     0.084 A 
HETATM    4  C6  UNL     1      -3.396 -14.133  28.717  1.00  0.00     0.076 A 
HETATM    5  C7  UNL     1      -4.755 -14.241  28.964  1.00  0.00     0.098 A 
HETATM    6  O2  UNL     1      -5.368 -15.271  28.459  1.00  0.00    -0.274 OA
HETATM    7  C8  UNL     1      -6.636 -15.469  28.629  1.00  0.00     0.290 A 
HETATM    8  O3  UNL     1      -7.167 -16.481  28.118  1.00  0.00    -0.260 OA
HETATM    9  C9  UNL     1      -7.342 -14.548  29.369  1.00  0.00     0.120 A 
HETATM   10  C10 UNL     1      -6.760 -13.431  29.934  1.00  0.00     0.090 A 
HETATM   11  C13 UNL     1      -5.413 -13.263  29.728  1.00  0.00     0.065 A 
HETATM   12  C14 UNL     1      -4.695 -12.207  30.224  1.00  0.00     0.093 A 
HETATM   13  O7  UNL     1      -1.344 -12.969  28.972  1.00  0.00    -0.340 OA
HETATM   14  C15 UNL     1      -0.661 -11.732  28.911  1.00  0.00     0.191 C 
HETATM   15  C21 UNL     1      -1.461 -10.579  29.427  1.00  0.00     0.183 C 
ENDROOT
BRANCH  14  16
HETATM   16  C16 UNL     1      -0.244 -11.535  27.459  1.00  0.00     0.181 C 
HETATM   17  C17 UNL     1       0.839 -12.502  27.101  1.00  0.00     0.206 C 
HETATM   18  O8  UNL     1       0.272 -13.360  26.194  1.00  0.00    -0.353 OA
HETATM   19  C18 UNL     1      -0.713 -12.625  25.574  1.00  0.00     0.157 C 
HETATM   20  C19 UNL     1      -1.748 -13.494  24.891  1.00  0.00     0.078 C 
HETATM   21  C20 UNL     1      -0.079 -11.749  24.500  1.00  0.00     0.078 C 
HETATM   22  O9  UNL     1      -1.266 -11.845  26.588  1.00  0.00    -0.346 OA
ENDBRANCH  14  16
BRANCH  15  23
HETATM   23  O10 UNL     1      -2.069  -9.955  28.335  1.00  0.00    -0.390 OA
ATOM     24  H10 UNL     1      -1.437  -9.474  27.812  1.00  0.00     0.210 HD
ENDBRANCH  15  23
BRANCH   1  25
HETATM   25  O1  UNL     1      -3.158  -9.920  30.929  1.00  0.00    -0.379 OA
BRANCH  25  26
HETATM   26  C2  UNL     1      -2.550  -9.390  32.066  1.00  0.00     0.164 C 
HETATM   27  C1  UNL     1      -2.544 -10.374  33.210  1.00  0.00     0.033 C 
ENDBRANCH  25  26
ENDBRANCH   1  25
BRANCH  12  28
HETATM   28  O6  UNL     1      -5.210 -11.215  30.964  1.00  0.00    -0.359 OA
ATOM     29  H6  UNL     1      -5.672 -11.484  31.750  1.00  0.00     0.217 HD
ENDBRANCH  12  28
BRANCH  10  30
HETATM   30  O4  UNL     1      -7.466 -12.514  30.671  1.00  0.00    -0.348 OA
BRANCH  30  31
HETATM   31  C11 UNL     1      -8.321 -12.953  31.702  1.00  0.00     0.201 C 
BRANCH  31  32
HETATM   32  C12 UNL     1      -7.808 -12.502  33.048  1.00  0.00     0.190 C 
BRANCH  32  33
HETATM   33  O5  UNL     1      -7.315 -11.202  32.893  1.00  0.00    -0.399 OA
ATOM     34  H5  UNL     1      -7.716 -10.665  33.567  1.00  0.00     0.209 HD
ENDBRANCH  32  33
ENDBRANCH  31  32
ENDBRANCH  30  31
ENDBRANCH  10  30
TORSDOF 9
ENDMDL
MODEL 3
REMARK VINA RESULT: -8.278911825      2.197      6.998
REMARK  9 active torsions:
REMARK  status: ('A' for Active; 'I' for Inactive)
REMARK    1  A    between atoms: C2_2  and  O1_3 
REMARK    2  A    between atoms: O1_3  and  C3_4 
REMARK    3  A    between atoms: C10_13  and  O4_14 
REMARK    4  A    between atoms: O4_14  and  C11_15 
REMARK    5  A    between atoms: C11_15  and  C12_16 
REMARK    6  A    between atoms: C12_16  and  O5_17 
REMARK    7  A    between atoms: C14_20  and  O6_21 
REMARK    8  A    between atoms: C15_24  and  C16_25 
REMARK    9  A    between atoms: C21_32  and  O10_33 
ROOT
HETATM    1  C3  UNL     1      -2.316 -11.476  29.992  1.00  0.00     0.191 C 
HETATM    2  C4  UNL     1      -3.104 -12.609  29.489  1.00  0.00     0.041 A 
HETATM    3  C5  UNL     1      -2.455 -13.534  28.708  1.00  0.00     0.084 A 
HETATM    4  C6  UNL     1      -3.126 -14.606  28.213  1.00  0.00     0.076 A 
HETATM    5  C7  UNL     1      -4.472 -14.778  28.489  1.00  0.00     0.098 A 
HETATM    6  O2  UNL     1      -5.050 -15.827  27.981  1.00  0.00    -0.274 OA
HETATM    7  C8  UNL     1      -6.303 -16.085  28.176  1.00  0.00     0.290 A 
HETATM    8  O3  UNL     1      -6.800 -17.112  27.660  1.00  0.00    -0.260 OA
HETATM    9  C9  UNL     1      -7.032 -15.209  28.948  1.00  0.00     0.120 A 
HETATM   10  C10 UNL     1      -6.488 -14.076  29.519  1.00  0.00     0.090 A 
HETATM   11  C13 UNL     1      -5.155 -13.845  29.285  1.00  0.00     0.065 A 
HETATM   12  C14 UNL     1      -4.474 -12.765  29.783  1.00  0.00     0.093 A 
HETATM   13  O7  UNL     1      -1.123 -13.353  28.441  1.00  0.00    -0.340 OA
HETATM   14  C15 UNL     1      -0.497 -12.086  28.385  1.00  0.00     0.191 C 
HETATM   15  C21 UNL     1      -1.336 -10.979  28.940  1.00  0.00     0.183 C 
ENDROOT
BRANCH  14  16
HETATM   16  C16 UNL     1      -0.124 -11.847  26.928  1.00  0.00     0.181 C 
HETATM   17  C17 UNL     1       1.036 -12.709  26.547  1.00  0.00     0.206 C 
HETATM   18  O8  UNL     1       0.534 -13.613  25.646  1.00  0.00    -0.353 OA
HETATM   19  C18 UNL     1      -0.524 -12.967  25.046  1.00  0.00     0.157 C 
HETATM   20  C19 UNL     1      -1.487 -13.925  24.375  1.00  0.00     0.078 C 
HETATM   21  C20 UNL     1       0.010 -12.034  23.965  1.00  0.00     0.078 C 
HETATM   22  O9  UNL     1      -1.128 -12.245  26.072  1.00  0.00    -0.346 OA
ENDBRANCH  14  16
BRANCH  15  23
HETATM   23  O10 UNL     1      -1.998 -10.365  27.873  1.00  0.00    -0.390 OA
ATOM     24  H10 UNL     1      -1.617 -10.614  27.038  1.00  0.00     0.210 HD
ENDBRANCH  15  23
BRANCH   1  25
HETATM   25  O1  UNL     1      -3.025 -10.423  30.492  1.00  0.00    -0.379 OA
BRANCH  25  26
HETATM   26  C2  UNL     1      -2.371  -9.829  31.570  1.00  0.00     0.164 C 
HETATM   27  C1  UNL     1      -2.700 -10.515  32.873  1.00  0.00     0.033 C 
ENDBRANCH  25  26
ENDBRANCH   1  25
BRANCH  12  28
HETATM   28  O6  UNL     1      -5.015 -11.810  30.552  1.00  0.00    -0.359 OA
ATOM     29  H6  UNL     1      -4.777 -10.917  30.329  1.00  0.00     0.217 HD
ENDBRANCH  12  28
BRANCH  10  30
HETATM   30  O4  UNL     1      -7.217 -13.205  30.288  1.00  0.00    -0.348 OA
BRANCH  30  31
HETATM   31  C11 UNL     1      -8.611 -13.110  30.110  1.00  0.00     0.201 C 
BRANCH  31  32
HETATM   32  C12 UNL     1      -9.323 -13.146  31.441  1.00  0.00     0.190 C 
BRANCH  32  33
HETATM   33  O5  UNL     1     -10.634 -12.712  31.225  1.00  0.00    -0.399 OA
ATOM     34  H5  UNL     1     -11.108 -13.430  30.823  1.00  0.00     0.209 HD
ENDBRANCH  32  33
ENDBRANCH  31  32
ENDBRANCH  30  31
ENDBRANCH  10  30
TORSDOF 9
ENDMDL
MODEL 4
REMARK VINA RESULT: -8.206298499      2.616      5.567
REMARK  9 active torsions:
REMARK  status: ('A' for Active; 'I' for Inactive)
REMARK    1  A    between atoms: C2_2  and  O1_3 
REMARK    2  A    between atoms: O1_3  and  C3_4 
REMARK    3  A    between atoms: C10_13  and  O4_14 
REMARK    4  A    between atoms: O4_14  and  C11_15 
REMARK    5  A    between atoms: C11_15  and  C12_16 
REMARK    6  A    between atoms: C12_16  and  O5_17 
REMARK    7  A    between atoms: C14_20  and  O6_21 
REMARK    8  A    between atoms: C15_24  and  C16_25 
REMARK    9  A    between atoms: C21_32  and  O10_33 
ROOT
HETATM    1  C3  UNL     1      -3.768 -10.345  31.166  1.00  0.00     0.191 C 
HETATM    2  C4  UNL     1      -3.869 -11.620  30.443  1.00  0.00     0.041 A 
HETATM    3  C5  UNL     1      -5.124 -12.141  30.252  1.00  0.00     0.084 A 
HETATM    4  C6  UNL     1      -5.287 -13.315  29.591  1.00  0.00     0.076 A 
HETATM    5  C7  UNL     1      -4.188 -14.001  29.101  1.00  0.00     0.098 A 
HETATM    6  O2  UNL     1      -4.419 -15.119  28.478  1.00  0.00    -0.274 OA
HETATM    7  C8  UNL     1      -3.465 -15.840  27.981  1.00  0.00     0.290 A 
HETATM    8  O3  UNL     1      -3.753 -16.907  27.392  1.00  0.00    -0.260 OA
HETATM    9  C9  UNL     1      -2.172 -15.392  28.126  1.00  0.00     0.120 A 
HETATM   10  C10 UNL     1      -1.851 -14.217  28.775  1.00  0.00     0.090 A 
HETATM   11  C13 UNL     1      -2.895 -13.486  29.285  1.00  0.00     0.065 A 
HETATM   12  C14 UNL     1      -2.736 -12.300  29.953  1.00  0.00     0.093 A 
HETATM   13  O7  UNL     1      -6.206 -11.454  30.741  1.00  0.00    -0.340 OA
HETATM   14  C15 UNL     1      -6.153 -10.609  31.875  1.00  0.00     0.191 C 
HETATM   15  C21 UNL     1      -4.761 -10.286  32.317  1.00  0.00     0.183 C 
ENDROOT
BRANCH  14  16
HETATM   16  C16 UNL     1      -6.955 -11.299  32.971  1.00  0.00     0.181 C 
HETATM   17  C17 UNL     1      -7.811 -10.303  33.685  1.00  0.00     0.206 C 
HETATM   18  O8  UNL     1      -9.101 -10.636  33.362  1.00  0.00    -0.353 OA
HETATM   19  C18 UNL     1      -9.068 -11.990  33.112  1.00  0.00     0.157 C 
HETATM   20  C19 UNL     1     -10.255 -12.462  32.300  1.00  0.00     0.078 C 
HETATM   21  C20 UNL     1      -9.100 -12.741  34.438  1.00  0.00     0.078 C 
HETATM   22  O9  UNL     1      -7.860 -12.200  32.451  1.00  0.00    -0.346 OA
ENDBRANCH  14  16
BRANCH  15  23
HETATM   23  O10 UNL     1      -4.416 -11.176  33.337  1.00  0.00    -0.390 OA
ATOM     24  H10 UNL     1      -5.091 -11.219  34.005  1.00  0.00     0.210 HD
ENDBRANCH  15  23
BRANCH   1  25
HETATM   25  O1  UNL     1      -2.526 -10.002  31.616  1.00  0.00    -0.379 OA
BRANCH  25  26
HETATM   26  C2  UNL     1      -2.581  -8.944  32.521  1.00  0.00     0.164 C 
HETATM   27  C1  UNL     1      -1.697  -9.186  33.721  1.00  0.00     0.033 C 
ENDBRANCH  25  26
ENDBRANCH   1  25
BRANCH  12  28
HETATM   28  O6  UNL     1      -1.556 -11.711  30.190  1.00  0.00    -0.359 OA
ATOM     29  H6  UNL     1      -1.157 -11.909  31.030  1.00  0.00     0.217 HD
ENDBRANCH  12  28
BRANCH  10  30
HETATM   30  O4  UNL     1      -0.560 -13.773  28.918  1.00  0.00    -0.348 OA
BRANCH  30  31
HETATM   31  C11 UNL     1       0.285 -13.700  27.794  1.00  0.00     0.201 C 
BRANCH  31  32
HETATM   32  C12 UNL     1       0.442 -12.270  27.336  1.00  0.00     0.190 C 
BRANCH  32  33
HETATM   33  O5  UNL     1       0.829 -11.516  28.449  1.00  0.00    -0.399 OA
ATOM     34  H5  UNL     1       1.473 -12.025  28.926  1.00  0.00     0.209 HD
ENDBRANCH  32  33
ENDBRANCH  31  32
ENDBRANCH  30  31
ENDBRANCH  10  30
TORSDOF 9
ENDMDL
MODEL 5
REMARK VINA RESULT: -8.026057371      1.882      8.348
REMARK  9 active torsions:
REMARK  status: ('A' for Active; 'I' for Inactive)
REMARK    1  A    between atoms: C2_2  and  O1_3 
REMARK    2  A    between atoms: O1_3  and  C3_4 
REMARK    3  A    between atoms: C10_13  and  O4_14 
REMARK    4  A    between atoms: O4_14  and  C11_15 
REMARK    5  A    between atoms: C11_15  and  C12_16 
REMARK    6  A    between atoms: C12_16  and  O5_17 
REMARK    7  A    between atoms: C14_20  and  O6_21 
REMARK    8  A    between atoms: C15_24  and  C16_25 
REMARK    9  A    between atoms: C21_32  and  O10_33 
ROOT
HETATM    1  C3  UNL     1      -0.852 -14.302  26.769  1.00  0.00     0.191 C 
HETATM    2  C4  UNL     1      -2.187 -14.490  27.353  1.00  0.00     0.041 A 
HETATM    3  C5  UNL     1      -2.815 -15.689  27.122  1.00  0.00     0.084 A 
HETATM    4  C6  UNL     1      -4.049 -15.928  27.634  1.00  0.00     0.076 A 
HETATM    5  C7  UNL     1      -4.689 -14.965  28.397  1.00  0.00     0.098 A 
HETATM    6  O2  UNL     1      -5.869 -15.261  28.855  1.00  0.00    -0.274 OA
HETATM    7  C8  UNL     1      -6.555 -14.435  29.579  1.00  0.00     0.290 A 
HETATM    8  O3  UNL     1      -7.686 -14.782  29.990  1.00  0.00    -0.260 OA
HETATM    9  C9  UNL     1      -6.001 -13.207  29.861  1.00  0.00     0.120 A 
HETATM   10  C10 UNL     1      -4.754 -12.823  29.409  1.00  0.00     0.090 A 
HETATM   11  C13 UNL     1      -4.064 -13.732  28.647  1.00  0.00     0.065 A 
HETATM   12  C14 UNL     1      -2.818 -13.496  28.127  1.00  0.00     0.093 A 
HETATM   13  O7  UNL     1      -2.173 -16.635  26.365  1.00  0.00    -0.340 OA
HETATM   14  C15 UNL     1      -1.235 -16.328  25.352  1.00  0.00     0.191 C 
HETATM   15  C21 UNL     1      -0.772 -14.906  25.376  1.00  0.00     0.183 C 
ENDROOT
BRANCH  14  16
HETATM   16  C16 UNL     1      -1.890 -16.695  24.026  1.00  0.00     0.181 C 
HETATM   17  C17 UNL     1      -1.436 -18.050  23.587  1.00  0.00     0.206 C 
HETATM   18  O8  UNL     1      -2.547 -18.849  23.670  1.00  0.00    -0.353 OA
HETATM   19  C18 UNL     1      -3.613 -17.997  23.482  1.00  0.00     0.157 C 
HETATM   20  C19 UNL     1      -4.917 -18.574  23.992  1.00  0.00     0.078 C 
HETATM   21  C20 UNL     1      -3.786 -17.738  21.990  1.00  0.00     0.078 C 
HETATM   22  O9  UNL     1      -3.256 -16.828  24.151  1.00  0.00    -0.346 OA
ENDBRANCH  14  16
BRANCH  15  23
HETATM   23  O10 UNL     1      -1.546 -14.187  24.461  1.00  0.00    -0.390 OA
ATOM     24  H10 UNL     1      -1.641 -14.657  23.640  1.00  0.00     0.210 HD
ENDBRANCH  15  23
BRANCH   1  25
HETATM   25  O1  UNL     1      -0.380 -13.022  26.741  1.00  0.00    -0.379 OA
BRANCH  25  26
HETATM   26  C2  UNL     1       0.902 -12.958  26.198  1.00  0.00     0.164 C 
HETATM   27  C1  UNL     1       1.050 -11.800  25.242  1.00  0.00     0.033 C 
ENDBRANCH  25  26
ENDBRANCH   1  25
BRANCH  12  28
HETATM   28  O6  UNL     1      -2.124 -12.362  28.296  1.00  0.00    -0.359 OA
ATOM     29  H6  UNL     1      -1.733 -12.242  29.153  1.00  0.00     0.217 HD
ENDBRANCH  12  28
BRANCH  10  30
HETATM   30  O4  UNL     1      -4.204 -11.598  29.693  1.00  0.00    -0.348 OA
BRANCH  30  31
HETATM   31  C11 UNL     1      -4.041 -11.195  31.032  1.00  0.00     0.201 C 
BRANCH  31  32
HETATM   32  C12 UNL     1      -2.667 -10.610  31.250  1.00  0.00     0.190 C 
BRANCH  32  33
HETATM   33  O5  UNL     1      -1.752 -11.668  31.216  1.00  0.00    -0.399 OA
ATOM     34  H5  UNL     1      -1.709 -12.033  32.092  1.00  0.00     0.209 HD
ENDBRANCH  32  33
ENDBRANCH  31  32
ENDBRANCH  30  31
ENDBRANCH  10  30
TORSDOF 9
ENDMDL
