MODEL 1
REMARK VINA RESULT: -8.952479737      0.000      0.000
REMARK  8 active torsions:
REMARK  status: ('A' for Active; 'I' for Inactive)
REMARK    1  A    between atoms: N1_7  and  N2_8 
REMARK    2  A    between atoms: C6_9  and  N3_10 
REMARK    3  A    between atoms: N3_10  and  C7_12 
REMARK    4  A    between atoms: C7_12  and  C8_13 
REMARK    5  A    between atoms: C8_13  and  N4_14 
REMARK    6  A    between atoms: C11_17  and  O2_18 
REMARK    7  A    between atoms: C13_21  and  O3_22 
REMARK    8  A    between atoms: C16_26  and  O4_27 
ROOT
HETATM    1  N2  UNL     1      -3.187 -12.891  27.986  1.00  0.00    -0.188 N 
HETATM    2  C6  UNL     1      -2.050 -12.209  28.362  1.00  0.00     0.162 A 
HETATM    3  C11 UNL     1      -2.089 -11.441  29.534  1.00  0.00     0.125 A 
HETATM    4  C12 UNL     1      -3.308 -11.424  30.248  1.00  0.00     0.051 A 
HETATM    5  C13 UNL     1      -3.336 -10.647  31.410  1.00  0.00     0.088 A 
HETATM    6  C14 UNL     1      -4.549 -10.609  32.135  1.00  0.00     0.006 A 
HETATM    7  C15 UNL     1      -4.645  -9.790  33.395  1.00  0.00     0.054 C 
HETATM    8  C16 UNL     1      -5.607 -11.299  31.698  1.00  0.00     0.081 A 
HETATM    9  C17 UNL     1      -5.617 -12.084  30.544  1.00  0.00    -0.011 A 
HETATM   10  C18 UNL     1      -6.822 -12.814  30.112  1.00  0.00     0.052 C 
HETATM   11  C19 UNL     1      -4.424 -12.106  29.857  1.00  0.00     0.058 A 
HETATM   12  C20 UNL     1      -4.310 -12.839  28.698  1.00  0.00     0.280 A 
HETATM   13  O5  UNL     1      -5.283 -13.485  28.282  1.00  0.00    -0.265 OA
ENDROOT
BRANCH   1  14
HETATM   14  N1  UNL     1      -3.122 -13.657  26.824  1.00  0.00    -0.171 N 
HETATM   15  C5  UNL     1      -3.650 -13.418  25.514  1.00  0.00     0.276 A 
HETATM   16  C3  UNL     1      -3.317 -14.537  24.634  1.00  0.00     0.019 A 
HETATM   17  O1  UNL     1      -4.290 -12.405  25.202  1.00  0.00    -0.266 OA
HETATM   18  C2  UNL     1      -2.630 -15.403  25.352  1.00  0.00     0.019 A 
HETATM   19  C4  UNL     1      -3.677 -14.703  23.203  1.00  0.00     0.055 C 
HETATM   20  C1  UNL     1      -2.067 -16.721  24.896  1.00  0.00     0.055 C 
HETATM   21  C21 UNL     1      -2.468 -14.935  26.707  1.00  0.00     0.276 A 
HETATM   22  O6  UNL     1      -1.874 -15.499  27.653  1.00  0.00    -0.266 OA
ENDBRANCH   1  14
BRANCH   2  23
HETATM   23  N3  UNL     1      -0.907 -12.301  27.573  1.00  0.00    -0.371 N 
ATOM     24  H3  UNL     1      -0.415 -13.192  27.641  1.00  0.00     0.161 HD
BRANCH  23  25
HETATM   25  C7  UNL     1      -0.310 -11.365  26.687  1.00  0.00     0.141 C 
BRANCH  25  26
HETATM   26  C8  UNL     1       0.807 -11.914  25.827  1.00  0.00     0.135 C 
BRANCH  26  27
HETATM   27  N4  UNL     1       0.300 -13.087  25.183  1.00  0.00    -0.419 N 
HETATM   28  C9  UNL     1       0.992 -14.299  25.452  1.00  0.00     0.142 C 
HETATM   29  C10 UNL     1      -0.166 -12.897  23.848  1.00  0.00     0.142 C 
ENDBRANCH  26  27
ENDBRANCH  25  26
ENDBRANCH  23  25
ENDBRANCH   2  23
BRANCH   3  30
HETATM   30  O2  UNL     1      -1.043 -10.771  29.953  1.00  0.00    -0.356 OA
ATOM     31  H2  UNL     1      -1.029 -10.352  30.805  1.00  0.00     0.218 HD
ENDBRANCH   3  30
BRANCH   5  32
HETATM   32  O3  UNL     1      -2.333  -9.929  31.919  1.00  0.00    -0.359 OA
ATOM     33  H3  UNL     1      -2.080  -9.869  32.833  1.00  0.00     0.217 HD
ENDBRANCH   5  32
BRANCH   8  34
HETATM   34  O4  UNL     1      -6.810 -11.251  32.428  1.00  0.00    -0.359 OA
ATOM     35  H4  UNL     1      -7.635 -11.196  31.961  1.00  0.00     0.217 HD
ENDBRANCH   8  34
TORSDOF 8
ENDMDL
MODEL 2
REMARK VINA RESULT: -8.926916653      1.886      2.385
REMARK  8 active torsions:
REMARK  status: ('A' for Active; 'I' for Inactive)
REMARK    1  A    between atoms: N1_7  and  N2_8 
REMARK    2  A    between atoms: C6_9  and  N3_10 
REMARK    3  A    between atoms: N3_10  and  C7_12 
REMARK    4  A    between atoms: C7_12  and  C8_13 
REMARK    5  A    between atoms: C8_13  and  N4_14 
REMARK    6  A    between atoms: C11_17  and  O2_18 
REMARK    7  A    between atoms: C13_21  and  O3_22 
REMARK    8  A    between atoms: C16_26  and  O4_27 
ROOT
HETATM    1  N2  UNL     1      -3.499 -15.096  27.536  1.00  0.00    -0.188 N 
HETATM    2  C6  UNL     1      -2.200 -14.712  27.792  1.00  0.00     0.162 A 
HETATM    3  C11 UNL     1      -1.977 -13.704  28.740  1.00  0.00     0.125 A 
HETATM    4  C12 UNL     1      -3.115 -13.151  29.367  1.00  0.00     0.051 A 
HETATM    5  C13 UNL     1      -2.879 -12.139  30.304  1.00  0.00     0.088 A 
HETATM    6  C14 UNL     1      -4.004 -11.565  30.935  1.00  0.00     0.006 A 
HETATM    7  C15 UNL     1      -3.818 -10.472  31.954  1.00  0.00     0.054 C 
HETATM    8  C16 UNL     1      -5.232 -11.995  30.626  1.00  0.00     0.081 A 
HETATM    9  C17 UNL     1      -5.507 -12.999  29.698  1.00  0.00    -0.011 A 
HETATM   10  C18 UNL     1      -6.886 -13.420  29.395  1.00  0.00     0.052 C 
HETATM   11  C19 UNL     1      -4.394 -13.544  29.097  1.00  0.00     0.058 A 
HETATM   12  C20 UNL     1      -4.536 -14.539  28.157  1.00  0.00     0.280 A 
HETATM   13  O5  UNL     1      -5.668 -14.947  27.862  1.00  0.00    -0.265 OA
ENDROOT
BRANCH   1  14
HETATM   14  N1  UNL     1      -3.697 -16.107  26.599  1.00  0.00    -0.171 N 
HETATM   15  C5  UNL     1      -4.021 -16.042  25.204  1.00  0.00     0.276 A 
HETATM   16  C3  UNL     1      -4.132 -17.394  24.659  1.00  0.00     0.019 A 
HETATM   17  O1  UNL     1      -4.180 -14.984  24.582  1.00  0.00    -0.266 OA
HETATM   18  C2  UNL     1      -3.890 -18.232  25.647  1.00  0.00     0.019 A 
HETATM   19  C4  UNL     1      -4.461 -17.784  23.264  1.00  0.00     0.055 C 
HETATM   20  C1  UNL     1      -3.890 -19.734  25.588  1.00  0.00     0.055 C 
HETATM   21  C21 UNL     1      -3.614 -17.519  26.870  1.00  0.00     0.276 A 
HETATM   22  O6  UNL     1      -3.345 -17.994  27.997  1.00  0.00    -0.266 OA
ENDBRANCH   1  14
BRANCH   2  23
HETATM   23  N3  UNL     1      -1.159 -15.331  27.107  1.00  0.00    -0.371 N 
ATOM     24  H3  UNL     1      -0.977 -16.294  27.392  1.00  0.00     0.161 HD
BRANCH  23  25
HETATM   25  C7  UNL     1      -0.306 -14.849  26.078  1.00  0.00     0.141 C 
BRANCH  25  26
HETATM   26  C8  UNL     1      -0.954 -13.894  25.100  1.00  0.00     0.135 C 
BRANCH  26  27
HETATM   27  N4  UNL     1      -0.414 -12.596  25.364  1.00  0.00    -0.419 N 
HETATM   28  C9  UNL     1       0.872 -12.561  25.966  1.00  0.00     0.142 C 
HETATM   29  C10 UNL     1      -1.358 -11.622  25.810  1.00  0.00     0.142 C 
ENDBRANCH  26  27
ENDBRANCH  25  26
ENDBRANCH  23  25
ENDBRANCH   2  23
BRANCH   3  30
HETATM   30  O2  UNL     1      -0.767 -13.294  29.036  1.00  0.00    -0.356 OA
ATOM     31  H2  UNL     1      -0.497 -12.394  28.890  1.00  0.00     0.218 HD
ENDBRANCH   3  30
BRANCH   5  32
HETATM   32  O3  UNL     1      -1.693 -11.650  30.673  1.00  0.00    -0.359 OA
ATOM     33  H3  UNL     1      -1.377 -10.764  30.545  1.00  0.00     0.217 HD
ENDBRANCH   5  32
BRANCH   8  34
HETATM   34  O4  UNL     1      -6.345 -11.413  31.262  1.00  0.00    -0.359 OA
ATOM     35  H4  UNL     1      -6.500 -11.590  32.182  1.00  0.00     0.217 HD
ENDBRANCH   8  34
TORSDOF 8
ENDMDL
MODEL 3
REMARK VINA RESULT: -8.844761942      0.183      1.570
REMARK  8 active torsions:
REMARK  status: ('A' for Active; 'I' for Inactive)
REMARK    1  A    between atoms: N1_7  and  N2_8 
REMARK    2  A    between atoms: C6_9  and  N3_10 
REMARK    3  A    between atoms: N3_10  and  C7_12 
REMARK    4  A    between atoms: C7_12  and  C8_13 
REMARK    5  A    between atoms: C8_13  and  N4_14 
REMARK    6  A    between atoms: C11_17  and  O2_18 
REMARK    7  A    between atoms: C13_21  and  O3_22 
REMARK    8  A    between atoms: C16_26  and  O4_27 
ROOT
HETATM    1  N2  UNL     1      -3.040 -13.021  28.063  1.00  0.00    -0.188 N 
HETATM    2  C6  UNL     1      -1.936 -12.270  28.404  1.00  0.00     0.162 A 
HETATM    3  C11 UNL     1      -2.014 -11.445  29.535  1.00  0.00     0.125 A 
HETATM    4  C12 UNL     1      -3.235 -11.446  30.245  1.00  0.00     0.051 A 
HETATM    5  C13 UNL     1      -3.302 -10.612  31.366  1.00  0.00     0.088 A 
HETATM    6  C14 UNL     1      -4.518 -10.591  32.086  1.00  0.00     0.006 A 
HETATM    7  C15 UNL     1      -4.655  -9.713  33.302  1.00  0.00     0.054 C 
HETATM    8  C16 UNL     1      -5.542 -11.350  31.684  1.00  0.00     0.081 A 
HETATM    9  C17 UNL     1      -5.513 -12.193  30.573  1.00  0.00    -0.011 A 
HETATM   10  C18 UNL     1      -6.682 -12.998  30.178  1.00  0.00     0.052 C 
HETATM   11  C19 UNL     1      -4.318 -12.197  29.890  1.00  0.00     0.058 A 
HETATM   12  C20 UNL     1      -4.167 -12.983  28.770  1.00  0.00     0.280 A 
HETATM   13  O5  UNL     1      -5.108 -13.693  28.387  1.00  0.00    -0.265 OA
ENDROOT
BRANCH   1  14
HETATM   14  N1  UNL     1      -2.937 -13.842  26.942  1.00  0.00    -0.171 N 
HETATM   15  C5  UNL     1      -2.249 -15.084  26.750  1.00  0.00     0.276 A 
HETATM   16  C3  UNL     1      -2.441 -15.549  25.378  1.00  0.00     0.019 A 
HETATM   17  O1  UNL     1      -1.595 -15.654  27.634  1.00  0.00    -0.266 OA
HETATM   18  C2  UNL     1      -3.196 -14.658  24.768  1.00  0.00     0.019 A 
HETATM   19  C4  UNL     1      -1.895 -16.782  24.754  1.00  0.00     0.055 C 
HETATM   20  C1  UNL     1      -3.667 -14.686  23.341  1.00  0.00     0.055 C 
HETATM   21  C21 UNL     1      -3.542 -13.580  25.662  1.00  0.00     0.276 A 
HETATM   22  O6  UNL     1      -4.242 -12.570  25.420  1.00  0.00    -0.266 OA
ENDBRANCH   1  14
BRANCH   2  23
HETATM   23  N3  UNL     1      -0.788 -12.351  27.622  1.00  0.00    -0.371 N 
ATOM     24  H3  UNL     1      -0.243 -13.203  27.757  1.00  0.00     0.161 HD
BRANCH  23  25
HETATM   25  C7  UNL     1      -0.247 -11.449  26.668  1.00  0.00     0.141 C 
BRANCH  25  26
HETATM   26  C8  UNL     1       0.892 -11.998  25.837  1.00  0.00     0.135 C 
BRANCH  26  27
HETATM   27  N4  UNL     1       0.395 -13.157  25.159  1.00  0.00    -0.419 N 
HETATM   28  C9  UNL     1       1.119 -14.362  25.363  1.00  0.00     0.142 C 
HETATM   29  C10 UNL     1      -0.109 -12.925  23.844  1.00  0.00     0.142 C 
ENDBRANCH  26  27
ENDBRANCH  25  26
ENDBRANCH  23  25
ENDBRANCH   2  23
BRANCH   3  30
HETATM   30  O2  UNL     1      -1.001 -10.707  29.919  1.00  0.00    -0.356 OA
ATOM     31  H2  UNL     1      -1.127  -9.916  30.430  1.00  0.00     0.218 HD
ENDBRANCH   3  30
BRANCH   5  32
HETATM   32  O3  UNL     1      -2.334  -9.823  31.838  1.00  0.00    -0.359 OA
ATOM     33  H3  UNL     1      -2.152  -9.627  32.749  1.00  0.00     0.217 HD
ENDBRANCH   5  32
BRANCH   8  34
HETATM   34  O4  UNL     1      -6.748 -11.318  32.410  1.00  0.00    -0.359 OA
ATOM     35  H4  UNL     1      -7.352 -10.597  32.277  1.00  0.00     0.217 HD
ENDBRANCH   8  34
TORSDOF 8
ENDMDL
MODEL 4
REMARK VINA RESULT: -8.774057901      1.842      2.802
REMARK  8 active torsions:
REMARK  status: ('A' for Active; 'I' for Inactive)
REMARK    1  A    between atoms: N1_7  and  N2_8 
REMARK    2  A    between atoms: C6_9  and  N3_10 
REMARK    3  A    between atoms: N3_10  and  C7_12 
REMARK    4  A    between atoms: C7_12  and  C8_13 
REMARK    5  A    between atoms: C8_13  and  N4_14 
REMARK    6  A    between atoms: C11_17  and  O2_18 
REMARK    7  A    between atoms: C13_21  and  O3_22 
REMARK    8  A    between atoms: C16_26  and  O4_27 
ROOT
HETATM    1  N2  UNL     1      -3.451 -15.126  27.463  1.00  0.00    -0.188 N 
HETATM    2  C6  UNL     1      -2.156 -14.731  27.722  1.00  0.00     0.162 A 
HETATM    3  C11 UNL     1      -1.944 -13.723  28.671  1.00  0.00     0.125 A 
HETATM    4  C12 UNL     1      -3.088 -13.180  29.296  1.00  0.00     0.051 A 
HETATM    5  C13 UNL     1      -2.863 -12.168  30.235  1.00  0.00     0.088 A 
HETATM    6  C14 UNL     1      -3.995 -11.604  30.865  1.00  0.00     0.006 A 
HETATM    7  C15 UNL     1      -3.820 -10.510  31.885  1.00  0.00     0.054 C 
HETATM    8  C16 UNL     1      -5.217 -12.044  30.553  1.00  0.00     0.081 A 
HETATM    9  C17 UNL     1      -5.482 -13.050  29.623  1.00  0.00    -0.011 A 
HETATM   10  C18 UNL     1      -6.857 -13.483  29.318  1.00  0.00     0.052 C 
HETATM   11  C19 UNL     1      -4.363 -13.584  29.024  1.00  0.00     0.058 A 
HETATM   12  C20 UNL     1      -4.494 -14.579  28.082  1.00  0.00     0.280 A 
HETATM   13  O5  UNL     1      -5.622 -14.997  27.785  1.00  0.00    -0.265 OA
ENDROOT
BRANCH   1  14
HETATM   14  N1  UNL     1      -3.639 -16.138  26.524  1.00  0.00    -0.171 N 
HETATM   15  C5  UNL     1      -3.580 -17.563  26.657  1.00  0.00     0.276 A 
HETATM   16  C3  UNL     1      -3.845 -18.192  25.364  1.00  0.00     0.019 A 
HETATM   17  O1  UNL     1      -3.338 -18.147  27.722  1.00  0.00    -0.266 OA
HETATM   18  C2  UNL     1      -4.054 -17.223  24.497  1.00  0.00     0.019 A 
HETATM   19  C4  UNL     1      -3.872 -19.645  25.052  1.00  0.00     0.055 C 
HETATM   20  C1  UNL     1      -4.361 -17.362  23.031  1.00  0.00     0.055 C 
HETATM   21  C21 UNL     1      -3.945 -15.932  25.131  1.00  0.00     0.276 A 
HETATM   22  O6  UNL     1      -4.082 -14.802  24.611  1.00  0.00    -0.266 OA
ENDBRANCH   1  14
BRANCH   2  23
HETATM   23  N3  UNL     1      -1.108 -15.340  27.038  1.00  0.00    -0.371 N 
ATOM     24  H3  UNL     1      -0.951 -16.317  27.286  1.00  0.00     0.161 HD
BRANCH  23  25
HETATM   25  C7  UNL     1      -0.221 -14.832  26.053  1.00  0.00     0.141 C 
BRANCH  25  26
HETATM   26  C8  UNL     1      -0.846 -13.889  25.048  1.00  0.00     0.135 C 
BRANCH  26  27
HETATM   27  N4  UNL     1      -0.332 -12.582  25.325  1.00  0.00    -0.419 N 
HETATM   28  C9  UNL     1       0.952 -12.529  25.931  1.00  0.00     0.142 C 
HETATM   29  C10 UNL     1      -1.295 -11.632  25.777  1.00  0.00     0.142 C 
ENDBRANCH  26  27
ENDBRANCH  25  26
ENDBRANCH  23  25
ENDBRANCH   2  23
BRANCH   3  30
HETATM   30  O2  UNL     1      -0.739 -13.302  28.970  1.00  0.00    -0.356 OA
ATOM     31  H2  UNL     1       0.038 -13.735  28.634  1.00  0.00     0.218 HD
ENDBRANCH   3  30
BRANCH   5  32
HETATM   32  O3  UNL     1      -1.682 -11.668  30.607  1.00  0.00    -0.359 OA
ATOM     33  H3  UNL     1      -1.465 -10.753  30.737  1.00  0.00     0.217 HD
ENDBRANCH   5  32
BRANCH   8  34
HETATM   34  O4  UNL     1      -6.337 -11.473  31.187  1.00  0.00    -0.359 OA
ATOM     35  H4  UNL     1      -6.948 -12.036  31.647  1.00  0.00     0.217 HD
ENDBRANCH   8  34
TORSDOF 8
ENDMDL
MODEL 5
REMARK VINA RESULT: -8.669755181      1.342      1.826
REMARK  8 active torsions:
REMARK  status: ('A' for Active; 'I' for Inactive)
REMARK    1  A    between atoms: N1_7  and  N2_8 
REMARK    2  A    between atoms: C6_9  and  N3_10 
REMARK    3  A    between atoms: N3_10  and  C7_12 
REMARK    4  A    between atoms: C7_12  and  C8_13 
REMARK    5  A    between atoms: C8_13  and  N4_14 
REMARK    6  A    between atoms: C11_17  and  O2_18 
REMARK    7  A    between atoms: C13_21  and  O3_22 
REMARK    8  A    between atoms: C16_26  and  O4_27 
ROOT
HETATM    1  N2  UNL     1      -3.822 -12.241  29.411  1.00  0.00    -0.188 N 
HETATM    2  C6  UNL     1      -2.838 -11.415  29.910  1.00  0.00     0.162 A 
HETATM    3  C11 UNL     1      -3.108 -10.684  31.074  1.00  0.00     0.125 A 
HETATM    4  C12 UNL     1      -4.385 -10.850  31.653  1.00  0.00     0.051 A 
HETATM    5  C13 UNL     1      -4.645 -10.107  32.809  1.00  0.00     0.088 A 
HETATM    6  C14 UNL     1      -5.920 -10.251  33.400  1.00  0.00     0.006 A 
HETATM    7  C15 UNL     1      -6.263  -9.479  34.646  1.00  0.00     0.054 C 
HETATM    8  C16 UNL     1      -6.819 -11.073  32.849  1.00  0.00     0.081 A 
HETATM    9  C17 UNL     1      -6.597 -11.830  31.698  1.00  0.00    -0.011 A 
HETATM   10  C18 UNL     1      -7.635 -12.711  31.136  1.00  0.00     0.052 C 
HETATM   11  C19 UNL     1      -5.347 -11.673  31.142  1.00  0.00     0.058 A 
HETATM   12  C20 UNL     1      -5.010 -12.360  29.998  1.00  0.00     0.280 A 
HETATM   13  O5  UNL     1      -5.834 -13.126  29.478  1.00  0.00    -0.265 OA
ENDROOT
BRANCH   1  14
HETATM   14  N1  UNL     1      -3.528 -12.968  28.259  1.00  0.00    -0.171 N 
HETATM   15  C5  UNL     1      -3.982 -12.809  26.909  1.00  0.00     0.276 A 
HETATM   16  C3  UNL     1      -3.386 -13.840  26.062  1.00  0.00     0.019 A 
HETATM   17  O1  UNL     1      -4.764 -11.921  26.545  1.00  0.00    -0.266 OA
HETATM   18  C2  UNL     1      -2.617 -14.580  26.835  1.00  0.00     0.019 A 
HETATM   19  C4  UNL     1      -3.593 -14.047  24.605  1.00  0.00     0.055 C 
HETATM   20  C1  UNL     1      -1.794 -15.772  26.429  1.00  0.00     0.055 C 
HETATM   21  C21 UNL     1      -2.651 -14.109  28.198  1.00  0.00     0.276 A 
HETATM   22  O6  UNL     1      -2.046 -14.572  29.191  1.00  0.00    -0.266 OA
ENDBRANCH   1  14
BRANCH   2  23
HETATM   23  N3  UNL     1      -1.617 -11.332  29.246  1.00  0.00    -0.371 N 
ATOM     24  H3  UNL     1      -0.973 -12.098  29.447  1.00  0.00     0.161 HD
BRANCH  23  25
HETATM   25  C7  UNL     1      -1.116 -10.363  28.338  1.00  0.00     0.141 C 
BRANCH  25  26
HETATM   26  C8  UNL     1       0.154 -10.755  27.614  1.00  0.00     0.135 C 
BRANCH  26  27
HETATM   27  N4  UNL     1      -0.150 -11.916  26.835  1.00  0.00    -0.419 N 
HETATM   28  C9  UNL     1       0.728 -13.023  26.989  1.00  0.00     0.142 C 
HETATM   29  C10 UNL     1      -0.632 -11.657  25.517  1.00  0.00     0.142 C 
ENDBRANCH  26  27
ENDBRANCH  25  26
ENDBRANCH  23  25
ENDBRANCH   2  23
BRANCH   3  30
HETATM   30  O2  UNL     1      -2.216  -9.882  31.605  1.00  0.00    -0.356 OA
ATOM     31  H2  UNL     1      -2.270  -8.939  31.502  1.00  0.00     0.218 HD
ENDBRANCH   3  30
BRANCH   5  32
HETATM   32  O3  UNL     1      -3.811  -9.266  33.426  1.00  0.00    -0.359 OA
ATOM     33  H3  UNL     1      -3.699  -8.340  33.247  1.00  0.00     0.217 HD
ENDBRANCH   5  32
BRANCH   8  34
HETATM   34  O4  UNL     1      -8.087 -11.206  33.447  1.00  0.00    -0.359 OA
ATOM     35  H4  UNL     1      -8.864 -11.009  32.938  1.00  0.00     0.217 HD
ENDBRANCH   8  34
TORSDOF 8
ENDMDL
