MODEL 1
REMARK VINA RESULT: -8.052861707      0.000      0.000
REMARK  10 active torsions:
REMARK  status: ('A' for Active; 'I' for Inactive)
REMARK    1  A    between atoms: O1_2  and  C2_3 
REMARK    2  A    between atoms: C3_4  and  O2_5 
REMARK    3  A    between atoms: C9_11  and  C10_12 
REMARK    4  A    between atoms: C10_12  and  O3_13 
REMARK    5  A    between atoms: C10_12  and  O4_15 
REMARK    6  A    between atoms: O4_15  and  C11_16 
REMARK    7  A    between atoms: C15_20  and  O5_21 
REMARK    8  A    between atoms: N1_25  and  O7_26 
REMARK    9  A    between atoms: N2_30  and  O8_31 
REMARK   10  A    between atoms: C19_33  and  O9_34 
ROOT
HETATM    1  C2  UNL     1      -4.397 -10.743  29.808  1.00  0.00     0.156 A 
HETATM    2  C3  UNL     1      -4.856 -11.383  28.686  1.00  0.00     0.118 A 
HETATM    3  C5  UNL     1      -3.953 -11.937  27.823  1.00  0.00     0.032 A 
HETATM    4  C6  UNL     1      -4.387 -12.611  26.714  1.00  0.00     0.018 A 
HETATM    5  C7  UNL     1      -3.518 -13.200  25.851  1.00  0.00     0.016 A 
HETATM    6  C8  UNL     1      -2.161 -13.133  26.069  1.00  0.00     0.010 A 
HETATM    7  C9  UNL     1      -1.301 -13.708  25.176  1.00  0.00     0.048 A 
HETATM    8  C15 UNL     1       0.060 -13.590  25.406  1.00  0.00     0.148 A 
HETATM    9  C16 UNL     1       0.506 -12.914  26.499  1.00  0.00     0.305 A 
HETATM   10  O6  UNL     1       1.742 -12.803  26.710  1.00  0.00    -0.263 OA
HETATM   11  N1  UNL     1      -0.350 -12.333  27.406  1.00  0.00    -0.182 N 
HETATM   12  C17 UNL     1      -1.653 -12.440  27.210  1.00  0.00     0.107 A 
HETATM   13  C18 UNL     1      -2.567 -11.846  28.089  1.00  0.00     0.108 A 
HETATM   14  N2  UNL     1      -2.152 -11.225  29.185  1.00  0.00    -0.196 N 
HETATM   15  C19 UNL     1      -3.053 -10.663  30.061  1.00  0.00     0.206 A 
ENDROOT
BRANCH   7  16
HETATM   16  C10 UNL     1      -1.800 -14.510  24.033  1.00  0.00     0.296 C 
BRANCH  16  17
HETATM   17  O3  UNL     1      -1.330 -14.030  22.790  1.00  0.00    -0.367 OA
ATOM     18  H3  UNL     1      -1.824 -14.376  22.056  1.00  0.00     0.213 HD
ENDBRANCH  16  17
BRANCH  16  19
HETATM   19  O4  UNL     1      -1.459 -15.841  24.183  1.00  0.00    -0.347 OA
BRANCH  19  20
HETATM   20  C11 UNL     1      -2.437 -16.726  24.480  1.00  0.00     0.053 C 
HETATM   21  C12 UNL     1      -3.724 -16.496  23.704  1.00  0.00     0.045 C 
HETATM   22  C13 UNL     1      -1.925 -18.090  23.932  1.00  0.00     0.045 C 
HETATM   23  C14 UNL     1      -2.735 -16.987  25.915  1.00  0.00     0.045 C 
ENDBRANCH  19  20
ENDBRANCH  16  19
ENDBRANCH   7  16
BRANCH   8  24
HETATM   24  O5  UNL     1       0.927 -14.180  24.496  1.00  0.00    -0.355 OA
ATOM     25  H5  UNL     1       1.472 -14.896  24.800  1.00  0.00     0.218 HD
ENDBRANCH   8  24
BRANCH  11  26
HETATM   26  O7  UNL     1       0.265 -11.622  28.372  1.00  0.00    -0.279 OA
ATOM     27  H7  UNL     1       0.189 -11.996  29.242  1.00  0.00     0.245 HD
ENDBRANCH  11  26
BRANCH  14  28
HETATM   28  O8  UNL     1      -0.899 -11.150  29.621  1.00  0.00    -0.280 OA
ATOM     29  H8  UNL     1      -0.494 -10.403  30.045  1.00  0.00     0.245 HD
ENDBRANCH  14  28
BRANCH   2  30
HETATM   30  O2  UNL     1      -6.213 -11.493  28.383  1.00  0.00    -0.352 OA
HETATM   31  C4  UNL     1      -6.901 -12.640  28.840  1.00  0.00     0.210 C 
ENDBRANCH   2  30
BRANCH  15  32
HETATM   32  O9  UNL     1      -2.523 -10.037  31.168  1.00  0.00    -0.337 OA
HETATM   33  C20 UNL     1      -2.421 -10.626  32.443  1.00  0.00     0.212 C 
ENDBRANCH  15  32
BRANCH   1  34
HETATM   34  O1  UNL     1      -5.300 -10.177  30.689  1.00  0.00    -0.349 OA
HETATM   35  C1  UNL     1      -5.791 -10.991  31.731  1.00  0.00     0.210 C 
ENDBRANCH   1  34
TORSDOF 10
ENDMDL
MODEL 2
REMARK VINA RESULT: -7.880168768      2.252      7.091
REMARK  10 active torsions:
REMARK  status: ('A' for Active; 'I' for Inactive)
REMARK    1  A    between atoms: O1_2  and  C2_3 
REMARK    2  A    between atoms: C3_4  and  O2_5 
REMARK    3  A    between atoms: C9_11  and  C10_12 
REMARK    4  A    between atoms: C10_12  and  O3_13 
REMARK    5  A    between atoms: C10_12  and  O4_15 
REMARK    6  A    between atoms: O4_15  and  C11_16 
REMARK    7  A    between atoms: C15_20  and  O5_21 
REMARK    8  A    between atoms: N1_25  and  O7_26 
REMARK    9  A    between atoms: N2_30  and  O8_31 
REMARK   10  A    between atoms: C19_33  and  O9_34 
ROOT
HETATM    1  C2  UNL     1      -3.705 -17.900  24.183  1.00  0.00     0.156 A 
HETATM    2  C3  UNL     1      -4.331 -17.382  25.288  1.00  0.00     0.118 A 
HETATM    3  C5  UNL     1      -3.698 -16.411  26.013  1.00  0.00     0.032 A 
HETATM    4  C6  UNL     1      -4.315 -15.852  27.099  1.00  0.00     0.018 A 
HETATM    5  C7  UNL     1      -3.728 -14.863  27.823  1.00  0.00     0.016 A 
HETATM    6  C8  UNL     1      -2.481 -14.392  27.482  1.00  0.00     0.010 A 
HETATM    7  C9  UNL     1      -1.895 -13.417  28.239  1.00  0.00     0.048 A 
HETATM    8  C15 UNL     1      -0.623 -12.990  27.891  1.00  0.00     0.148 A 
HETATM    9  C16 UNL     1       0.006 -13.544  26.819  1.00  0.00     0.305 A 
HETATM   10  O6  UNL     1       1.162 -13.161  26.500  1.00  0.00    -0.263 OA
HETATM   11  N1  UNL     1      -0.575 -14.524  26.048  1.00  0.00    -0.182 N 
HETATM   12  C17 UNL     1      -1.790 -14.940  26.359  1.00  0.00     0.107 A 
HETATM   13  C18 UNL     1      -2.417 -15.954  25.623  1.00  0.00     0.108 A 
HETATM   14  N2  UNL     1      -1.839 -16.471  24.547  1.00  0.00    -0.196 N 
HETATM   15  C19 UNL     1      -2.467 -17.450  23.811  1.00  0.00     0.206 A 
ENDROOT
BRANCH   7  16
HETATM   16  C10 UNL     1      -2.622 -12.765  29.354  1.00  0.00     0.296 C 
BRANCH  16  17
HETATM   17  O3  UNL     1      -1.849 -12.694  30.536  1.00  0.00    -0.367 OA
ATOM     18  H3  UNL     1      -1.448 -11.842  30.657  1.00  0.00     0.213 HD
ENDBRANCH  16  17
BRANCH  16  19
HETATM   19  O4  UNL     1      -3.043 -11.499  28.992  1.00  0.00    -0.347 OA
BRANCH  19  20
HETATM   20  C11 UNL     1      -4.288 -11.109  29.348  1.00  0.00     0.053 C 
HETATM   21  C12 UNL     1      -4.316 -10.206  30.571  1.00  0.00     0.045 C 
HETATM   22  C13 UNL     1      -4.760 -10.171  28.199  1.00  0.00     0.045 C 
HETATM   23  C14 UNL     1      -5.349 -12.148  29.444  1.00  0.00     0.045 C 
ENDBRANCH  19  20
ENDBRANCH  16  19
ENDBRANCH   7  16
BRANCH   8  24
HETATM   24  O5  UNL     1      -0.036 -11.996  28.662  1.00  0.00    -0.355 OA
ATOM     25  H5  UNL     1       0.198 -11.181  28.235  1.00  0.00     0.218 HD
ENDBRANCH   8  24
BRANCH  11  26
HETATM   26  O7  UNL     1       0.229 -15.027  25.090  1.00  0.00    -0.279 OA
ATOM     27  H7  UNL     1       1.065 -15.347  25.410  1.00  0.00     0.245 HD
ENDBRANCH  11  26
BRANCH  14  28
HETATM   28  O8  UNL     1      -0.695 -16.074  24.001  1.00  0.00    -0.280 OA
ATOM     29  H8  UNL     1      -0.113 -16.601  23.467  1.00  0.00     0.245 HD
ENDBRANCH  14  28
BRANCH   2  30
HETATM   30  O2  UNL     1      -5.591 -17.804  25.709  1.00  0.00    -0.352 OA
HETATM   31  C4  UNL     1      -5.675 -19.013  26.436  1.00  0.00     0.210 C 
ENDBRANCH   2  30
BRANCH  15  32
HETATM   32  O9  UNL     1      -1.783 -17.925  22.713  1.00  0.00    -0.337 OA
HETATM   33  C20 UNL     1      -1.210 -19.208  22.627  1.00  0.00     0.212 C 
ENDBRANCH  15  32
BRANCH   1  34
HETATM   34  O1  UNL     1      -4.335 -18.884  23.442  1.00  0.00    -0.349 OA
HETATM   35  C1  UNL     1      -5.011 -18.484  22.271  1.00  0.00     0.210 C 
ENDBRANCH   1  34
TORSDOF 10
ENDMDL
MODEL 3
REMARK VINA RESULT: -7.831422554      2.417      7.035
REMARK  10 active torsions:
REMARK  status: ('A' for Active; 'I' for Inactive)
REMARK    1  A    between atoms: O1_2  and  C2_3 
REMARK    2  A    between atoms: C3_4  and  O2_5 
REMARK    3  A    between atoms: C9_11  and  C10_12 
REMARK    4  A    between atoms: C10_12  and  O3_13 
REMARK    5  A    between atoms: C10_12  and  O4_15 
REMARK    6  A    between atoms: O4_15  and  C11_16 
REMARK    7  A    between atoms: C15_20  and  O5_21 
REMARK    8  A    between atoms: N1_25  and  O7_26 
REMARK    9  A    between atoms: N2_30  and  O8_31 
REMARK   10  A    between atoms: C19_33  and  O9_34 
ROOT
HETATM    1  C2  UNL     1      -3.231 -18.576  25.356  1.00  0.00     0.156 A 
HETATM    2  C3  UNL     1      -3.856 -17.994  26.428  1.00  0.00     0.118 A 
HETATM    3  C5  UNL     1      -3.332 -16.850  26.960  1.00  0.00     0.032 A 
HETATM    4  C6  UNL     1      -3.956 -16.230  28.008  1.00  0.00     0.018 A 
HETATM    5  C7  UNL     1      -3.479 -15.074  28.541  1.00  0.00     0.016 A 
HETATM    6  C8  UNL     1      -2.340 -14.489  28.037  1.00  0.00     0.010 A 
HETATM    7  C9  UNL     1      -1.860 -13.342  28.604  1.00  0.00     0.048 A 
HETATM    8  C15 UNL     1      -0.690 -12.799  28.097  1.00  0.00     0.148 A 
HETATM    9  C16 UNL     1      -0.053 -13.410  27.062  1.00  0.00     0.305 A 
HETATM   10  O6  UNL     1       1.011 -12.921  26.599  1.00  0.00    -0.263 OA
HETATM   11  N1  UNL     1      -0.528 -14.564  26.481  1.00  0.00    -0.182 N 
HETATM   12  C17 UNL     1      -1.647 -15.094  26.945  1.00  0.00     0.107 A 
HETATM   13  C18 UNL     1      -2.160 -16.282  26.407  1.00  0.00     0.108 A 
HETATM   14  N2  UNL     1      -1.580 -16.864  25.367  1.00  0.00    -0.196 N 
HETATM   15  C19 UNL     1      -2.099 -18.018  24.825  1.00  0.00     0.206 A 
ENDROOT
BRANCH   7  16
HETATM   16  C10 UNL     1      -2.605 -12.641  29.677  1.00  0.00     0.296 C 
BRANCH  16  17
HETATM   17  O3  UNL     1      -1.779 -12.292  30.770  1.00  0.00    -0.367 OA
ATOM     18  H3  UNL     1      -1.567 -13.039  31.318  1.00  0.00     0.213 HD
ENDBRANCH  16  17
BRANCH  16  19
HETATM   19  O4  UNL     1      -3.233 -11.514  29.183  1.00  0.00    -0.347 OA
BRANCH  19  20
HETATM   20  C11 UNL     1      -4.579 -11.530  29.057  1.00  0.00     0.053 C 
HETATM   21  C12 UNL     1      -5.285 -12.296  30.164  1.00  0.00     0.045 C 
HETATM   22  C13 UNL     1      -5.023 -10.057  29.299  1.00  0.00     0.045 C 
HETATM   23  C14 UNL     1      -5.156 -11.882  27.731  1.00  0.00     0.045 C 
ENDBRANCH  19  20
ENDBRANCH  16  19
ENDBRANCH   7  16
BRANCH   8  24
HETATM   24  O5  UNL     1      -0.210 -11.631  28.675  1.00  0.00    -0.355 OA
ATOM     25  H5  UNL     1       0.723 -11.564  28.835  1.00  0.00     0.218 HD
ENDBRANCH   8  24
BRANCH  11  26
HETATM   26  O7  UNL     1       0.280 -15.084  25.537  1.00  0.00    -0.279 OA
ATOM     27  H7  UNL     1       0.083 -15.983  25.305  1.00  0.00     0.245 HD
ENDBRANCH  11  26
BRANCH  14  28
HETATM   28  O8  UNL     1      -0.543 -16.397  24.679  1.00  0.00    -0.280 OA
ATOM     29  H8  UNL     1       0.302 -16.817  24.579  1.00  0.00     0.245 HD
ENDBRANCH  14  28
BRANCH   2  30
HETATM   30  O2  UNL     1      -5.011 -18.522  27.005  1.00  0.00    -0.352 OA
HETATM   31  C4  UNL     1      -6.249 -18.236  26.387  1.00  0.00     0.210 C 
ENDBRANCH   2  30
BRANCH  15  32
HETATM   32  O9  UNL     1      -1.422 -18.549  23.749  1.00  0.00    -0.337 OA
HETATM   33  C20 UNL     1      -1.952 -18.660  22.450  1.00  0.00     0.212 C 
ENDBRANCH  15  32
BRANCH   1  34
HETATM   34  O1  UNL     1      -3.751 -19.736  24.810  1.00  0.00    -0.349 OA
HETATM   35  C1  UNL     1      -3.302 -20.963  25.340  1.00  0.00     0.210 C 
ENDBRANCH   1  34
TORSDOF 10
ENDMDL
MODEL 4
REMARK VINA RESULT: -7.784901864      2.594      8.236
REMARK  10 active torsions:
REMARK  status: ('A' for Active; 'I' for Inactive)
REMARK    1  A    between atoms: O1_2  and  C2_3 
REMARK    2  A    between atoms: C3_4  and  O2_5 
REMARK    3  A    between atoms: C9_11  and  C10_12 
REMARK    4  A    between atoms: C10_12  and  O3_13 
REMARK    5  A    between atoms: C10_12  and  O4_15 
REMARK    6  A    between atoms: O4_15  and  C11_16 
REMARK    7  A    between atoms: C15_20  and  O5_21 
REMARK    8  A    between atoms: N1_25  and  O7_26 
REMARK    9  A    between atoms: N2_30  and  O8_31 
REMARK   10  A    between atoms: C19_33  and  O9_34 
ROOT
HETATM    1  C2  UNL     1      -2.921 -12.977  27.495  1.00  0.00     0.156 A 
HETATM    2  C3  UNL     1      -4.135 -13.227  28.080  1.00  0.00     0.118 A 
HETATM    3  C5  UNL     1      -4.453 -12.588  29.246  1.00  0.00     0.032 A 
HETATM    4  C6  UNL     1      -5.672 -12.793  29.831  1.00  0.00     0.018 A 
HETATM    5  C7  UNL     1      -6.033 -12.151  30.974  1.00  0.00     0.016 A 
HETATM    6  C8  UNL     1      -5.170 -11.268  31.583  1.00  0.00     0.010 A 
HETATM    7  C9  UNL     1      -5.539 -10.653  32.746  1.00  0.00     0.048 A 
HETATM    8  C15 UNL     1      -4.633  -9.798  33.353  1.00  0.00     0.148 A 
HETATM    9  C16 UNL     1      -3.413  -9.593  32.787  1.00  0.00     0.305 A 
HETATM   10  O6  UNL     1      -2.586  -8.819  33.336  1.00  0.00    -0.263 OA
HETATM   11  N1  UNL     1      -3.032 -10.205  31.615  1.00  0.00    -0.182 N 
HETATM   12  C17 UNL     1      -3.884 -11.018  31.016  1.00  0.00     0.107 A 
HETATM   13  C18 UNL     1      -3.536 -11.686  29.835  1.00  0.00     0.108 A 
HETATM   14  N2  UNL     1      -2.371 -11.461  29.243  1.00  0.00    -0.196 N 
HETATM   15  C19 UNL     1      -2.040 -12.099  28.070  1.00  0.00     0.206 A 
ENDROOT
BRANCH   7  16
HETATM   16  C10 UNL     1      -6.900 -10.822  33.309  1.00  0.00     0.296 C 
BRANCH  16  17
HETATM   17  O3  UNL     1      -6.923 -11.708  34.411  1.00  0.00    -0.367 OA
ATOM     18  H3  UNL     1      -7.758 -11.700  34.865  1.00  0.00     0.213 HD
ENDBRANCH  16  17
BRANCH  16  19
HETATM   19  O4  UNL     1      -7.434  -9.601  33.676  1.00  0.00    -0.347 OA
BRANCH  19  20
HETATM   20  C11 UNL     1      -8.714  -9.563  34.108  1.00  0.00     0.053 C 
HETATM   21  C12 UNL     1      -8.845  -9.477  35.621  1.00  0.00     0.045 C 
HETATM   22  C13 UNL     1      -9.262  -8.188  33.623  1.00  0.00     0.045 C 
HETATM   23  C14 UNL     1      -9.672 -10.562  33.559  1.00  0.00     0.045 C 
ENDBRANCH  19  20
ENDBRANCH  16  19
ENDBRANCH   7  16
BRANCH   8  24
HETATM   24  O5  UNL     1      -5.017  -9.174  34.532  1.00  0.00    -0.355 OA
ATOM     25  H5  UNL     1      -5.822  -9.459  34.946  1.00  0.00     0.218 HD
ENDBRANCH   8  24
BRANCH  11  26
HETATM   26  O7  UNL     1      -1.756  -9.964  31.254  1.00  0.00    -0.279 OA
ATOM     27  H7  UNL     1      -1.445  -9.093  31.472  1.00  0.00     0.245 HD
ENDBRANCH  11  26
BRANCH  14  28
HETATM   28  O8  UNL     1      -1.457 -10.570  29.616  1.00  0.00    -0.280 OA
ATOM     29  H8  UNL     1      -0.881 -10.636  30.368  1.00  0.00     0.245 HD
ENDBRANCH  14  28
BRANCH   2  30
HETATM   30  O2  UNL     1      -5.068 -14.110  27.536  1.00  0.00    -0.352 OA
HETATM   31  C4  UNL     1      -4.875 -15.492  27.754  1.00  0.00     0.210 C 
ENDBRANCH   2  30
BRANCH  15  32
HETATM   32  O9  UNL     1      -0.806 -11.802  27.536  1.00  0.00    -0.337 OA
HETATM   33  C20 UNL     1       0.315 -12.652  27.599  1.00  0.00     0.212 C 
ENDBRANCH  15  32
BRANCH   1  34
HETATM   34  O1  UNL     1      -2.587 -13.618  26.316  1.00  0.00    -0.349 OA
HETATM   35  C1  UNL     1      -2.945 -12.986  25.108  1.00  0.00     0.210 C 
ENDBRANCH   1  34
TORSDOF 10
ENDMDL
MODEL 5
REMARK VINA RESULT: -7.777171207      3.064      5.749
REMARK  10 active torsions:
REMARK  status: ('A' for Active; 'I' for Inactive)
REMARK    1  A    between atoms: O1_2  and  C2_3 
REMARK    2  A    between atoms: C3_4  and  O2_5 
REMARK    3  A    between atoms: C9_11  and  C10_12 
REMARK    4  A    between atoms: C10_12  and  O3_13 
REMARK    5  A    between atoms: C10_12  and  O4_15 
REMARK    6  A    between atoms: O4_15  and  C11_16 
REMARK    7  A    between atoms: C15_20  and  O5_21 
REMARK    8  A    between atoms: N1_25  and  O7_26 
REMARK    9  A    between atoms: N2_30  and  O8_31 
REMARK   10  A    between atoms: C19_33  and  O9_34 
ROOT
HETATM    1  C2  UNL     1      -0.096 -13.293  27.706  1.00  0.00     0.156 A 
HETATM    2  C3  UNL     1      -1.069 -14.051  28.304  1.00  0.00     0.118 A 
HETATM    3  C5  UNL     1      -1.651 -15.062  27.593  1.00  0.00     0.032 A 
HETATM    4  C6  UNL     1      -2.600 -15.855  28.178  1.00  0.00     0.018 A 
HETATM    5  C7  UNL     1      -3.177 -16.890  27.511  1.00  0.00     0.016 A 
HETATM    6  C8  UNL     1      -2.821 -17.170  26.212  1.00  0.00     0.010 A 
HETATM    7  C9  UNL     1      -3.432 -18.196  25.548  1.00  0.00     0.048 A 
HETATM    8  C15 UNL     1      -3.077 -18.428  24.229  1.00  0.00     0.148 A 
HETATM    9  C16 UNL     1      -2.142 -17.642  23.631  1.00  0.00     0.305 A 
HETATM   10  O6  UNL     1      -1.818 -17.848  22.432  1.00  0.00    -0.263 OA
HETATM   11  N1  UNL     1      -1.518 -16.607  24.290  1.00  0.00    -0.182 N 
HETATM   12  C17 UNL     1      -1.837 -16.373  25.552  1.00  0.00     0.107 A 
HETATM   13  C18 UNL     1      -1.251 -15.316  26.261  1.00  0.00     0.108 A 
HETATM   14  N2  UNL     1      -0.304 -14.570  25.710  1.00  0.00    -0.196 N 
HETATM   15  C19 UNL     1       0.289 -13.548  26.416  1.00  0.00     0.206 A 
ENDROOT
BRANCH   7  16
HETATM   16  C10 UNL     1      -4.389 -19.097  26.234  1.00  0.00     0.296 C 
BRANCH  16  17
HETATM   17  O3  UNL     1      -5.681 -19.050  25.661  1.00  0.00    -0.367 OA
ATOM     18  H3  UNL     1      -5.822 -19.742  25.027  1.00  0.00     0.213 HD
ENDBRANCH  16  17
BRANCH  16  19
HETATM   19  O4  UNL     1      -3.923 -20.398  26.237  1.00  0.00    -0.347 OA
BRANCH  19  20
HETATM   20  C11 UNL     1      -3.995 -21.104  27.387  1.00  0.00     0.053 C 
HETATM   21  C12 UNL     1      -5.228 -21.988  27.483  1.00  0.00     0.045 C 
HETATM   22  C13 UNL     1      -2.825 -22.129  27.304  1.00  0.00     0.045 C 
HETATM   23  C14 UNL     1      -3.771 -20.383  28.670  1.00  0.00     0.045 C 
ENDBRANCH  19  20
ENDBRANCH  16  19
ENDBRANCH   7  16
BRANCH   8  24
HETATM   24  O5  UNL     1      -3.699 -19.476  23.562  1.00  0.00    -0.355 OA
ATOM     25  H5  UNL     1      -3.858 -19.379  22.631  1.00  0.00     0.218 HD
ENDBRANCH   8  24
BRANCH  11  26
HETATM   26  O7  UNL     1      -0.695 -15.872  23.517  1.00  0.00    -0.279 OA
ATOM     27  H7  UNL     1      -1.135 -15.212  22.994  1.00  0.00     0.245 HD
ENDBRANCH  11  26
BRANCH  14  28
HETATM   28  O8  UNL     1       0.248 -14.753  24.514  1.00  0.00    -0.280 OA
ATOM     29  H8  UNL     1      -0.197 -14.707  23.676  1.00  0.00     0.245 HD
ENDBRANCH  14  28
BRANCH   2  30
HETATM   30  O2  UNL     1      -1.496 -13.833  29.614  1.00  0.00    -0.352 OA
HETATM   31  C4  UNL     1      -2.604 -12.981  29.815  1.00  0.00     0.210 C 
ENDBRANCH   2  30
BRANCH  15  32
HETATM   32  O9  UNL     1       1.259 -12.828  25.755  1.00  0.00    -0.337 OA
HETATM   33  C20 UNL     1       1.007 -11.694  24.960  1.00  0.00     0.212 C 
ENDBRANCH  15  32
BRANCH   1  34
HETATM   34  O1  UNL     1       0.500 -12.265  28.414  1.00  0.00    -0.349 OA
HETATM   35  C1  UNL     1      -0.058 -10.977  28.284  1.00  0.00     0.210 C 
ENDBRANCH   1  34
TORSDOF 10
ENDMDL
