MODEL 1
REMARK VINA RESULT: -8.996601568      0.000      0.000
REMARK  8 active torsions:
REMARK  status: ('A' for Active; 'I' for Inactive)
REMARK    1  A    between atoms: C3_3  and  S1_4 
REMARK    2  A    between atoms: S1_4  and  S2_5 
REMARK    3  A    between atoms: S2_5  and  N1_6 
REMARK    4  A    between atoms: C9_15  and  C10_16 
REMARK    5  A    between atoms: C16_23  and  C17_24 
REMARK    6  A    between atoms: C17_24  and  O5_25 
REMARK    7  A    between atoms: C18_27  and  O6_28 
REMARK    8  A    between atoms: C19_30  and  O7_31 
ROOT
HETATM    1  N1  UNL     1      -3.204 -16.610  25.847  1.00  0.00    -0.205 N 
HETATM    2  O1  UNL     1      -4.448 -17.146  25.813  1.00  0.00    -0.240 OA
HETATM    3  C4  UNL     1      -4.739 -18.027  24.746  1.00  0.00     0.174 C 
HETATM    4  C5  UNL     1      -4.336 -17.607  23.559  1.00  0.00    -0.015 C 
HETATM    5  C6  UNL     1      -4.417 -18.178  22.181  1.00  0.00     0.216 C 
HETATM    6  O2  UNL     1      -3.434 -17.445  21.471  1.00  0.00    -0.316 OA
HETATM    7  C7  UNL     1      -3.100 -16.282  22.163  1.00  0.00     0.270 C 
HETATM    8  O3  UNL     1      -2.404 -15.370  21.652  1.00  0.00    -0.264 OA
HETATM    9  C8  UNL     1      -3.660 -16.288  23.513  1.00  0.00     0.149 C 
HETATM   10  C9  UNL     1      -2.586 -16.326  24.611  1.00  0.00     0.174 C 
ENDROOT
BRANCH   1  11
HETATM   11  S2  UNL     1      -2.793 -15.675  27.223  1.00  0.00     0.048 SA
BRANCH  11  12
HETATM   12  S1  UNL     1      -4.241 -14.155  27.559  1.00  0.00    -0.037 SA
BRANCH  12  13
HETATM   13  C3  UNL     1      -3.486 -12.612  28.087  1.00  0.00     0.227 C 
HETATM   14  C2  UNL     1      -3.710 -11.489  27.160  1.00  0.00    -0.019 C 
HETATM   15  C1  UNL     1      -4.477 -11.598  26.113  1.00  0.00     0.020 C 
HETATM   16  C19 UNL     1      -3.022 -10.209  27.451  1.00  0.00     0.181 C 
HETATM   17  C18 UNL     1      -2.248 -10.397  28.735  1.00  0.00     0.182 C 
HETATM   18  C16 UNL     1      -1.430 -11.661  28.622  1.00  0.00     0.178 C 
HETATM   19  O4  UNL     1      -2.122 -12.771  28.206  1.00  0.00    -0.360 OA
BRANCH  16  20
HETATM   20  O7  UNL     1      -3.933  -9.153  27.555  1.00  0.00    -0.388 OA
ATOM     21  H7  UNL     1      -3.487  -8.317  27.613  1.00  0.00     0.210 HD
ENDBRANCH  16  20
BRANCH  17  22
HETATM   22  O6  UNL     1      -1.422  -9.301  28.996  1.00  0.00    -0.390 OA
ATOM     23  H6  UNL     1      -1.580  -8.965  29.871  1.00  0.00     0.210 HD
ENDBRANCH  17  22
BRANCH  18  24
HETATM   24  C17 UNL     1      -0.246 -11.360  27.725  1.00  0.00     0.198 C 
BRANCH  24  25
HETATM   25  O5  UNL     1       0.930 -11.248  28.465  1.00  0.00    -0.398 OA
ATOM     26  H5  UNL     1       1.641 -11.724  28.053  1.00  0.00     0.209 HD
ENDBRANCH  24  25
ENDBRANCH  18  24
ENDBRANCH  12  13
ENDBRANCH  11  12
ENDBRANCH   1  11
BRANCH  10  27
HETATM   27  C10 UNL     1      -1.748 -15.115  24.557  1.00  0.00    -0.031 A 
HETATM   28  C11 UNL     1      -2.270 -13.841  24.509  1.00  0.00     0.009 A 
HETATM   29  C12 UNL     1      -1.441 -12.713  24.467  1.00  0.00     0.001 A 
HETATM   30  C13 UNL     1      -0.092 -12.876  24.475  1.00  0.00     0.000 A 
HETATM   31  C14 UNL     1       0.464 -14.143  24.523  1.00  0.00     0.001 A 
HETATM   32  C15 UNL     1      -0.364 -15.225  24.563  1.00  0.00     0.009 A 
ENDBRANCH  10  27
TORSDOF 8
ENDMDL
MODEL 2
REMARK VINA RESULT: -8.847026692      2.117      6.513
REMARK  8 active torsions:
REMARK  status: ('A' for Active; 'I' for Inactive)
REMARK    1  A    between atoms: C3_3  and  S1_4 
REMARK    2  A    between atoms: S1_4  and  S2_5 
REMARK    3  A    between atoms: S2_5  and  N1_6 
REMARK    4  A    between atoms: C9_15  and  C10_16 
REMARK    5  A    between atoms: C16_23  and  C17_24 
REMARK    6  A    between atoms: C17_24  and  O5_25 
REMARK    7  A    between atoms: C18_27  and  O6_28 
REMARK    8  A    between atoms: C19_30  and  O7_31 
ROOT
HETATM    1  N1  UNL     1      -2.713 -13.468  28.834  1.00  0.00    -0.205 N 
HETATM    2  O1  UNL     1      -3.152 -13.207  30.089  1.00  0.00    -0.240 OA
HETATM    3  C4  UNL     1      -4.342 -12.453  30.209  1.00  0.00     0.174 C 
HETATM    4  C5  UNL     1      -4.406 -11.394  29.420  1.00  0.00    -0.015 C 
HETATM    5  C6  UNL     1      -5.433 -10.331  29.201  1.00  0.00     0.216 C 
HETATM    6  O2  UNL     1      -5.066  -9.783  27.947  1.00  0.00    -0.316 OA
HETATM    7  C7  UNL     1      -3.752 -10.126  27.631  1.00  0.00     0.270 C 
HETATM    8  O3  UNL     1      -3.130  -9.603  26.674  1.00  0.00    -0.264 OA
HETATM    9  C8  UNL     1      -3.235 -11.143  28.545  1.00  0.00     0.149 C 
HETATM   10  C9  UNL     1      -2.934 -12.480  27.850  1.00  0.00     0.174 C 
ENDROOT
BRANCH   1  11
HETATM   11  S2  UNL     1      -1.369 -14.518  28.679  1.00  0.00     0.048 SA
BRANCH  11  12
HETATM   12  S1  UNL     1      -1.917 -16.294  27.646  1.00  0.00    -0.037 SA
BRANCH  12  13
HETATM   13  C3  UNL     1      -2.056 -16.026  25.874  1.00  0.00     0.227 C 
HETATM   14  C2  UNL     1      -3.445 -15.965  25.386  1.00  0.00    -0.019 C 
HETATM   15  C1  UNL     1      -4.465 -15.998  26.196  1.00  0.00     0.020 C 
HETATM   16  C19 UNL     1      -3.656 -15.871  23.923  1.00  0.00     0.181 C 
HETATM   17  C18 UNL     1      -2.292 -15.820  23.275  1.00  0.00     0.182 C 
HETATM   18  C16 UNL     1      -1.457 -16.950  23.824  1.00  0.00     0.178 C 
HETATM   19  O4  UNL     1      -1.433 -17.050  25.192  1.00  0.00    -0.360 OA
BRANCH  16  20
HETATM   20  O7  UNL     1      -4.421 -14.749  23.590  1.00  0.00    -0.388 OA
ATOM     21  H7  UNL     1      -3.936 -14.153  23.032  1.00  0.00     0.210 HD
ENDBRANCH  16  20
BRANCH  17  22
HETATM   22  O6  UNL     1      -2.387 -15.911  21.883  1.00  0.00    -0.390 OA
ATOM     23  H6  UNL     1      -3.272 -16.137  21.623  1.00  0.00     0.210 HD
ENDBRANCH  17  22
BRANCH  18  24
HETATM   24  C17 UNL     1      -1.934 -18.231  23.169  1.00  0.00     0.198 C 
BRANCH  24  25
HETATM   25  O5  UNL     1      -1.122 -18.577  22.090  1.00  0.00    -0.398 OA
ATOM     26  H5  UNL     1      -0.428 -19.167  22.358  1.00  0.00     0.209 HD
ENDBRANCH  24  25
ENDBRANCH  18  24
ENDBRANCH  12  13
ENDBRANCH  11  12
ENDBRANCH   1  11
BRANCH  10  27
HETATM   27  C10 UNL     1      -1.876 -12.312  26.839  1.00  0.00    -0.031 A 
HETATM   28  C11 UNL     1      -0.631 -11.800  27.131  1.00  0.00     0.009 A 
HETATM   29  C12 UNL     1       0.353 -11.662  26.144  1.00  0.00     0.001 A 
HETATM   30  C13 UNL     1       0.076 -12.041  24.869  1.00  0.00     0.000 A 
HETATM   31  C14 UNL     1      -1.166 -12.560  24.542  1.00  0.00     0.001 A 
HETATM   32  C15 UNL     1      -2.106 -12.683  25.521  1.00  0.00     0.009 A 
ENDBRANCH  10  27
TORSDOF 8
ENDMDL
MODEL 3
REMARK VINA RESULT: -8.663917658      1.707      7.266
REMARK  8 active torsions:
REMARK  status: ('A' for Active; 'I' for Inactive)
REMARK    1  A    between atoms: C3_3  and  S1_4 
REMARK    2  A    between atoms: S1_4  and  S2_5 
REMARK    3  A    between atoms: S2_5  and  N1_6 
REMARK    4  A    between atoms: C9_15  and  C10_16 
REMARK    5  A    between atoms: C16_23  and  C17_24 
REMARK    6  A    between atoms: C17_24  and  O5_25 
REMARK    7  A    between atoms: C18_27  and  O6_28 
REMARK    8  A    between atoms: C19_30  and  O7_31 
ROOT
HETATM    1  N1  UNL     1      -2.597 -13.751  28.399  1.00  0.00    -0.205 N 
HETATM    2  O1  UNL     1      -2.771 -13.715  29.742  1.00  0.00    -0.240 OA
HETATM    3  C4  UNL     1      -2.989 -12.448  30.329  1.00  0.00     0.174 C 
HETATM    4  C5  UNL     1      -2.179 -11.495  29.898  1.00  0.00    -0.015 C 
HETATM    5  C6  UNL     1      -2.035 -10.042  30.216  1.00  0.00     0.216 C 
HETATM    6  O2  UNL     1      -1.298  -9.543  29.114  1.00  0.00    -0.316 OA
HETATM    7  C7  UNL     1      -0.677 -10.588  28.430  1.00  0.00     0.270 C 
HETATM    8  O3  UNL     1       0.188 -10.392  27.542  1.00  0.00    -0.264 OA
HETATM    9  C8  UNL     1      -1.166 -11.887  28.888  1.00  0.00     0.149 C 
HETATM   10  C9  UNL     1      -1.931 -12.660  27.802  1.00  0.00     0.174 C 
ENDROOT
BRANCH   1  11
HETATM   11  S2  UNL     1      -2.499 -15.296  27.664  1.00  0.00     0.048 SA
BRANCH  11  12
HETATM   12  S1  UNL     1      -4.072 -15.561  26.259  1.00  0.00    -0.037 SA
BRANCH  12  13
HETATM   13  C3  UNL     1      -3.502 -16.360  24.753  1.00  0.00     0.227 C 
HETATM   14  C2  UNL     1      -3.611 -15.516  23.550  1.00  0.00    -0.019 C 
HETATM   15  C1  UNL     1      -3.988 -14.270  23.610  1.00  0.00     0.020 C 
HETATM   16  C19 UNL     1      -3.281 -16.133  22.245  1.00  0.00     0.181 C 
HETATM   17  C18 UNL     1      -2.852 -17.556  22.516  1.00  0.00     0.182 C 
HETATM   18  C16 UNL     1      -3.889 -18.211  23.396  1.00  0.00     0.178 C 
HETATM   19  O4  UNL     1      -4.242 -17.499  24.515  1.00  0.00    -0.360 OA
BRANCH  16  20
HETATM   20  O7  UNL     1      -2.280 -15.417  21.581  1.00  0.00    -0.388 OA
ATOM     21  H7  UNL     1      -1.991 -15.871  20.799  1.00  0.00     0.210 HD
ENDBRANCH  16  20
BRANCH  17  22
HETATM   22  O6  UNL     1      -2.692 -18.275  21.329  1.00  0.00    -0.390 OA
ATOM     23  H6  UNL     1      -3.377 -18.052  20.709  1.00  0.00     0.210 HD
ENDBRANCH  17  22
BRANCH  18  24
HETATM   24  C17 UNL     1      -5.088 -18.533  22.526  1.00  0.00     0.198 C 
BRANCH  24  25
HETATM   25  O5  UNL     1      -5.009 -19.830  22.021  1.00  0.00    -0.398 OA
ATOM     26  H5  UNL     1      -4.390 -19.880  21.302  1.00  0.00     0.209 HD
ENDBRANCH  24  25
ENDBRANCH  18  24
ENDBRANCH  12  13
ENDBRANCH  11  12
ENDBRANCH   1  11
BRANCH  10  27
HETATM   27  C10 UNL     1      -1.044 -12.972  26.667  1.00  0.00    -0.031 A 
HETATM   28  C11 UNL     1       0.126 -13.686  26.801  1.00  0.00     0.009 A 
HETATM   29  C12 UNL     1       0.940 -13.969  25.698  1.00  0.00     0.001 A 
HETATM   30  C13 UNL     1       0.568 -13.533  24.466  1.00  0.00     0.000 A 
HETATM   31  C14 UNL     1      -0.602 -12.813  24.297  1.00  0.00     0.001 A 
HETATM   32  C15 UNL     1      -1.376 -12.549  25.387  1.00  0.00     0.009 A 
ENDBRANCH  10  27
TORSDOF 8
ENDMDL
MODEL 4
REMARK VINA RESULT: -8.440053455      1.191      1.471
REMARK  8 active torsions:
REMARK  status: ('A' for Active; 'I' for Inactive)
REMARK    1  A    between atoms: C3_3  and  S1_4 
REMARK    2  A    between atoms: S1_4  and  S2_5 
REMARK    3  A    between atoms: S2_5  and  N1_6 
REMARK    4  A    between atoms: C9_15  and  C10_16 
REMARK    5  A    between atoms: C16_23  and  C17_24 
REMARK    6  A    between atoms: C17_24  and  O5_25 
REMARK    7  A    between atoms: C18_27  and  O6_28 
REMARK    8  A    between atoms: C19_30  and  O7_31 
ROOT
HETATM    1  N1  UNL     1      -2.673 -16.500  26.210  1.00  0.00    -0.205 N 
HETATM    2  O1  UNL     1      -3.851 -17.154  26.348  1.00  0.00    -0.240 OA
HETATM    3  C4  UNL     1      -4.249 -17.996  25.285  1.00  0.00     0.174 C 
HETATM    4  C5  UNL     1      -4.101 -17.470  24.081  1.00  0.00    -0.015 C 
HETATM    5  C6  UNL     1      -4.374 -17.965  22.698  1.00  0.00     0.216 C 
HETATM    6  O2  UNL     1      -3.601 -17.099  21.887  1.00  0.00    -0.316 OA
HETATM    7  C7  UNL     1      -3.253 -15.950  22.596  1.00  0.00     0.270 C 
HETATM    8  O3  UNL     1      -2.741 -14.945  22.044  1.00  0.00    -0.264 OA
HETATM    9  C8  UNL     1      -3.562 -16.090  24.018  1.00  0.00     0.149 C 
HETATM   10  C9  UNL     1      -2.311 -16.085  24.910  1.00  0.00     0.174 C 
ENDROOT
BRANCH   1  11
HETATM   11  S2  UNL     1      -2.108 -15.611  27.561  1.00  0.00     0.048 SA
BRANCH  11  12
HETATM   12  S1  UNL     1      -3.695 -14.515  28.455  1.00  0.00    -0.037 SA
BRANCH  12  13
HETATM   13  C3  UNL     1      -3.126 -12.963  29.162  1.00  0.00     0.227 C 
HETATM   14  C2  UNL     1      -4.081 -11.851  29.009  1.00  0.00    -0.019 C 
HETATM   15  C1  UNL     1      -5.268 -12.023  28.501  1.00  0.00     0.020 C 
HETATM   16  C19 UNL     1      -3.647 -10.506  29.451  1.00  0.00     0.181 C 
HETATM   17  C18 UNL     1      -2.253 -10.647  30.018  1.00  0.00     0.182 C 
HETATM   18  C16 UNL     1      -1.405 -11.403  29.023  1.00  0.00     0.178 C 
HETATM   19  O4  UNL     1      -1.951 -12.572  28.556  1.00  0.00    -0.360 OA
BRANCH  16  20
HETATM   20  O7  UNL     1      -4.528  -9.970  30.395  1.00  0.00    -0.388 OA
ATOM     21  H7  UNL     1      -4.159  -9.999  31.269  1.00  0.00     0.210 HD
ENDBRANCH  16  20
BRANCH  17  22
HETATM   22  O6  UNL     1      -1.688  -9.400  30.296  1.00  0.00    -0.390 OA
ATOM     23  H6  UNL     1      -0.757  -9.485  30.465  1.00  0.00     0.210 HD
ENDBRANCH  17  22
BRANCH  18  24
HETATM   24  C17 UNL     1      -1.060 -10.447  27.898  1.00  0.00     0.198 C 
BRANCH  24  25
HETATM   25  O5  UNL     1       0.114  -9.748  28.174  1.00  0.00    -0.398 OA
ATOM     26  H5  UNL     1       0.116  -8.900  27.749  1.00  0.00     0.209 HD
ENDBRANCH  24  25
ENDBRANCH  18  24
ENDBRANCH  12  13
ENDBRANCH  11  12
ENDBRANCH   1  11
BRANCH  10  27
HETATM   27  C10 UNL     1      -1.605 -14.796  24.805  1.00  0.00    -0.031 A 
HETATM   28  C11 UNL     1      -0.281 -14.690  24.440  1.00  0.00     0.009 A 
HETATM   29  C12 UNL     1       0.354 -13.446  24.344  1.00  0.00     0.001 A 
HETATM   30  C13 UNL     1      -0.350 -12.315  24.614  1.00  0.00     0.000 A 
HETATM   31  C14 UNL     1      -1.682 -12.387  24.983  1.00  0.00     0.001 A 
HETATM   32  C15 UNL     1      -2.277 -13.610  25.071  1.00  0.00     0.009 A 
ENDBRANCH  10  27
TORSDOF 8
ENDMDL
MODEL 5
REMARK VINA RESULT: -8.425841335      2.016      7.323
REMARK  8 active torsions:
REMARK  status: ('A' for Active; 'I' for Inactive)
REMARK    1  A    between atoms: C3_3  and  S1_4 
REMARK    2  A    between atoms: S1_4  and  S2_5 
REMARK    3  A    between atoms: S2_5  and  N1_6 
REMARK    4  A    between atoms: C9_15  and  C10_16 
REMARK    5  A    between atoms: C16_23  and  C17_24 
REMARK    6  A    between atoms: C17_24  and  O5_25 
REMARK    7  A    between atoms: C18_27  and  O6_28 
REMARK    8  A    between atoms: C19_30  and  O7_31 
ROOT
HETATM    1  N1  UNL     1      -3.877 -12.835  26.704  1.00  0.00    -0.205 N 
HETATM    2  O1  UNL     1      -4.910 -13.089  27.543  1.00  0.00    -0.240 OA
HETATM    3  C4  UNL     1      -5.209 -12.103  28.511  1.00  0.00     0.174 C 
HETATM    4  C5  UNL     1      -4.156 -11.610  29.140  1.00  0.00    -0.015 C 
HETATM    5  C6  UNL     1      -3.981 -10.580  30.208  1.00  0.00     0.216 C 
HETATM    6  O2  UNL     1      -2.611 -10.237  30.103  1.00  0.00    -0.316 OA
HETATM    7  C7  UNL     1      -1.917 -11.216  29.393  1.00  0.00     0.270 C 
HETATM    8  O3  UNL     1      -0.663 -11.244  29.334  1.00  0.00    -0.264 OA
HETATM    9  C8  UNL     1      -2.833 -12.161  28.758  1.00  0.00     0.149 C 
HETATM   10  C9  UNL     1      -2.782 -12.109  27.222  1.00  0.00     0.174 C 
ENDROOT
BRANCH   1  11
HETATM   11  S2  UNL     1      -3.615 -13.946  25.427  1.00  0.00     0.048 SA
BRANCH  11  12
HETATM   12  S1  UNL     1      -4.186 -15.909  26.010  1.00  0.00    -0.037 SA
BRANCH  12  13
HETATM   13  C3  UNL     1      -3.745 -17.134  24.772  1.00  0.00     0.227 C 
HETATM   14  C2  UNL     1      -2.303 -17.433  24.714  1.00  0.00    -0.019 C 
HETATM   15  C1  UNL     1      -1.456 -16.924  25.563  1.00  0.00     0.020 C 
HETATM   16  C19 UNL     1      -1.830 -18.338  23.641  1.00  0.00     0.181 C 
HETATM   17  C18 UNL     1      -3.045 -18.778  22.857  1.00  0.00     0.182 C 
HETATM   18  C16 UNL     1      -3.845 -17.554  22.485  1.00  0.00     0.178 C 
HETATM   19  O4  UNL     1      -4.115 -16.694  23.519  1.00  0.00    -0.360 OA
BRANCH  16  20
HETATM   20  O7  UNL     1      -1.139 -19.434  24.167  1.00  0.00    -0.388 OA
ATOM     21  H7  UNL     1      -1.496 -20.254  23.847  1.00  0.00     0.210 HD
ENDBRANCH  16  20
BRANCH  17  22
HETATM   22  O6  UNL     1      -2.680 -19.493  21.713  1.00  0.00    -0.390 OA
ATOM     23  H6  UNL     1      -1.984 -20.108  21.911  1.00  0.00     0.210 HD
ENDBRANCH  17  22
BRANCH  18  24
HETATM   24  C17 UNL     1      -3.120 -16.863  21.346  1.00  0.00     0.198 C 
BRANCH  24  25
HETATM   25  O5  UNL     1      -2.727 -15.575  21.707  1.00  0.00    -0.398 OA
ATOM     26  H5  UNL     1      -2.887 -14.959  21.003  1.00  0.00     0.209 HD
ENDBRANCH  24  25
ENDBRANCH  18  24
ENDBRANCH  12  13
ENDBRANCH  11  12
ENDBRANCH   1  11
BRANCH  10  27
HETATM   27  C10 UNL     1      -1.447 -12.497  26.735  1.00  0.00    -0.031 A 
HETATM   28  C11 UNL     1      -0.795 -13.636  27.152  1.00  0.00     0.009 A 
HETATM   29  C12 UNL     1       0.471 -13.976  26.661  1.00  0.00     0.001 A 
HETATM   30  C13 UNL     1       1.072 -13.165  25.750  1.00  0.00     0.000 A 
HETATM   31  C14 UNL     1       0.443 -12.013  25.310  1.00  0.00     0.001 A 
HETATM   32  C15 UNL     1      -0.788 -11.704  25.805  1.00  0.00     0.009 A 
ENDBRANCH  10  27
TORSDOF 8
ENDMDL
