MODEL 1
REMARK VINA RESULT: -7.908277461      0.000      0.000
REMARK  8 active torsions:
REMARK  status: ('A' for Active; 'I' for Inactive)
REMARK    1  A    between atoms: C2_2  and  C3_3 
REMARK    2  A    between atoms: C3_3  and  O1_4 
REMARK    3  A    between atoms: C4_6  and  N1_7 
REMARK    4  A    between atoms: C13_17  and  O3_18 
REMARK    5  A    between atoms: C13_17  and  C14_20 
REMARK    6  A    between atoms: C14_20  and  O4_21 
REMARK    7  A    between atoms: C14_20  and  C15_23 
REMARK    8  A    between atoms: C19_30  and  O7_31 
ROOT
HETATM    1  C3  UNL     1      -1.603 -14.339  26.780  1.00  0.00     0.141 C 
HETATM    2  C4  UNL     1      -1.197 -14.726  25.419  1.00  0.00     0.154 C 
HETATM    3  C7  UNL     1      -1.858 -16.086  25.180  1.00  0.00     0.004 A 
HETATM    4  C8  UNL     1      -1.141 -17.149  24.674  1.00  0.00     0.052 A 
HETATM    5  C9  UNL     1      -1.785 -18.349  24.468  1.00  0.00     0.111 A 
HETATM    6  C10 UNL     1      -3.126 -18.453  24.774  1.00  0.00     0.143 A 
HETATM    7  C11 UNL     1      -3.863 -17.390  25.286  1.00  0.00     0.080 A 
HETATM    8  C12 UNL     1      -3.199 -16.204  25.483  1.00  0.00     0.084 A 
HETATM    9  O2  UNL     1      -3.808 -15.059  25.988  1.00  0.00    -0.307 OA
HETATM   10  C13 UNL     1      -3.110 -14.266  26.945  1.00  0.00     0.232 C 
HETATM   11  O5  UNL     1      -3.733 -19.677  24.551  1.00  0.00    -0.190 OA
HETATM   12  O6  UNL     1      -2.972 -20.741  24.302  1.00  0.00    -0.173 OA
HETATM   13  C19 UNL     1      -1.995 -20.459  23.356  1.00  0.00     0.452 C 
HETATM   14  O8  UNL     1      -1.154 -19.471  23.964  1.00  0.00    -0.292 OA
ENDROOT
BRANCH  10  15
HETATM   15  O3  UNL     1      -3.517 -12.937  26.828  1.00  0.00    -0.360 OA
ATOM     16  H3  UNL     1      -4.347 -12.826  27.279  1.00  0.00     0.213 HD
ENDBRANCH  10  15
BRANCH  10  17
HETATM   17  C14 UNL     1      -3.492 -14.779  28.306  1.00  0.00     0.224 C 
BRANCH  17  18
HETATM   18  O4  UNL     1      -4.156 -15.982  28.266  1.00  0.00    -0.385 OA
ATOM     19  H4  UNL     1      -5.072 -15.914  28.509  1.00  0.00     0.210 HD
ENDBRANCH  17  18
BRANCH  17  20
HETATM   20  C15 UNL     1      -4.236 -13.733  29.112  1.00  0.00     0.016 A 
HETATM   21  C16 UNL     1      -3.697 -12.784  29.936  1.00  0.00     0.018 A 
HETATM   22  C17 UNL     1      -4.552 -11.953  30.556  1.00  0.00     0.008 A 
HETATM   23  C18 UNL     1      -5.886 -12.127  30.311  1.00  0.00     0.050 A 
HETATM   24  S1  UNL     1      -5.909 -13.441  29.226  1.00  0.00    -0.104 SA
ENDBRANCH  17  20
ENDBRANCH  10  17
BRANCH   1  25
HETATM   25  C2  UNL     1      -1.035 -13.113  27.399  1.00  0.00     0.042 C 
HETATM   26  C1  UNL     1       0.453 -13.166  27.517  1.00  0.00     0.008 C 
ENDBRANCH   1  25
BRANCH   1  27
HETATM   27  O1  UNL     1      -1.149 -15.402  27.625  1.00  0.00    -0.382 OA
ATOM     28  H1  UNL     1      -1.942 -15.735  28.028  1.00  0.00     0.211 HD
ENDBRANCH   1  27
BRANCH   2  29
HETATM   29  N1  UNL     1      -1.399 -13.892  24.320  1.00  0.00    -0.410 N 
HETATM   30  C5  UNL     1      -0.393 -12.982  23.905  1.00  0.00     0.143 C 
HETATM   31  C6  UNL     1      -1.959 -14.531  23.150  1.00  0.00     0.143 C 
ENDBRANCH   2  29
BRANCH  13  32
HETATM   32  O7  UNL     1      -1.260 -21.601  23.050  1.00  0.00    -0.342 OA
HETATM   33  C20 UNL     1      -0.789 -22.129  24.234  1.00  0.00     0.207 C 
ENDBRANCH  13  32
TORSDOF 8
ENDMDL
MODEL 2
REMARK VINA RESULT: -7.563191847      1.866      2.707
REMARK  8 active torsions:
REMARK  status: ('A' for Active; 'I' for Inactive)
REMARK    1  A    between atoms: C2_2  and  C3_3 
REMARK    2  A    between atoms: C3_3  and  O1_4 
REMARK    3  A    between atoms: C4_6  and  N1_7 
REMARK    4  A    between atoms: C13_17  and  O3_18 
REMARK    5  A    between atoms: C13_17  and  C14_20 
REMARK    6  A    between atoms: C14_20  and  O4_21 
REMARK    7  A    between atoms: C14_20  and  C15_23 
REMARK    8  A    between atoms: C19_30  and  O7_31 
ROOT
HETATM    1  C3  UNL     1      -2.232 -13.206  27.381  1.00  0.00     0.141 C 
HETATM    2  C4  UNL     1      -1.023 -13.896  26.900  1.00  0.00     0.154 C 
HETATM    3  C7  UNL     1      -1.488 -14.719  25.696  1.00  0.00     0.004 A 
HETATM    4  C8  UNL     1      -1.146 -16.048  25.566  1.00  0.00     0.052 A 
HETATM    5  C9  UNL     1      -1.582 -16.743  24.459  1.00  0.00     0.111 A 
HETATM    6  C10 UNL     1      -2.346 -16.089  23.514  1.00  0.00     0.143 A 
HETATM    7  C11 UNL     1      -2.700 -14.749  23.632  1.00  0.00     0.080 A 
HETATM    8  C12 UNL     1      -2.254 -14.078  24.744  1.00  0.00     0.084 A 
HETATM    9  O2  UNL     1      -2.531 -12.738  24.993  1.00  0.00    -0.307 OA
HETATM   10  C13 UNL     1      -2.872 -12.332  26.317  1.00  0.00     0.232 C 
HETATM   11  O5  UNL     1      -2.762 -16.826  22.418  1.00  0.00    -0.190 OA
HETATM   12  O6  UNL     1      -2.631 -18.150  22.440  1.00  0.00    -0.173 OA
HETATM   13  C19 UNL     1      -1.371 -18.531  22.882  1.00  0.00     0.452 C 
HETATM   14  O8  UNL     1      -1.291 -18.076  24.238  1.00  0.00    -0.292 OA
ENDROOT
BRANCH  10  15
HETATM   15  O3  UNL     1      -2.471 -11.010  26.513  1.00  0.00    -0.360 OA
ATOM     16  H3  UNL     1      -2.981 -10.634  27.221  1.00  0.00     0.213 HD
ENDBRANCH  10  15
BRANCH  10  17
HETATM   17  C14 UNL     1      -4.369 -12.415  26.432  1.00  0.00     0.224 C 
BRANCH  17  18
HETATM   18  O4  UNL     1      -5.024 -12.015  25.291  1.00  0.00    -0.385 OA
ATOM     19  H4  UNL     1      -4.537 -12.194  24.496  1.00  0.00     0.210 HD
ENDBRANCH  17  18
BRANCH  17  20
HETATM   20  C15 UNL     1      -4.876 -11.704  27.671  1.00  0.00     0.016 A 
HETATM   21  C16 UNL     1      -4.731 -10.381  27.985  1.00  0.00     0.018 A 
HETATM   22  C17 UNL     1      -5.266  -9.963  29.145  1.00  0.00     0.008 A 
HETATM   23  C18 UNL     1      -5.909 -10.896  29.911  1.00  0.00     0.050 A 
HETATM   24  S1  UNL     1      -5.749 -12.323  28.995  1.00  0.00    -0.104 SA
ENDBRANCH  17  20
ENDBRANCH  10  17
BRANCH   1  25
HETATM   25  C2  UNL     1      -2.178 -12.405  28.630  1.00  0.00     0.042 C 
HETATM   26  C1  UNL     1      -2.260 -13.252  29.859  1.00  0.00     0.008 C 
ENDBRANCH   1  25
BRANCH   1  27
HETATM   27  O1  UNL     1      -3.169 -14.250  27.672  1.00  0.00    -0.382 OA
ATOM     28  H1  UNL     1      -2.989 -14.480  28.575  1.00  0.00     0.211 HD
ENDBRANCH   1  27
BRANCH   2  29
HETATM   29  N1  UNL     1       0.149 -13.206  26.589  1.00  0.00    -0.410 N 
HETATM   30  C5  UNL     1       0.805 -12.414  27.566  1.00  0.00     0.143 C 
HETATM   31  C6  UNL     1       1.141 -13.966  25.863  1.00  0.00     0.143 C 
ENDBRANCH   2  29
BRANCH  13  32
HETATM   32  O7  UNL     1      -1.225 -19.914  22.824  1.00  0.00    -0.342 OA
HETATM   33  C20 UNL     1      -2.423 -20.446  22.395  1.00  0.00     0.207 C 
ENDBRANCH  13  32
TORSDOF 8
ENDMDL
MODEL 3
REMARK VINA RESULT: -7.551444033      0.962      1.016
REMARK  8 active torsions:
REMARK  status: ('A' for Active; 'I' for Inactive)
REMARK    1  A    between atoms: C2_2  and  C3_3 
REMARK    2  A    between atoms: C3_3  and  O1_4 
REMARK    3  A    between atoms: C4_6  and  N1_7 
REMARK    4  A    between atoms: C13_17  and  O3_18 
REMARK    5  A    between atoms: C13_17  and  C14_20 
REMARK    6  A    between atoms: C14_20  and  O4_21 
REMARK    7  A    between atoms: C14_20  and  C15_23 
REMARK    8  A    between atoms: C19_30  and  O7_31 
ROOT
HETATM    1  C3  UNL     1      -1.738 -14.668  26.584  1.00  0.00     0.141 C 
HETATM    2  C4  UNL     1      -1.587 -15.165  25.206  1.00  0.00     0.154 C 
HETATM    3  C7  UNL     1      -2.443 -16.433  25.146  1.00  0.00     0.004 A 
HETATM    4  C8  UNL     1      -1.947 -17.603  24.612  1.00  0.00     0.052 A 
HETATM    5  C9  UNL     1      -2.761 -18.714  24.573  1.00  0.00     0.111 A 
HETATM    6  C10 UNL     1      -4.046 -18.624  25.068  1.00  0.00     0.143 A 
HETATM    7  C11 UNL     1      -4.559 -17.450  25.611  1.00  0.00     0.080 A 
HETATM    8  C12 UNL     1      -3.730 -16.357  25.639  1.00  0.00     0.084 A 
HETATM    9  O2  UNL     1      -4.108 -15.120  26.152  1.00  0.00    -0.307 OA
HETATM   10  C13 UNL     1      -3.184 -14.387  26.952  1.00  0.00     0.232 C 
HETATM   11  O5  UNL     1      -4.828 -19.764  25.007  1.00  0.00    -0.190 OA
HETATM   12  O6  UNL     1      -4.253 -20.930  24.722  1.00  0.00    -0.173 OA
HETATM   13  C19 UNL     1      -3.395 -20.823  23.634  1.00  0.00     0.452 C 
HETATM   14  O8  UNL     1      -2.357 -19.931  24.057  1.00  0.00    -0.292 OA
ENDROOT
BRANCH  10  15
HETATM   15  O3  UNL     1      -3.432 -13.021  26.811  1.00  0.00    -0.360 OA
ATOM     16  H3  UNL     1      -4.278 -12.902  26.394  1.00  0.00     0.213 HD
ENDBRANCH  10  15
BRANCH  10  17
HETATM   17  C14 UNL     1      -3.425 -14.785  28.382  1.00  0.00     0.224 C 
BRANCH  17  18
HETATM   18  O4  UNL     1      -4.349 -15.794  28.517  1.00  0.00    -0.385 OA
ATOM     19  H4  UNL     1      -4.045 -16.629  28.181  1.00  0.00     0.210 HD
ENDBRANCH  17  18
BRANCH  17  20
HETATM   20  C15 UNL     1      -3.746 -13.586  29.252  1.00  0.00     0.016 A 
HETATM   21  C16 UNL     1      -2.870 -12.840  29.990  1.00  0.00     0.018 A 
HETATM   22  C17 UNL     1      -3.378 -11.813  30.692  1.00  0.00     0.008 A 
HETATM   23  C18 UNL     1      -4.727 -11.602  30.609  1.00  0.00     0.050 A 
HETATM   24  S1  UNL     1      -5.245 -12.838  29.557  1.00  0.00    -0.104 SA
ENDBRANCH  17  20
ENDBRANCH  10  17
BRANCH   1  25
HETATM   25  C2  UNL     1      -0.937 -13.503  27.041  1.00  0.00     0.042 C 
HETATM   26  C1  UNL     1       0.182 -13.898  27.950  1.00  0.00     0.008 C 
ENDBRANCH   1  25
BRANCH   1  27
HETATM   27  O1  UNL     1      -1.304 -15.745  27.422  1.00  0.00    -0.382 OA
ATOM     28  H1  UNL     1      -0.426 -15.938  27.118  1.00  0.00     0.211 HD
ENDBRANCH   1  27
BRANCH   2  29
HETATM   29  N1  UNL     1      -1.840 -14.359  24.096  1.00  0.00    -0.410 N 
HETATM   30  C5  UNL     1      -0.956 -13.307  23.747  1.00  0.00     0.143 C 
HETATM   31  C6  UNL     1      -2.224 -15.064  22.893  1.00  0.00     0.143 C 
ENDBRANCH   2  29
BRANCH  13  32
HETATM   32  O7  UNL     1      -2.864 -22.065  23.300  1.00  0.00    -0.342 OA
HETATM   33  C20 UNL     1      -2.541 -22.038  21.959  1.00  0.00     0.207 C 
ENDBRANCH  13  32
TORSDOF 8
ENDMDL
MODEL 4
REMARK VINA RESULT: -7.482153434      3.174      7.464
REMARK  8 active torsions:
REMARK  status: ('A' for Active; 'I' for Inactive)
REMARK    1  A    between atoms: C2_2  and  C3_3 
REMARK    2  A    between atoms: C3_3  and  O1_4 
REMARK    3  A    between atoms: C4_6  and  N1_7 
REMARK    4  A    between atoms: C13_17  and  O3_18 
REMARK    5  A    between atoms: C13_17  and  C14_20 
REMARK    6  A    between atoms: C14_20  and  O4_21 
REMARK    7  A    between atoms: C14_20  and  C15_23 
REMARK    8  A    between atoms: C19_30  and  O7_31 
ROOT
HETATM    1  C3  UNL     1      -4.270 -17.478  27.237  1.00  0.00     0.141 C 
HETATM    2  C4  UNL     1      -4.674 -16.244  27.930  1.00  0.00     0.154 C 
HETATM    3  C7  UNL     1      -3.869 -15.130  27.257  1.00  0.00     0.004 A 
HETATM    4  C8  UNL     1      -3.181 -14.196  28.002  1.00  0.00     0.052 A 
HETATM    5  C9  UNL     1      -2.479 -13.207  27.348  1.00  0.00     0.111 A 
HETATM    6  C10 UNL     1      -2.485 -13.180  25.969  1.00  0.00     0.143 A 
HETATM    7  C11 UNL     1      -3.173 -14.115  25.203  1.00  0.00     0.080 A 
HETATM    8  C12 UNL     1      -3.865 -15.091  25.877  1.00  0.00     0.084 A 
HETATM    9  O2  UNL     1      -4.596 -16.090  25.243  1.00  0.00    -0.307 OA
HETATM   10  C13 UNL     1      -4.530 -17.424  25.741  1.00  0.00     0.232 C 
HETATM   11  O5  UNL     1      -1.767 -12.169  25.353  1.00  0.00    -0.190 OA
HETATM   12  O6  UNL     1      -0.921 -11.441  26.079  1.00  0.00    -0.173 OA
HETATM   13  C19 UNL     1      -1.499 -11.024  27.271  1.00  0.00     0.452 C 
HETATM   14  O8  UNL     1      -1.760 -12.226  28.006  1.00  0.00    -0.292 OA
ENDROOT
BRANCH  10  15
HETATM   15  O3  UNL     1      -5.728 -18.082  25.464  1.00  0.00    -0.360 OA
ATOM     16  H3  UNL     1      -5.689 -18.961  25.823  1.00  0.00     0.213 HD
ENDBRANCH  10  15
BRANCH  10  17
HETATM   17  C14 UNL     1      -3.410 -18.113  25.012  1.00  0.00     0.224 C 
BRANCH  17  18
HETATM   18  O4  UNL     1      -2.324 -17.299  24.791  1.00  0.00    -0.385 OA
ATOM     19  H4  UNL     1      -1.963 -16.930  25.588  1.00  0.00     0.210 HD
ENDBRANCH  17  18
BRANCH  17  20
HETATM   20  C15 UNL     1      -3.896 -18.787  23.745  1.00  0.00     0.016 A 
HETATM   21  C16 UNL     1      -4.173 -18.193  22.545  1.00  0.00     0.018 A 
HETATM   22  C17 UNL     1      -4.595 -18.990  21.548  1.00  0.00     0.008 A 
HETATM   23  C18 UNL     1      -4.712 -20.325  21.820  1.00  0.00     0.050 A 
HETATM   24  S1  UNL     1      -4.232 -20.430  23.450  1.00  0.00    -0.104 SA
ENDBRANCH  17  20
ENDBRANCH  10  17
BRANCH   1  25
HETATM   25  C2  UNL     1      -4.768 -18.792  27.719  1.00  0.00     0.042 C 
HETATM   26  C1  UNL     1      -3.930 -19.353  28.823  1.00  0.00     0.008 C 
ENDBRANCH   1  25
BRANCH   1  27
HETATM   27  O1  UNL     1      -2.850 -17.556  27.403  1.00  0.00    -0.382 OA
ATOM     28  H1  UNL     1      -2.675 -17.021  28.168  1.00  0.00     0.211 HD
ENDBRANCH   1  27
BRANCH   2  29
HETATM   29  N1  UNL     1      -6.011 -15.866  28.053  1.00  0.00    -0.410 N 
HETATM   30  C5  UNL     1      -7.000 -16.812  28.425  1.00  0.00     0.143 C 
HETATM   31  C6  UNL     1      -6.244 -14.638  28.779  1.00  0.00     0.143 C 
ENDBRANCH   2  29
BRANCH  13  32
HETATM   32  O7  UNL     1      -0.630 -10.201  27.980  1.00  0.00    -0.342 OA
HETATM   33  C20 UNL     1      -1.249  -9.852  29.162  1.00  0.00     0.207 C 
ENDBRANCH  13  32
TORSDOF 8
ENDMDL
MODEL 5
REMARK VINA RESULT: -7.452174038      2.811      7.478
REMARK  8 active torsions:
REMARK  status: ('A' for Active; 'I' for Inactive)
REMARK    1  A    between atoms: C2_2  and  C3_3 
REMARK    2  A    between atoms: C3_3  and  O1_4 
REMARK    3  A    between atoms: C4_6  and  N1_7 
REMARK    4  A    between atoms: C13_17  and  O3_18 
REMARK    5  A    between atoms: C13_17  and  C14_20 
REMARK    6  A    between atoms: C14_20  and  O4_21 
REMARK    7  A    between atoms: C14_20  and  C15_23 
REMARK    8  A    between atoms: C19_30  and  O7_31 
ROOT
HETATM    1  C3  UNL     1      -2.179 -14.489  24.882  1.00  0.00     0.141 C 
HETATM    2  C4  UNL     1      -1.566 -13.185  25.185  1.00  0.00     0.154 C 
HETATM    3  C7  UNL     1      -1.702 -13.026  26.701  1.00  0.00     0.004 A 
HETATM    4  C8  UNL     1      -2.184 -11.860  27.256  1.00  0.00     0.052 A 
HETATM    5  C9  UNL     1      -2.278 -11.764  28.627  1.00  0.00     0.111 A 
HETATM    6  C10 UNL     1      -1.886 -12.835  29.404  1.00  0.00     0.143 A 
HETATM    7  C11 UNL     1      -1.398 -14.018  28.859  1.00  0.00     0.080 A 
HETATM    8  C12 UNL     1      -1.314 -14.090  27.490  1.00  0.00     0.084 A 
HETATM    9  O2  UNL     1      -0.846 -15.209  26.809  1.00  0.00    -0.307 OA
HETATM   10  C13 UNL     1      -1.520 -15.636  25.627  1.00  0.00     0.232 C 
HETATM   11  O5  UNL     1      -1.997 -12.694  30.777  1.00  0.00    -0.190 OA
HETATM   12  O6  UNL     1      -2.690 -11.670  31.269  1.00  0.00    -0.173 OA
HETATM   13  C19 UNL     1      -2.350 -10.477  30.644  1.00  0.00     0.452 C 
HETATM   14  O8  UNL     1      -2.748 -10.638  29.277  1.00  0.00    -0.292 OA
ENDROOT
BRANCH  10  15
HETATM   15  O3  UNL     1      -0.610 -16.267  24.778  1.00  0.00    -0.360 OA
ATOM     16  H3  UNL     1      -0.590 -15.805  23.948  1.00  0.00     0.213 HD
ENDBRANCH  10  15
BRANCH  10  17
HETATM   17  C14 UNL     1      -2.567 -16.628  26.049  1.00  0.00     0.224 C 
BRANCH  17  18
HETATM   18  O4  UNL     1      -2.298 -17.220  27.261  1.00  0.00    -0.385 OA
ATOM     19  H4  UNL     1      -1.496 -16.906  27.662  1.00  0.00     0.210 HD
ENDBRANCH  17  18
BRANCH  17  20
HETATM   20  C15 UNL     1      -2.851 -17.643  24.960  1.00  0.00     0.016 A 
HETATM   21  C16 UNL     1      -4.071 -17.991  24.450  1.00  0.00     0.018 A 
HETATM   22  C17 UNL     1      -4.088 -18.921  23.480  1.00  0.00     0.008 A 
HETATM   23  C18 UNL     1      -2.885 -19.439  23.086  1.00  0.00     0.050 A 
HETATM   24  S1  UNL     1      -1.769 -18.617  24.077  1.00  0.00    -0.104 SA
ENDBRANCH  17  20
ENDBRANCH  10  17
BRANCH   1  25
HETATM   25  C2  UNL     1      -2.338 -14.920  23.469  1.00  0.00     0.042 C 
HETATM   26  C1  UNL     1      -3.748 -14.802  22.988  1.00  0.00     0.008 C 
ENDBRANCH   1  25
BRANCH   1  27
HETATM   27  O1  UNL     1      -3.521 -14.397  25.375  1.00  0.00    -0.382 OA
ATOM     28  H1  UNL     1      -3.439 -13.901  26.181  1.00  0.00     0.211 HD
ENDBRANCH   1  27
BRANCH   2  29
HETATM   29  N1  UNL     1      -0.270 -12.864  24.780  1.00  0.00    -0.410 N 
HETATM   30  C5  UNL     1      -0.004 -12.475  23.442  1.00  0.00     0.143 C 
HETATM   31  C6  UNL     1       0.460 -11.992  25.673  1.00  0.00     0.143 C 
ENDBRANCH   2  29
BRANCH  13  32
HETATM   32  O7  UNL     1      -3.025  -9.406  31.223  1.00  0.00    -0.342 OA
HETATM   33  C20 UNL     1      -2.418  -9.129  32.431  1.00  0.00     0.207 C 
ENDBRANCH  13  32
TORSDOF 8
ENDMDL
