MODEL 1
REMARK VINA RESULT: -8.436474591      0.000      0.000
REMARK  14 active torsions:
REMARK  status: ('A' for Active; 'I' for Inactive)
REMARK    1  A    between atoms: C2_2  and  C4_4 
REMARK    2  A    between atoms: C4_4  and  C5_5 
REMARK    3  A    between atoms: C5_5  and  N1_6 
REMARK    4  A    between atoms: C5_5  and  C11_15 
REMARK       I    between atoms: N1_6  and  C6_8 
REMARK    5  A    between atoms: C6_8  and  O2_10 
REMARK    6  A    between atoms: O2_10  and  C7_11 
REMARK       I    between atoms: C11_15  and  N2_17 
REMARK    7  A    between atoms: N2_17  and  C12_19 
REMARK    8  A    between atoms: C12_19  and  C13_20 
REMARK    9  A    between atoms: C12_19  and  C17_24 
REMARK   10  A    between atoms: C13_20  and  C14_21 
REMARK   11  A    between atoms: C17_24  and  C18_26 
REMARK       I    between atoms: N3_31  and  C21_32 
REMARK   12  A    between atoms: C21_32  and  C22_34 
REMARK   13  A    between atoms: C22_34  and  N4_35 
REMARK   14  A    between atoms: C22_34  and  C26_42 
REMARK       I    between atoms: N4_35  and  C23_37 
REMARK       I    between atoms: C23_37  and  N5_39 
ROOT
HETATM    1  C12 UNL     1      19.339  23.597  18.733  1.00  0.00     0.157 C 
ENDROOT
BRANCH   1   2
HETATM    2  N2  UNL     1      20.272  24.303  17.893  1.00  0.00    -0.348 N 
HETATM    3  C11 UNL     1      20.756  25.583  17.903  1.00  0.00     0.241 C 
HETATM    4  O3  UNL     1      20.431  26.409  18.785  1.00  0.00    -0.271 OA
ATOM      5  H2  UNL     1      20.648  23.733  17.136  1.00  0.00     0.163 HD
BRANCH   3   6
HETATM    6  C5  UNL     1      21.710  26.067  16.854  1.00  0.00     0.179 C 
BRANCH   6   7
HETATM    7  C4  UNL     1      21.129  27.320  16.251  1.00  0.00     0.038 C 
BRANCH   7   8
HETATM    8  C2  UNL     1      20.925  27.383  14.802  1.00  0.00    -0.020 C 
HETATM    9  C1  UNL     1      21.744  28.425  14.074  1.00  0.00     0.009 C 
HETATM   10  C3  UNL     1      19.454  27.732  14.478  1.00  0.00     0.009 C 
ENDBRANCH   7   8
ENDBRANCH   6   7
BRANCH   6  11
HETATM   11  N1  UNL     1      22.892  26.524  17.626  1.00  0.00    -0.324 N 
HETATM   12  C6  UNL     1      24.144  26.640  16.998  1.00  0.00     0.362 C 
HETATM   13  O1  UNL     1      24.260  26.348  15.753  1.00  0.00    -0.238 OA
ATOM     14  H1  UNL     1      22.796  26.753  18.615  1.00  0.00     0.165 HD
BRANCH  12  15
HETATM   15  O2  UNL     1      25.292  27.052  17.617  1.00  0.00    -0.294 OA
BRANCH  15  16
HETATM   16  C7  UNL     1      26.394  26.267  17.964  1.00  0.00     0.061 C 
HETATM   17  C8  UNL     1      26.014  24.804  18.090  1.00  0.00     0.046 C 
HETATM   18  C9  UNL     1      27.492  26.335  16.910  1.00  0.00     0.046 C 
HETATM   19  C10 UNL     1      26.915  26.729  19.305  1.00  0.00     0.046 C 
ENDBRANCH  15  16
ENDBRANCH  12  15
ENDBRANCH   6  11
ENDBRANCH   3   6
ENDBRANCH   1   2
BRANCH   1  20
HETATM   20  C13 UNL     1      20.001  22.797  19.849  1.00  0.00     0.037 C 
BRANCH  20  21
HETATM   21  C14 UNL     1      19.940  23.443  21.190  1.00  0.00    -0.020 C 
HETATM   22  C15 UNL     1      18.787  24.456  21.123  1.00  0.00     0.009 C 
HETATM   23  C16 UNL     1      21.206  24.329  21.399  1.00  0.00     0.009 C 
ENDBRANCH  20  21
ENDBRANCH   1  20
BRANCH   1  24
HETATM   24  C17 UNL     1      18.484  22.734  17.942  1.00  0.00     0.180 C 
HETATM   25  O4  UNL     1      18.511  21.517  18.259  1.00  0.00    -0.293 OA
BRANCH  24  26
HETATM   26  C18 UNL     1      17.587  23.048  16.828  1.00  0.00     0.241 C 
HETATM   27  C19 UNL     1      18.151  24.232  16.079  1.00  0.00     0.217 C 
HETATM   28  O5  UNL     1      19.015  24.276  15.250  1.00  0.00    -0.283 OA
HETATM   29  S1  UNL     1      17.179  25.608  16.759  1.00  0.00    -0.070 SA
HETATM   30  C20 UNL     1      16.157  24.583  17.906  1.00  0.00     0.209 C 
HETATM   31  N3  UNL     1      16.225  23.326  17.128  1.00  0.00    -0.322 N 
HETATM   32  C21 UNL     1      15.041  22.636  16.767  1.00  0.00     0.244 C 
HETATM   33  O6  UNL     1      13.920  23.068  17.221  1.00  0.00    -0.271 OA
BRANCH  32  34
HETATM   34  C22 UNL     1      14.968  21.443  15.900  1.00  0.00     0.181 C 
BRANCH  34  35
HETATM   35  N4  UNL     1      14.032  20.468  16.456  1.00  0.00    -0.329 N 
HETATM   36  C23 UNL     1      14.348  19.611  17.514  1.00  0.00     0.318 C 
HETATM   37  O7  UNL     1      15.479  19.628  18.060  1.00  0.00    -0.247 OA
HETATM   38  N5  UNL     1      13.388  18.692  18.002  1.00  0.00    -0.343 N 
HETATM   39  C24 UNL     1      12.045  18.578  17.464  1.00  0.00     0.154 C 
HETATM   40  C25 UNL     1      13.718  17.783  19.107  1.00  0.00     0.154 C 
ATOM     41  H4  UNL     1      13.098  20.410  16.050  1.00  0.00     0.165 HD
ENDBRANCH  34  35
BRANCH  34  42
HETATM   42  C26 UNL     1      14.435  21.740  14.512  1.00  0.00     0.009 C 
HETATM   43  C27 UNL     1      13.923  20.451  13.855  1.00  0.00     0.012 C 
HETATM   44  C28 UNL     1      15.617  22.286  13.709  1.00  0.00     0.012 C 
ENDBRANCH  34  42
ENDBRANCH  32  34
ENDBRANCH  24  26
ENDBRANCH   1  24
TORSDOF 14
ENDMDL
MODEL 2
REMARK VINA RESULT: -8.410853099      0.869      1.106
REMARK  14 active torsions:
REMARK  status: ('A' for Active; 'I' for Inactive)
REMARK    1  A    between atoms: C2_2  and  C4_4 
REMARK    2  A    between atoms: C4_4  and  C5_5 
REMARK    3  A    between atoms: C5_5  and  N1_6 
REMARK    4  A    between atoms: C5_5  and  C11_15 
REMARK       I    between atoms: N1_6  and  C6_8 
REMARK    5  A    between atoms: C6_8  and  O2_10 
REMARK    6  A    between atoms: O2_10  and  C7_11 
REMARK       I    between atoms: C11_15  and  N2_17 
REMARK    7  A    between atoms: N2_17  and  C12_19 
REMARK    8  A    between atoms: C12_19  and  C13_20 
REMARK    9  A    between atoms: C12_19  and  C17_24 
REMARK   10  A    between atoms: C13_20  and  C14_21 
REMARK   11  A    between atoms: C17_24  and  C18_26 
REMARK       I    between atoms: N3_31  and  C21_32 
REMARK   12  A    between atoms: C21_32  and  C22_34 
REMARK   13  A    between atoms: C22_34  and  N4_35 
REMARK   14  A    between atoms: C22_34  and  C26_42 
REMARK       I    between atoms: N4_35  and  C23_37 
REMARK       I    between atoms: C23_37  and  N5_39 
ROOT
HETATM    1  C12 UNL     1      19.511  23.721  18.810  1.00  0.00     0.157 C 
ENDROOT
BRANCH   1   2
HETATM    2  N2  UNL     1      20.359  24.471  17.919  1.00  0.00    -0.348 N 
HETATM    3  C11 UNL     1      20.890  25.731  17.972  1.00  0.00     0.241 C 
HETATM    4  O3  UNL     1      20.708  26.488  18.952  1.00  0.00    -0.271 OA
ATOM      5  H2  UNL     1      20.617  23.957  17.077  1.00  0.00     0.163 HD
BRANCH   3   6
HETATM    6  C5  UNL     1      21.724  26.277  16.853  1.00  0.00     0.179 C 
BRANCH   6   7
HETATM    7  C4  UNL     1      20.939  27.381  16.194  1.00  0.00     0.038 C 
BRANCH   7   8
HETATM    8  C2  UNL     1      20.861  27.422  14.732  1.00  0.00    -0.020 C 
HETATM    9  C1  UNL     1      21.709  28.482  14.064  1.00  0.00     0.009 C 
HETATM   10  C3  UNL     1      19.414  27.721  14.276  1.00  0.00     0.009 C 
ENDBRANCH   7   8
ENDBRANCH   6   7
BRANCH   6  11
HETATM   11  N1  UNL     1      22.847  26.960  17.542  1.00  0.00    -0.324 N 
HETATM   12  C6  UNL     1      24.144  26.907  17.004  1.00  0.00     0.362 C 
HETATM   13  O1  UNL     1      24.353  26.261  15.914  1.00  0.00    -0.238 OA
ATOM     14  H1  UNL     1      22.676  27.470  18.409  1.00  0.00     0.165 HD
BRANCH  12  15
HETATM   15  O2  UNL     1      25.243  27.502  17.558  1.00  0.00    -0.294 OA
BRANCH  15  16
HETATM   16  C7  UNL     1      25.935  28.617  17.076  1.00  0.00     0.061 C 
HETATM   17  C8  UNL     1      27.076  28.209  16.165  1.00  0.00     0.046 C 
HETATM   18  C9  UNL     1      25.034  29.528  16.252  1.00  0.00     0.046 C 
HETATM   19  C10 UNL     1      26.520  29.367  18.248  1.00  0.00     0.046 C 
ENDBRANCH  15  16
ENDBRANCH  12  15
ENDBRANCH   6  11
ENDBRANCH   3   6
ENDBRANCH   1   2
BRANCH   1  20
HETATM   20  C13 UNL     1      20.276  22.913  19.852  1.00  0.00     0.037 C 
BRANCH  20  21
HETATM   21  C14 UNL     1      20.240  23.487  21.226  1.00  0.00    -0.020 C 
HETATM   22  C15 UNL     1      19.059  24.469  21.247  1.00  0.00     0.009 C 
HETATM   23  C16 UNL     1      21.489  24.396  21.443  1.00  0.00     0.009 C 
ENDBRANCH  20  21
ENDBRANCH   1  20
BRANCH   1  24
HETATM   24  C17 UNL     1      18.618  22.856  18.066  1.00  0.00     0.180 C 
HETATM   25  O4  UNL     1      18.629  21.647  18.414  1.00  0.00    -0.293 OA
BRANCH  24  26
HETATM   26  C18 UNL     1      17.697  23.159  16.968  1.00  0.00     0.241 C 
HETATM   27  C19 UNL     1      18.244  24.337  16.197  1.00  0.00     0.217 C 
HETATM   28  O5  UNL     1      19.090  24.375  15.349  1.00  0.00    -0.283 OA
HETATM   29  S1  UNL     1      17.284  25.718  16.885  1.00  0.00    -0.070 SA
HETATM   30  C20 UNL     1      16.288  24.702  18.062  1.00  0.00     0.209 C 
HETATM   31  N3  UNL     1      16.341  23.438  17.295  1.00  0.00    -0.322 N 
HETATM   32  C21 UNL     1      15.150  22.743  16.965  1.00  0.00     0.244 C 
HETATM   33  O6  UNL     1      14.039  23.179  17.439  1.00  0.00    -0.271 OA
BRANCH  32  34
HETATM   34  C22 UNL     1      15.061  21.543  16.110  1.00  0.00     0.181 C 
BRANCH  34  35
HETATM   35  N4  UNL     1      14.107  20.590  16.673  1.00  0.00    -0.329 N 
HETATM   36  C23 UNL     1      14.438  19.662  17.665  1.00  0.00     0.318 C 
HETATM   37  O7  UNL     1      15.598  19.592  18.141  1.00  0.00    -0.247 OA
HETATM   38  N5  UNL     1      13.459  18.769  18.165  1.00  0.00    -0.343 N 
HETATM   39  C24 UNL     1      12.083  18.754  17.706  1.00  0.00     0.154 C 
HETATM   40  C25 UNL     1      13.803  17.786  19.200  1.00  0.00     0.154 C 
ATOM     41  H4  UNL     1      13.150  20.601  16.323  1.00  0.00     0.165 HD
ENDBRANCH  34  35
BRANCH  34  42
HETATM   42  C26 UNL     1      14.537  21.834  14.717  1.00  0.00     0.009 C 
HETATM   43  C27 UNL     1      14.014  20.546  14.069  1.00  0.00     0.012 C 
HETATM   44  C28 UNL     1      15.729  22.360  13.915  1.00  0.00     0.012 C 
ENDBRANCH  34  42
ENDBRANCH  32  34
ENDBRANCH  24  26
ENDBRANCH   1  24
TORSDOF 14
ENDMDL
MODEL 3
REMARK VINA RESULT: -8.385603987      2.620      9.497
REMARK  14 active torsions:
REMARK  status: ('A' for Active; 'I' for Inactive)
REMARK    1  A    between atoms: C2_2  and  C4_4 
REMARK    2  A    between atoms: C4_4  and  C5_5 
REMARK    3  A    between atoms: C5_5  and  N1_6 
REMARK    4  A    between atoms: C5_5  and  C11_15 
REMARK       I    between atoms: N1_6  and  C6_8 
REMARK    5  A    between atoms: C6_8  and  O2_10 
REMARK    6  A    between atoms: O2_10  and  C7_11 
REMARK       I    between atoms: C11_15  and  N2_17 
REMARK    7  A    between atoms: N2_17  and  C12_19 
REMARK    8  A    between atoms: C12_19  and  C13_20 
REMARK    9  A    between atoms: C12_19  and  C17_24 
REMARK   10  A    between atoms: C13_20  and  C14_21 
REMARK   11  A    between atoms: C17_24  and  C18_26 
REMARK       I    between atoms: N3_31  and  C21_32 
REMARK   12  A    between atoms: C21_32  and  C22_34 
REMARK   13  A    between atoms: C22_34  and  N4_35 
REMARK   14  A    between atoms: C22_34  and  C26_42 
REMARK       I    between atoms: N4_35  and  C23_37 
REMARK       I    between atoms: C23_37  and  N5_39 
ROOT
HETATM    1  C12 UNL     1      20.261  26.820  16.463  1.00  0.00     0.157 C 
ENDROOT
BRANCH   1   2
HETATM    2  N2  UNL     1      19.080  25.997  16.462  1.00  0.00    -0.348 N 
HETATM    3  C11 UNL     1      18.087  25.785  15.544  1.00  0.00     0.241 C 
HETATM    4  O3  UNL     1      18.098  26.328  14.417  1.00  0.00    -0.271 OA
ATOM      5  H2  UNL     1      18.956  25.463  17.323  1.00  0.00     0.163 HD
BRANCH   3   6
HETATM    6  C5  UNL     1      16.928  24.881  15.838  1.00  0.00     0.179 C 
BRANCH   6   7
HETATM    7  C4  UNL     1      16.821  23.893  14.706  1.00  0.00     0.038 C 
BRANCH   7   8
HETATM    8  C2  UNL     1      15.821  22.825  14.787  1.00  0.00    -0.020 C 
HETATM    9  C1  UNL     1      15.498  22.135  13.481  1.00  0.00     0.009 C 
HETATM   10  C3  UNL     1      14.470  23.387  15.289  1.00  0.00     0.009 C 
ENDBRANCH   7   8
ENDBRANCH   6   7
BRANCH   6  11
HETATM   11  N1  UNL     1      17.381  24.084  17.005  1.00  0.00    -0.324 N 
HETATM   12  C6  UNL     1      16.672  24.139  18.217  1.00  0.00     0.362 C 
HETATM   13  O1  UNL     1      15.631  24.885  18.309  1.00  0.00    -0.238 OA
ATOM     14  H1  UNL     1      18.210  23.495  16.927  1.00  0.00     0.165 HD
BRANCH  12  15
HETATM   15  O2  UNL     1      17.003  23.445  19.347  1.00  0.00    -0.294 OA
BRANCH  15  16
HETATM   16  C7  UNL     1      17.121  22.059  19.485  1.00  0.00     0.061 C 
HETATM   17  C8  UNL     1      15.783  21.419  19.803  1.00  0.00     0.046 C 
HETATM   18  C9  UNL     1      17.615  21.404  18.201  1.00  0.00     0.046 C 
HETATM   19  C10 UNL     1      18.061  21.765  20.629  1.00  0.00     0.046 C 
ENDBRANCH  15  16
ENDBRANCH  12  15
ENDBRANCH   6  11
ENDBRANCH   3   6
ENDBRANCH   1   2
BRANCH   1  20
HETATM   20  C13 UNL     1      21.281  26.433  15.399  1.00  0.00     0.037 C 
BRANCH  20  21
HETATM   21  C14 UNL     1      21.631  27.528  14.452  1.00  0.00    -0.020 C 
HETATM   22  C15 UNL     1      22.804  28.285  15.092  1.00  0.00     0.009 C 
HETATM   23  C16 UNL     1      20.479  28.578  14.422  1.00  0.00     0.009 C 
ENDBRANCH  20  21
ENDBRANCH   1  20
BRANCH   1  24
HETATM   24  C17 UNL     1      20.885  26.827  17.772  1.00  0.00     0.180 C 
HETATM   25  O4  UNL     1      20.853  27.931  18.374  1.00  0.00    -0.293 OA
BRANCH  24  26
HETATM   26  C18 UNL     1      21.549  25.753  18.514  1.00  0.00     0.241 C 
HETATM   27  C19 UNL     1      20.514  24.718  18.885  1.00  0.00     0.217 C 
HETATM   28  O5  UNL     1      20.049  23.827  18.232  1.00  0.00    -0.283 OA
HETATM   29  S1  UNL     1      20.133  25.163  20.605  1.00  0.00    -0.070 SA
HETATM   30  C20 UNL     1      21.301  26.590  20.705  1.00  0.00     0.209 C 
HETATM   31  N3  UNL     1      22.264  26.103  19.692  1.00  0.00    -0.322 N 
HETATM   32  C21 UNL     1      23.645  26.006  19.997  1.00  0.00     0.244 C 
HETATM   33  O6  UNL     1      24.051  26.450  21.131  1.00  0.00    -0.271 OA
BRANCH  32  34
HETATM   34  C22 UNL     1      24.683  25.431  19.120  1.00  0.00     0.181 C 
BRANCH  34  35
HETATM   35  N4  UNL     1      25.481  26.494  18.513  1.00  0.00    -0.329 N 
HETATM   36  C23 UNL     1      25.598  26.679  17.133  1.00  0.00     0.318 C 
HETATM   37  O7  UNL     1      25.012  25.926  16.315  1.00  0.00    -0.247 OA
HETATM   38  N5  UNL     1      26.389  27.734  16.615  1.00  0.00    -0.343 N 
HETATM   39  C24 UNL     1      27.108  28.676  17.452  1.00  0.00     0.154 C 
HETATM   40  C25 UNL     1      26.523  27.926  15.166  1.00  0.00     0.154 C 
ATOM     41  H4  UNL     1      25.980  27.135  19.130  1.00  0.00     0.165 HD
ENDBRANCH  34  35
BRANCH  34  42
HETATM   42  C26 UNL     1      25.689  24.571  19.862  1.00  0.00     0.009 C 
HETATM   43  C27 UNL     1      27.027  25.311  19.986  1.00  0.00     0.012 C 
HETATM   44  C28 UNL     1      25.880  23.312  19.014  1.00  0.00     0.012 C 
ENDBRANCH  34  42
ENDBRANCH  32  34
ENDBRANCH  24  26
ENDBRANCH   1  24
TORSDOF 14
ENDMDL
MODEL 4
REMARK VINA RESULT: -8.363904192      2.497      4.052
REMARK  14 active torsions:
REMARK  status: ('A' for Active; 'I' for Inactive)
REMARK    1  A    between atoms: C2_2  and  C4_4 
REMARK    2  A    between atoms: C4_4  and  C5_5 
REMARK    3  A    between atoms: C5_5  and  N1_6 
REMARK    4  A    between atoms: C5_5  and  C11_15 
REMARK       I    between atoms: N1_6  and  C6_8 
REMARK    5  A    between atoms: C6_8  and  O2_10 
REMARK    6  A    between atoms: O2_10  and  C7_11 
REMARK       I    between atoms: C11_15  and  N2_17 
REMARK    7  A    between atoms: N2_17  and  C12_19 
REMARK    8  A    between atoms: C12_19  and  C13_20 
REMARK    9  A    between atoms: C12_19  and  C17_24 
REMARK   10  A    between atoms: C13_20  and  C14_21 
REMARK   11  A    between atoms: C17_24  and  C18_26 
REMARK       I    between atoms: N3_31  and  C21_32 
REMARK   12  A    between atoms: C21_32  and  C22_34 
REMARK   13  A    between atoms: C22_34  and  N4_35 
REMARK   14  A    between atoms: C22_34  and  C26_42 
REMARK       I    between atoms: N4_35  and  C23_37 
REMARK       I    between atoms: C23_37  and  N5_39 
ROOT
HETATM    1  C12 UNL     1      17.147  22.960  18.928  1.00  0.00     0.157 C 
ENDROOT
BRANCH   1   2
HETATM    2  N2  UNL     1      17.989  23.182  17.782  1.00  0.00    -0.348 N 
HETATM    3  C11 UNL     1      18.996  24.071  17.519  1.00  0.00     0.241 C 
HETATM    4  O3  UNL     1      19.391  24.898  18.371  1.00  0.00    -0.271 OA
ATOM      5  H2  UNL     1      17.797  22.547  17.007  1.00  0.00     0.163 HD
BRANCH   3   6
HETATM    6  C5  UNL     1      19.687  24.100  16.189  1.00  0.00     0.179 C 
BRANCH   6   7
HETATM    7  C4  UNL     1      18.676  24.532  15.159  1.00  0.00     0.038 C 
BRANCH   7   8
HETATM    8  C2  UNL     1      17.959  25.794  15.351  1.00  0.00    -0.020 C 
HETATM    9  C1  UNL     1      16.458  25.676  15.497  1.00  0.00     0.009 C 
HETATM   10  C3  UNL     1      18.171  26.727  14.136  1.00  0.00     0.009 C 
ENDBRANCH   7   8
ENDBRANCH   6   7
BRANCH   6  11
HETATM   11  N1  UNL     1      20.633  25.238  16.301  1.00  0.00    -0.324 N 
HETATM   12  C6  UNL     1      21.587  25.465  15.294  1.00  0.00     0.362 C 
HETATM   13  O1  UNL     1      21.636  24.681  14.278  1.00  0.00    -0.238 OA
ATOM     14  H1  UNL     1      20.592  25.856  17.111  1.00  0.00     0.165 HD
BRANCH  12  15
HETATM   15  O2  UNL     1      22.500  26.483  15.299  1.00  0.00    -0.294 OA
BRANCH  15  16
HETATM   16  C7  UNL     1      22.238  27.855  15.259  1.00  0.00     0.061 C 
HETATM   17  C8  UNL     1      21.563  28.251  13.960  1.00  0.00     0.046 C 
HETATM   18  C9  UNL     1      21.299  28.284  16.379  1.00  0.00     0.046 C 
HETATM   19  C10 UNL     1      23.549  28.600  15.349  1.00  0.00     0.046 C 
ENDBRANCH  15  16
ENDBRANCH  12  15
ENDBRANCH   6  11
ENDBRANCH   3   6
ENDBRANCH   1   2
BRANCH   1  20
HETATM   20  C13 UNL     1      17.727  21.975  19.936  1.00  0.00     0.037 C 
BRANCH  20  21
HETATM   21  C14 UNL     1      18.411  22.611  21.096  1.00  0.00    -0.020 C 
HETATM   22  C15 UNL     1      18.009  24.093  21.068  1.00  0.00     0.009 C 
HETATM   23  C16 UNL     1      19.950  22.634  20.844  1.00  0.00     0.009 C 
ENDBRANCH  20  21
ENDBRANCH   1  20
BRANCH   1  24
HETATM   24  C17 UNL     1      15.823  22.533  18.521  1.00  0.00     0.180 C 
HETATM   25  O4  UNL     1      14.901  23.359  18.746  1.00  0.00    -0.293 OA
BRANCH  24  26
HETATM   26  C18 UNL     1      15.378  21.291  17.884  1.00  0.00     0.241 C 
HETATM   27  C19 UNL     1      16.369  20.926  16.804  1.00  0.00     0.217 C 
HETATM   28  O5  UNL     1      17.428  20.373  16.889  1.00  0.00    -0.283 OA
HETATM   29  S1  UNL     1      15.546  21.549  15.309  1.00  0.00    -0.070 SA
HETATM   30  C20 UNL     1      14.043  22.198  16.164  1.00  0.00     0.209 C 
HETATM   31  N3  UNL     1      14.076  21.266  17.313  1.00  0.00    -0.322 N 
HETATM   32  C21 UNL     1      12.934  20.497  17.651  1.00  0.00     0.244 C 
HETATM   33  O6  UNL     1      11.844  20.707  17.005  1.00  0.00    -0.271 OA
BRANCH  32  34
HETATM   34  C22 UNL     1      12.876  19.454  18.694  1.00  0.00     0.181 C 
BRANCH  34  35
HETATM   35  N4  UNL     1      12.139  18.290  18.208  1.00  0.00    -0.329 N 
HETATM   36  C23 UNL     1      11.061  17.719  18.891  1.00  0.00     0.318 C 
HETATM   37  O7  UNL     1      10.655  18.182  19.986  1.00  0.00    -0.247 OA
HETATM   38  N5  UNL     1      10.391  16.591  18.358  1.00  0.00    -0.343 N 
HETATM   39  C24 UNL     1      10.756  15.967  17.099  1.00  0.00     0.154 C 
HETATM   40  C25 UNL     1       9.265  15.982  19.076  1.00  0.00     0.154 C 
ATOM     41  H4  UNL     1      12.425  17.872  17.323  1.00  0.00     0.165 HD
ENDBRANCH  34  35
BRANCH  34  42
HETATM   42  C26 UNL     1      14.239  18.912  19.079  1.00  0.00     0.009 C 
HETATM   43  C27 UNL     1      14.555  17.650  18.265  1.00  0.00     0.012 C 
HETATM   44  C28 UNL     1      14.150  18.551  20.563  1.00  0.00     0.012 C 
ENDBRANCH  34  42
ENDBRANCH  32  34
ENDBRANCH  24  26
ENDBRANCH   1  24
TORSDOF 14
ENDMDL
MODEL 5
REMARK VINA RESULT: -8.281503165      2.190      9.531
REMARK  14 active torsions:
REMARK  status: ('A' for Active; 'I' for Inactive)
REMARK    1  A    between atoms: C2_2  and  C4_4 
REMARK    2  A    between atoms: C4_4  and  C5_5 
REMARK    3  A    between atoms: C5_5  and  N1_6 
REMARK    4  A    between atoms: C5_5  and  C11_15 
REMARK       I    between atoms: N1_6  and  C6_8 
REMARK    5  A    between atoms: C6_8  and  O2_10 
REMARK    6  A    between atoms: O2_10  and  C7_11 
REMARK       I    between atoms: C11_15  and  N2_17 
REMARK    7  A    between atoms: N2_17  and  C12_19 
REMARK    8  A    between atoms: C12_19  and  C13_20 
REMARK    9  A    between atoms: C12_19  and  C17_24 
REMARK   10  A    between atoms: C13_20  and  C14_21 
REMARK   11  A    between atoms: C17_24  and  C18_26 
REMARK       I    between atoms: N3_31  and  C21_32 
REMARK   12  A    between atoms: C21_32  and  C22_34 
REMARK   13  A    between atoms: C22_34  and  N4_35 
REMARK   14  A    between atoms: C22_34  and  C26_42 
REMARK       I    between atoms: N4_35  and  C23_37 
REMARK       I    between atoms: C23_37  and  N5_39 
ROOT
HETATM    1  C12 UNL     1      17.139  22.886  18.801  1.00  0.00     0.157 C 
ENDROOT
BRANCH   1   2
HETATM    2  N2  UNL     1      16.071  21.928  18.685  1.00  0.00    -0.348 N 
HETATM    3  C11 UNL     1      16.009  20.649  18.202  1.00  0.00     0.241 C 
HETATM    4  O3  UNL     1      17.021  20.053  17.769  1.00  0.00    -0.271 OA
ATOM      5  H2  UNL     1      15.177  22.273  19.035  1.00  0.00     0.163 HD
BRANCH   3   6
HETATM    6  C5  UNL     1      14.719  19.887  18.168  1.00  0.00     0.179 C 
BRANCH   6   7
HETATM    7  C4  UNL     1      14.039  20.080  19.498  1.00  0.00     0.038 C 
BRANCH   7   8
HETATM    8  C2  UNL     1      13.643  18.901  20.272  1.00  0.00    -0.020 C 
HETATM    9  C1  UNL     1      13.935  17.567  19.623  1.00  0.00     0.009 C 
HETATM   10  C3  UNL     1      12.116  18.902  20.516  1.00  0.00     0.009 C 
ENDBRANCH   7   8
ENDBRANCH   6   7
BRANCH   6  11
HETATM   11  N1  UNL     1      13.885  20.635  17.196  1.00  0.00    -0.324 N 
HETATM   12  C6  UNL     1      12.787  20.011  16.579  1.00  0.00     0.362 C 
HETATM   13  O1  UNL     1      12.511  18.789  16.861  1.00  0.00    -0.238 OA
ATOM     14  H1  UNL     1      14.109  21.605  16.973  1.00  0.00     0.165 HD
BRANCH  12  15
HETATM   15  O2  UNL     1      11.956  20.610  15.674  1.00  0.00    -0.294 OA
BRANCH  15  16
HETATM   16  C7  UNL     1      12.289  21.073  14.398  1.00  0.00     0.061 C 
HETATM   17  C8  UNL     1      13.529  20.384  13.865  1.00  0.00     0.046 C 
HETATM   18  C9  UNL     1      11.180  20.800  13.390  1.00  0.00     0.046 C 
HETATM   19  C10 UNL     1      12.579  22.553  14.481  1.00  0.00     0.046 C 
ENDBRANCH  15  16
ENDBRANCH  12  15
ENDBRANCH   6  11
ENDBRANCH   3   6
ENDBRANCH   1   2
BRANCH   1  20
HETATM   20  C13 UNL     1      17.552  23.176  20.239  1.00  0.00     0.037 C 
BRANCH  20  21
HETATM   21  C14 UNL     1      19.024  23.216  20.463  1.00  0.00    -0.020 C 
HETATM   22  C15 UNL     1      19.355  21.999  21.340  1.00  0.00     0.009 C 
HETATM   23  C16 UNL     1      19.380  24.437  21.365  1.00  0.00     0.009 C 
ENDBRANCH  20  21
ENDBRANCH   1  20
BRANCH   1  24
HETATM   24  C17 UNL     1      16.801  24.121  18.122  1.00  0.00     0.180 C 
HETATM   25  O4  UNL     1      16.137  24.944  18.805  1.00  0.00    -0.293 OA
BRANCH  24  26
HETATM   26  C18 UNL     1      17.106  24.573  16.763  1.00  0.00     0.241 C 
HETATM   27  C19 UNL     1      15.950  24.200  15.864  1.00  0.00     0.217 C 
HETATM   28  O5  UNL     1      14.901  24.751  15.692  1.00  0.00    -0.283 OA
HETATM   29  S1  UNL     1      16.553  22.670  15.089  1.00  0.00    -0.070 SA
HETATM   30  C20 UNL     1      18.187  22.642  15.949  1.00  0.00     0.209 C 
HETATM   31  N3  UNL     1      18.304  24.101  16.158  1.00  0.00    -0.322 N 
HETATM   32  C21 UNL     1      19.460  24.802  15.732  1.00  0.00     0.244 C 
HETATM   33  O6  UNL     1      20.444  24.124  15.261  1.00  0.00    -0.271 OA
BRANCH  32  34
HETATM   34  C22 UNL     1      19.648  26.265  15.778  1.00  0.00     0.181 C 
BRANCH  34  35
HETATM   35  N4  UNL     1      20.944  26.593  16.367  1.00  0.00    -0.329 N 
HETATM   36  C23 UNL     1      21.222  26.480  17.732  1.00  0.00     0.318 C 
HETATM   37  O7  UNL     1      20.355  26.083  18.550  1.00  0.00    -0.247 OA
HETATM   38  N5  UNL     1      22.504  26.813  18.233  1.00  0.00    -0.343 N 
HETATM   39  C24 UNL     1      23.593  27.275  17.393  1.00  0.00     0.154 C 
HETATM   40  C25 UNL     1      22.797  26.706  19.667  1.00  0.00     0.154 C 
ATOM     41  H4  UNL     1      21.686  26.921  15.749  1.00  0.00     0.165 HD
ENDBRANCH  34  35
BRANCH  34  42
HETATM   42  C26 UNL     1      19.676  26.911  14.406  1.00  0.00     0.009 C 
HETATM   43  C27 UNL     1      20.308  28.306  14.491  1.00  0.00     0.012 C 
HETATM   44  C28 UNL     1      18.216  27.039  13.966  1.00  0.00     0.012 C 
ENDBRANCH  34  42
ENDBRANCH  32  34
ENDBRANCH  24  26
ENDBRANCH   1  24
TORSDOF 14
ENDMDL
