MODEL 1
REMARK VINA RESULT: -9.848614051      0.000      0.000
REMARK  13 active torsions:
REMARK  status: ('A' for Active; 'I' for Inactive)
REMARK    1  A    between atoms: C2_2  and  C3_3 
REMARK    2  A    between atoms: C5_7  and  N2_8 
REMARK       I    between atoms: N3_11  and  C8_12 
REMARK    3  A    between atoms: C8_12  and  C9_14 
REMARK    4  A    between atoms: C9_14  and  N4_15 
REMARK    5  A    between atoms: C9_14  and  C24_42 
REMARK    6  A    between atoms: C10_17  and  O2_18 
REMARK    7  A    between atoms: C10_17  and  C11_20 
REMARK    8  A    between atoms: C11_20  and  N5_21 
REMARK    9  A    between atoms: C11_20  and  C20_38 
REMARK       I    between atoms: N5_21  and  C12_23 
REMARK   10  A    between atoms: C12_23  and  C13_25 
REMARK   11  A    between atoms: C13_25  and  N6_26 
REMARK       I    between atoms: N6_26  and  C14_28 
REMARK   12  A    between atoms: C14_28  and  C15_30 
REMARK   13  A    between atoms: C24_42  and  C26_44 
ROOT
HETATM    1  N4  UNL     1      18.642  24.297  17.751  1.00  0.00    -0.359 N 
ATOM      2  H4  UNL     1      19.413  24.178  17.093  1.00  0.00     0.162 HD
HETATM    3  C10 UNL     1      18.967  24.875  18.940  1.00  0.00     0.136 C 
ENDROOT
BRANCH   1   4
HETATM    4  C9  UNL     1      17.317  23.813  17.281  1.00  0.00     0.179 C 
BRANCH   4   5
HETATM    5  C8  UNL     1      17.212  22.382  17.542  1.00  0.00     0.243 C 
HETATM    6  N3  UNL     1      16.015  21.639  17.676  1.00  0.00    -0.347 N 
HETATM    7  C7  UNL     1      16.054  20.187  17.912  1.00  0.00     0.145 C 
HETATM    8  C28 UNL     1      14.705  22.249  17.606  1.00  0.00     0.145 C 
HETATM    9  C6  UNL     1      14.796  19.620  17.229  1.00  0.00     0.144 C 
HETATM   10  N2  UNL     1      13.689  20.043  18.062  1.00  0.00    -0.364 N 
HETATM   11  C29 UNL     1      13.617  21.480  18.304  1.00  0.00     0.144 C 
HETATM   12  O1  UNL     1      18.288  21.679  17.672  1.00  0.00    -0.271 OA
BRANCH  10  13
HETATM   13  C5  UNL     1      12.744  19.146  18.615  1.00  0.00     0.103 A 
HETATM   14  N1  UNL     1      11.642  18.800  17.874  1.00  0.00    -0.352 N 
HETATM   15  C4  UNL     1      10.713  17.957  18.358  1.00  0.00     0.097 A 
ATOM     16  H1  UNL     1      11.526  19.190  16.939  1.00  0.00     0.166 HD
HETATM   17  C3  UNL     1      10.799  17.394  19.611  1.00  0.00    -0.037 A 
HETATM   18  C31 UNL     1      11.881  17.715  20.377  1.00  0.00    -0.051 A 
HETATM   19  C30 UNL     1      12.824  18.583  19.856  1.00  0.00     0.055 A 
HETATM   20  C32 UNL     1      12.011  17.130  21.730  1.00  0.00     0.049 C 
BRANCH  17  21
HETATM   21  C2  UNL     1       9.767  16.464  20.152  1.00  0.00     0.036 C 
HETATM   22  C1  UNL     1       9.136  15.726  18.997  1.00  0.00     0.010 C 
ENDBRANCH  17  21
ENDBRANCH  10  13
ENDBRANCH   4   5
BRANCH   4  23
HETATM   23  C24 UNL     1      17.226  24.284  15.882  1.00  0.00     0.013 C 
HETATM   24  C25 UNL     1      16.704  23.188  14.938  1.00  0.00     0.012 C 
BRANCH  23  25
HETATM   25  C26 UNL     1      18.357  24.940  15.213  1.00  0.00     0.002 C 
HETATM   26  C27 UNL     1      18.119  26.259  14.552  1.00  0.00     0.005 C 
ENDBRANCH  23  25
ENDBRANCH   4  23
ENDBRANCH   1   4
BRANCH   3  27
HETATM   27  O2  UNL     1      17.948  25.026  19.734  1.00  0.00    -0.348 OA
ATOM     28  H2  UNL     1      17.642  25.924  19.786  1.00  0.00     0.219 HD
ENDBRANCH   3  27
BRANCH   3  29
HETATM   29  C11 UNL     1      20.249  25.352  19.482  1.00  0.00     0.166 C 
BRANCH  29  30
HETATM   30  N5  UNL     1      21.117  25.883  18.446  1.00  0.00    -0.347 N 
HETATM   31  C12 UNL     1      21.326  27.226  18.173  1.00  0.00     0.236 C 
HETATM   32  O3  UNL     1      20.674  28.050  18.926  1.00  0.00    -0.272 OA
ATOM     33  H5  UNL     1      21.618  25.208  17.868  1.00  0.00     0.163 HD
BRANCH  31  34
HETATM   34  C13 UNL     1      22.169  27.842  17.149  1.00  0.00     0.225 C 
BRANCH  34  35
HETATM   35  N6  UNL     1      23.600  27.698  17.320  1.00  0.00    -0.348 N 
HETATM   36  C14 UNL     1      24.344  26.881  16.450  1.00  0.00     0.256 C 
HETATM   37  O4  UNL     1      23.663  26.288  15.536  1.00  0.00    -0.267 OA
ATOM     38  H6  UNL     1      24.071  28.192  18.078  1.00  0.00     0.163 HD
BRANCH  36  39
HETATM   39  C15 UNL     1      25.748  26.619  16.438  1.00  0.00     0.087 A 
HETATM   40  C16 UNL     1      26.472  25.657  17.091  1.00  0.00     0.047 A 
HETATM   41  C17 UNL     1      26.002  24.603  18.010  1.00  0.00     0.071 C 
HETATM   42  N7  UNL     1      27.797  25.818  16.754  1.00  0.00    -0.265 N 
HETATM   43  O5  UNL     1      27.886  26.811  15.947  1.00  0.00    -0.242 OA
ATOM     44  H7  UNL     1      28.573  25.247  17.089  1.00  0.00     0.194 HD
HETATM   45  C18 UNL     1      26.722  27.325  15.720  1.00  0.00     0.090 A 
HETATM   46  C19 UNL     1      26.409  28.485  14.843  1.00  0.00     0.080 C 
ENDBRANCH  36  39
ENDBRANCH  34  35
ENDBRANCH  31  34
ENDBRANCH  29  30
BRANCH  29  47
HETATM   47  C20 UNL     1      21.015  24.495  20.389  1.00  0.00    -0.023 C 
HETATM   48  C21 UNL     1      21.390  25.154  21.726  1.00  0.00     0.017 C 
HETATM   49  C22 UNL     1      22.394  24.150  19.791  1.00  0.00     0.017 C 
HETATM   50  C23 UNL     1      20.367  23.153  20.676  1.00  0.00     0.017 C 
ENDBRANCH  29  47
ENDBRANCH   3  29
TORSDOF 13
ENDMDL
MODEL 2
REMARK VINA RESULT: -9.816639520      1.624      2.393
REMARK  13 active torsions:
REMARK  status: ('A' for Active; 'I' for Inactive)
REMARK    1  A    between atoms: C2_2  and  C3_3 
REMARK    2  A    between atoms: C5_7  and  N2_8 
REMARK       I    between atoms: N3_11  and  C8_12 
REMARK    3  A    between atoms: C8_12  and  C9_14 
REMARK    4  A    between atoms: C9_14  and  N4_15 
REMARK    5  A    between atoms: C9_14  and  C24_42 
REMARK    6  A    between atoms: C10_17  and  O2_18 
REMARK    7  A    between atoms: C10_17  and  C11_20 
REMARK    8  A    between atoms: C11_20  and  N5_21 
REMARK    9  A    between atoms: C11_20  and  C20_38 
REMARK       I    between atoms: N5_21  and  C12_23 
REMARK   10  A    between atoms: C12_23  and  C13_25 
REMARK   11  A    between atoms: C13_25  and  N6_26 
REMARK       I    between atoms: N6_26  and  C14_28 
REMARK   12  A    between atoms: C14_28  and  C15_30 
REMARK   13  A    between atoms: C24_42  and  C26_44 
ROOT
HETATM    1  N4  UNL     1      17.854  23.657  17.381  1.00  0.00    -0.359 N 
ATOM      2  H4  UNL     1      18.496  22.879  17.226  1.00  0.00     0.162 HD
HETATM    3  C10 UNL     1      17.907  24.228  18.616  1.00  0.00     0.136 C 
ENDROOT
BRANCH   1   4
HETATM    4  C9  UNL     1      16.987  24.014  16.226  1.00  0.00     0.179 C 
BRANCH   4   5
HETATM    5  C8  UNL     1      16.299  22.817  15.759  1.00  0.00     0.243 C 
HETATM    6  N3  UNL     1      15.226  22.159  16.405  1.00  0.00    -0.347 N 
HETATM    7  C7  UNL     1      14.601  20.969  15.805  1.00  0.00     0.145 C 
HETATM    8  C28 UNL     1      14.693  22.597  17.677  1.00  0.00     0.145 C 
HETATM    9  C6  UNL     1      13.123  21.013  16.233  1.00  0.00     0.144 C 
HETATM   10  N2  UNL     1      13.127  20.687  17.644  1.00  0.00    -0.364 N 
HETATM   11  C29 UNL     1      13.991  21.526  18.467  1.00  0.00     0.144 C 
HETATM   12  O1  UNL     1      16.669  22.263  14.652  1.00  0.00    -0.271 OA
BRANCH  10  13
HETATM   13  C5  UNL     1      12.364  19.632  18.201  1.00  0.00     0.103 A 
HETATM   14  N1  UNL     1      11.358  19.073  17.455  1.00  0.00    -0.352 N 
HETATM   15  C4  UNL     1      10.601  18.074  17.941  1.00  0.00     0.097 A 
ATOM     16  H1  UNL     1      11.180  19.423  16.513  1.00  0.00     0.166 HD
HETATM   17  C3  UNL     1      10.778  17.552  19.203  1.00  0.00    -0.037 A 
HETATM   18  C31 UNL     1      11.770  18.083  19.975  1.00  0.00    -0.051 A 
HETATM   19  C30 UNL     1      12.536  19.110  19.450  1.00  0.00     0.055 A 
HETATM   20  C32 UNL     1      11.994  17.550  21.337  1.00  0.00     0.049 C 
BRANCH  17  21
HETATM   21  C2  UNL     1       9.936  16.449  19.747  1.00  0.00     0.036 C 
HETATM   22  C1  UNL     1       9.468  15.593  18.596  1.00  0.00     0.010 C 
ENDBRANCH  17  21
ENDBRANCH  10  13
ENDBRANCH   4   5
BRANCH   4  23
HETATM   23  C24 UNL     1      17.889  24.721  15.291  1.00  0.00     0.013 C 
HETATM   24  C25 UNL     1      19.370  24.433  15.592  1.00  0.00     0.012 C 
BRANCH  23  25
HETATM   25  C26 UNL     1      17.763  26.161  15.036  1.00  0.00     0.002 C 
HETATM   26  C27 UNL     1      18.800  26.823  14.188  1.00  0.00     0.005 C 
ENDBRANCH  23  25
ENDBRANCH   4  23
ENDBRANCH   1   4
BRANCH   3  27
HETATM   27  O2  UNL     1      17.089  25.229  18.756  1.00  0.00    -0.348 OA
ATOM     28  H2  UNL     1      16.265  24.987  19.162  1.00  0.00     0.219 HD
ENDBRANCH   3  27
BRANCH   3  29
HETATM   29  C11 UNL     1      18.713  23.915  19.807  1.00  0.00     0.166 C 
BRANCH  29  30
HETATM   30  N5  UNL     1      20.107  24.281  19.636  1.00  0.00    -0.347 N 
HETATM   31  C12 UNL     1      20.797  25.222  20.387  1.00  0.00     0.236 C 
HETATM   32  O3  UNL     1      20.106  25.804  21.311  1.00  0.00    -0.272 OA
ATOM     33  H5  UNL     1      20.626  23.805  18.898  1.00  0.00     0.163 HD
BRANCH  31  34
HETATM   34  C13 UNL     1      22.189  25.655  20.275  1.00  0.00     0.225 C 
BRANCH  34  35
HETATM   35  N6  UNL     1      22.751  25.680  18.940  1.00  0.00    -0.348 N 
HETATM   36  C14 UNL     1      23.989  26.303  18.699  1.00  0.00     0.256 C 
HETATM   37  O4  UNL     1      24.545  26.838  19.726  1.00  0.00    -0.267 OA
ATOM     38  H6  UNL     1      22.245  25.244  18.170  1.00  0.00     0.163 HD
BRANCH  36  39
HETATM   39  C15 UNL     1      24.714  26.424  17.475  1.00  0.00     0.087 A 
HETATM   40  C16 UNL     1      24.539  27.287  16.426  1.00  0.00     0.047 A 
HETATM   41  C17 UNL     1      23.535  28.353  16.257  1.00  0.00     0.071 C 
HETATM   42  N7  UNL     1      25.496  27.006  15.476  1.00  0.00    -0.265 N 
HETATM   43  O5  UNL     1      26.215  26.034  15.910  1.00  0.00    -0.242 OA
ATOM     44  H7  UNL     1      25.614  27.485  14.585  1.00  0.00     0.194 HD
HETATM   45  C18 UNL     1      25.810  25.647  17.074  1.00  0.00     0.090 A 
HETATM   46  C19 UNL     1      26.381  24.552  17.904  1.00  0.00     0.080 C 
ENDBRANCH  36  39
ENDBRANCH  34  35
ENDBRANCH  31  34
ENDBRANCH  29  30
BRANCH  29  47
HETATM   47  C20 UNL     1      18.613  22.589  20.421  1.00  0.00    -0.023 C 
HETATM   48  C21 UNL     1      18.966  22.551  21.917  1.00  0.00     0.017 C 
HETATM   49  C22 UNL     1      19.644  21.619  19.811  1.00  0.00     0.017 C 
HETATM   50  C23 UNL     1      17.271  21.910  20.223  1.00  0.00     0.017 C 
ENDBRANCH  29  47
ENDBRANCH   3  29
TORSDOF 13
ENDMDL
MODEL 3
REMARK VINA RESULT: -9.793359694      1.627      2.303
REMARK  13 active torsions:
REMARK  status: ('A' for Active; 'I' for Inactive)
REMARK    1  A    between atoms: C2_2  and  C3_3 
REMARK    2  A    between atoms: C5_7  and  N2_8 
REMARK       I    between atoms: N3_11  and  C8_12 
REMARK    3  A    between atoms: C8_12  and  C9_14 
REMARK    4  A    between atoms: C9_14  and  N4_15 
REMARK    5  A    between atoms: C9_14  and  C24_42 
REMARK    6  A    between atoms: C10_17  and  O2_18 
REMARK    7  A    between atoms: C10_17  and  C11_20 
REMARK    8  A    between atoms: C11_20  and  N5_21 
REMARK    9  A    between atoms: C11_20  and  C20_38 
REMARK       I    between atoms: N5_21  and  C12_23 
REMARK   10  A    between atoms: C12_23  and  C13_25 
REMARK   11  A    between atoms: C13_25  and  N6_26 
REMARK       I    between atoms: N6_26  and  C14_28 
REMARK   12  A    between atoms: C14_28  and  C15_30 
REMARK   13  A    between atoms: C24_42  and  C26_44 
ROOT
HETATM    1  N4  UNL     1      17.891  23.666  17.318  1.00  0.00    -0.359 N 
ATOM      2  H4  UNL     1      18.543  22.903  17.138  1.00  0.00     0.162 HD
HETATM    3  C10 UNL     1      17.953  24.210  18.566  1.00  0.00     0.136 C 
ENDROOT
BRANCH   1   4
HETATM    4  C9  UNL     1      17.002  24.033  16.185  1.00  0.00     0.179 C 
BRANCH   4   5
HETATM    5  C8  UNL     1      16.294  22.843  15.729  1.00  0.00     0.243 C 
HETATM    6  N3  UNL     1      15.230  22.192  16.398  1.00  0.00    -0.347 N 
HETATM    7  C7  UNL     1      14.583  21.009  15.808  1.00  0.00     0.145 C 
HETATM    8  C28 UNL     1      14.730  22.629  17.683  1.00  0.00     0.145 C 
HETATM    9  C6  UNL     1      13.116  21.062  16.270  1.00  0.00     0.144 C 
HETATM   10  N2  UNL     1      13.149  20.731  17.680  1.00  0.00    -0.364 N 
HETATM   11  C29 UNL     1      14.039  21.561  18.485  1.00  0.00     0.144 C 
HETATM   12  O1  UNL     1      16.633  22.290  14.612  1.00  0.00    -0.271 OA
BRANCH  10  13
HETATM   13  C5  UNL     1      12.391  19.680  18.251  1.00  0.00     0.103 A 
HETATM   14  N1  UNL     1      11.357  19.139  17.530  1.00  0.00    -0.352 N 
HETATM   15  C4  UNL     1      10.603  18.144  18.031  1.00  0.00     0.097 A 
ATOM     16  H1  UNL     1      11.155  19.498  16.597  1.00  0.00     0.166 HD
HETATM   17  C3  UNL     1      10.812  17.610  19.282  1.00  0.00    -0.037 A 
HETATM   18  C31 UNL     1      11.832  18.123  20.029  1.00  0.00    -0.051 A 
HETATM   19  C30 UNL     1      12.593  19.146  19.490  1.00  0.00     0.055 A 
HETATM   20  C32 UNL     1      12.090  17.576  21.380  1.00  0.00     0.049 C 
BRANCH  17  21
HETATM   21  C2  UNL     1       9.974  16.512  19.843  1.00  0.00     0.036 C 
HETATM   22  C1  UNL     1       9.452  15.678  18.698  1.00  0.00     0.010 C 
ENDBRANCH  17  21
ENDBRANCH  10  13
ENDBRANCH   4   5
BRANCH   4  23
HETATM   23  C24 UNL     1      17.888  24.736  15.232  1.00  0.00     0.013 C 
HETATM   24  C25 UNL     1      19.371  24.406  15.474  1.00  0.00     0.012 C 
BRANCH  23  25
HETATM   25  C26 UNL     1      17.790  26.184  15.009  1.00  0.00     0.002 C 
HETATM   26  C27 UNL     1      18.983  26.897  14.460  1.00  0.00     0.005 C 
ENDBRANCH  23  25
ENDBRANCH   4  23
ENDBRANCH   1   4
BRANCH   3  27
HETATM   27  O2  UNL     1      17.120  25.194  18.739  1.00  0.00    -0.348 OA
ATOM     28  H2  UNL     1      17.206  25.614  19.587  1.00  0.00     0.219 HD
ENDBRANCH   3  27
BRANCH   3  29
HETATM   29  C11 UNL     1      18.780  23.886  19.737  1.00  0.00     0.166 C 
BRANCH  29  30
HETATM   30  N5  UNL     1      20.194  24.101  19.485  1.00  0.00    -0.347 N 
HETATM   31  C12 UNL     1      20.991  25.057  20.097  1.00  0.00     0.236 C 
HETATM   32  O3  UNL     1      20.389  25.805  20.962  1.00  0.00    -0.272 OA
ATOM     33  H5  UNL     1      20.641  23.495  18.797  1.00  0.00     0.163 HD
BRANCH  31  34
HETATM   34  C13 UNL     1      22.410  25.346  19.896  1.00  0.00     0.225 C 
BRANCH  34  35
HETATM   35  N6  UNL     1      22.813  25.688  18.548  1.00  0.00    -0.348 N 
HETATM   36  C14 UNL     1      23.801  26.664  18.324  1.00  0.00     0.256 C 
HETATM   37  O4  UNL     1      24.282  27.211  19.383  1.00  0.00    -0.267 OA
ATOM     38  H6  UNL     1      22.377  25.218  17.754  1.00  0.00     0.163 HD
BRANCH  36  39
HETATM   39  C15 UNL     1      24.345  27.131  17.089  1.00  0.00     0.087 A 
HETATM   40  C16 UNL     1      25.584  26.938  16.540  1.00  0.00     0.047 A 
HETATM   41  C17 UNL     1      26.732  26.183  17.078  1.00  0.00     0.071 C 
HETATM   42  N7  UNL     1      25.623  27.594  15.330  1.00  0.00    -0.265 N 
HETATM   43  O5  UNL     1      24.483  28.154  15.143  1.00  0.00    -0.242 OA
ATOM     44  H7  UNL     1      26.418  27.629  14.693  1.00  0.00     0.194 HD
HETATM   45  C18 UNL     1      23.688  27.922  16.136  1.00  0.00     0.090 A 
HETATM   46  C19 UNL     1      22.288  28.395  16.293  1.00  0.00     0.080 C 
ENDBRANCH  36  39
ENDBRANCH  34  35
ENDBRANCH  31  34
ENDBRANCH  29  30
BRANCH  29  47
HETATM   47  C20 UNL     1      18.582  22.612  20.434  1.00  0.00    -0.023 C 
HETATM   48  C21 UNL     1      19.140  22.575  21.866  1.00  0.00     0.017 C 
HETATM   49  C22 UNL     1      19.363  21.477  19.743  1.00  0.00     0.017 C 
HETATM   50  C23 UNL     1      17.142  22.135  20.462  1.00  0.00     0.017 C 
ENDBRANCH  29  47
ENDBRANCH   3  29
TORSDOF 13
ENDMDL
MODEL 4
REMARK VINA RESULT: -9.773450359      0.301      1.202
REMARK  13 active torsions:
REMARK  status: ('A' for Active; 'I' for Inactive)
REMARK    1  A    between atoms: C2_2  and  C3_3 
REMARK    2  A    between atoms: C5_7  and  N2_8 
REMARK       I    between atoms: N3_11  and  C8_12 
REMARK    3  A    between atoms: C8_12  and  C9_14 
REMARK    4  A    between atoms: C9_14  and  N4_15 
REMARK    5  A    between atoms: C9_14  and  C24_42 
REMARK    6  A    between atoms: C10_17  and  O2_18 
REMARK    7  A    between atoms: C10_17  and  C11_20 
REMARK    8  A    between atoms: C11_20  and  N5_21 
REMARK    9  A    between atoms: C11_20  and  C20_38 
REMARK       I    between atoms: N5_21  and  C12_23 
REMARK   10  A    between atoms: C12_23  and  C13_25 
REMARK   11  A    between atoms: C13_25  and  N6_26 
REMARK       I    between atoms: N6_26  and  C14_28 
REMARK   12  A    between atoms: C14_28  and  C15_30 
REMARK   13  A    between atoms: C24_42  and  C26_44 
ROOT
HETATM    1  N4  UNL     1      18.673  24.287  17.691  1.00  0.00    -0.359 N 
ATOM      2  H4  UNL     1      19.435  24.158  17.024  1.00  0.00     0.162 HD
HETATM    3  C10 UNL     1      19.020  24.859  18.877  1.00  0.00     0.136 C 
ENDROOT
BRANCH   1   4
HETATM    4  C9  UNL     1      17.336  23.824  17.235  1.00  0.00     0.179 C 
BRANCH   4   5
HETATM    5  C8  UNL     1      17.216  22.393  17.485  1.00  0.00     0.243 C 
HETATM    6  N3  UNL     1      16.012  21.663  17.627  1.00  0.00    -0.347 N 
HETATM    7  C7  UNL     1      16.035  20.208  17.849  1.00  0.00     0.145 C 
HETATM    8  C28 UNL     1      14.709  22.289  17.577  1.00  0.00     0.145 C 
HETATM    9  C6  UNL     1      14.763  19.663  17.177  1.00  0.00     0.144 C 
HETATM   10  N2  UNL     1      13.671  20.092  18.026  1.00  0.00    -0.364 N 
HETATM   11  C29 UNL     1      13.619  21.527  18.282  1.00  0.00     0.144 C 
HETATM   12  O1  UNL     1      18.285  21.676  17.596  1.00  0.00    -0.271 OA
BRANCH  10  13
HETATM   13  C5  UNL     1      12.722  19.201  18.582  1.00  0.00     0.103 A 
HETATM   14  N1  UNL     1      11.578  18.923  17.878  1.00  0.00    -0.352 N 
HETATM   15  C4  UNL     1      10.643  18.089  18.366  1.00  0.00     0.097 A 
ATOM     16  H1  UNL     1      11.434  19.357  16.966  1.00  0.00     0.166 HD
HETATM   17  C3  UNL     1      10.765  17.468  19.589  1.00  0.00    -0.037 A 
HETATM   18  C31 UNL     1      11.890  17.721  20.319  1.00  0.00    -0.051 A 
HETATM   19  C30 UNL     1      12.837  18.582  19.793  1.00  0.00     0.055 A 
HETATM   20  C32 UNL     1      12.059  17.074  21.639  1.00  0.00     0.049 C 
BRANCH  17  21
HETATM   21  C2  UNL     1       9.727  16.549  20.136  1.00  0.00     0.036 C 
HETATM   22  C1  UNL     1       9.350  15.560  19.060  1.00  0.00     0.010 C 
ENDBRANCH  17  21
ENDBRANCH  10  13
ENDBRANCH   4   5
BRANCH   4  23
HETATM   23  C24 UNL     1      17.231  24.310  15.842  1.00  0.00     0.013 C 
HETATM   24  C25 UNL     1      16.681  23.229  14.896  1.00  0.00     0.012 C 
BRANCH  23  25
HETATM   25  C26 UNL     1      18.360  24.957  15.162  1.00  0.00     0.002 C 
HETATM   26  C27 UNL     1      18.168  26.342  14.636  1.00  0.00     0.005 C 
ENDBRANCH  23  25
ENDBRANCH   4  23
ENDBRANCH   1   4
BRANCH   3  27
HETATM   27  O2  UNL     1      18.013  25.024  19.683  1.00  0.00    -0.348 OA
ATOM     28  H2  UNL     1      17.772  25.935  19.802  1.00  0.00     0.219 HD
ENDBRANCH   3  27
BRANCH   3  29
HETATM   29  C11 UNL     1      20.315  25.315  19.404  1.00  0.00     0.166 C 
BRANCH  29  30
HETATM   30  N5  UNL     1      21.170  25.857  18.363  1.00  0.00    -0.347 N 
HETATM   31  C12 UNL     1      21.364  27.204  18.093  1.00  0.00     0.236 C 
HETATM   32  O3  UNL     1      20.711  28.019  18.854  1.00  0.00    -0.272 OA
ATOM     33  H5  UNL     1      21.672  25.189  17.779  1.00  0.00     0.163 HD
BRANCH  31  34
HETATM   34  C13 UNL     1      22.193  27.831  17.064  1.00  0.00     0.225 C 
BRANCH  34  35
HETATM   35  N6  UNL     1      23.626  27.712  17.231  1.00  0.00    -0.348 N 
HETATM   36  C14 UNL     1      24.376  26.875  16.384  1.00  0.00     0.256 C 
HETATM   37  O4  UNL     1      23.697  26.240  15.497  1.00  0.00    -0.267 OA
ATOM     38  H6  UNL     1      24.096  28.238  17.967  1.00  0.00     0.163 HD
BRANCH  36  39
HETATM   39  C15 UNL     1      25.783  26.631  16.373  1.00  0.00     0.087 A 
HETATM   40  C16 UNL     1      26.781  27.253  15.671  1.00  0.00     0.047 A 
HETATM   41  C17 UNL     1      26.687  28.367  14.711  1.00  0.00     0.071 C 
HETATM   42  N7  UNL     1      27.975  26.653  16.005  1.00  0.00    -0.265 N 
HETATM   43  O5  UNL     1      27.731  25.723  16.856  1.00  0.00    -0.242 OA
ATOM     44  H7  UNL     1      28.894  26.903  15.639  1.00  0.00     0.194 HD
HETATM   45  C18 UNL     1      26.467  25.658  17.114  1.00  0.00     0.090 A 
HETATM   46  C19 UNL     1      25.789  24.716  18.045  1.00  0.00     0.080 C 
ENDBRANCH  36  39
ENDBRANCH  34  35
ENDBRANCH  31  34
ENDBRANCH  29  30
BRANCH  29  47
HETATM   47  C20 UNL     1      21.090  24.435  20.282  1.00  0.00    -0.023 C 
HETATM   48  C21 UNL     1      21.357  25.007  21.684  1.00  0.00     0.017 C 
HETATM   49  C22 UNL     1      22.515  24.223  19.734  1.00  0.00     0.017 C 
HETATM   50  C23 UNL     1      20.516  23.039  20.430  1.00  0.00     0.017 C 
ENDBRANCH  29  47
ENDBRANCH   3  29
TORSDOF 13
ENDMDL
MODEL 5
REMARK VINA RESULT: -9.696824032      1.842      2.868
REMARK  13 active torsions:
REMARK  status: ('A' for Active; 'I' for Inactive)
REMARK    1  A    between atoms: C2_2  and  C3_3 
REMARK    2  A    between atoms: C5_7  and  N2_8 
REMARK       I    between atoms: N3_11  and  C8_12 
REMARK    3  A    between atoms: C8_12  and  C9_14 
REMARK    4  A    between atoms: C9_14  and  N4_15 
REMARK    5  A    between atoms: C9_14  and  C24_42 
REMARK    6  A    between atoms: C10_17  and  O2_18 
REMARK    7  A    between atoms: C10_17  and  C11_20 
REMARK    8  A    between atoms: C11_20  and  N5_21 
REMARK    9  A    between atoms: C11_20  and  C20_38 
REMARK       I    between atoms: N5_21  and  C12_23 
REMARK   10  A    between atoms: C12_23  and  C13_25 
REMARK   11  A    between atoms: C13_25  and  N6_26 
REMARK       I    between atoms: N6_26  and  C14_28 
REMARK   12  A    between atoms: C14_28  and  C15_30 
REMARK   13  A    between atoms: C24_42  and  C26_44 
ROOT
HETATM    1  N4  UNL     1      18.940  25.679  17.915  1.00  0.00    -0.359 N 
ATOM      2  H4  UNL     1      18.602  26.308  18.644  1.00  0.00     0.162 HD
HETATM    3  C10 UNL     1      19.775  24.687  18.334  1.00  0.00     0.136 C 
ENDROOT
BRANCH   1   4
HETATM    4  C9  UNL     1      18.456  25.970  16.540  1.00  0.00     0.179 C 
BRANCH   4   5
HETATM    5  C8  UNL     1      17.898  24.753  15.963  1.00  0.00     0.243 C 
HETATM    6  N3  UNL     1      16.778  24.034  16.443  1.00  0.00    -0.347 N 
HETATM    7  C7  UNL     1      16.301  22.830  15.744  1.00  0.00     0.145 C 
HETATM    8  C28 UNL     1      16.053  24.419  17.634  1.00  0.00     0.145 C 
HETATM    9  C6  UNL     1      14.778  22.797  15.961  1.00  0.00     0.144 C 
HETATM   10  N2  UNL     1      14.601  22.441  17.354  1.00  0.00    -0.364 N 
HETATM   11  C29 UNL     1      15.301  23.301  18.301  1.00  0.00     0.144 C 
HETATM   12  O1  UNL     1      18.444  24.241  14.910  1.00  0.00    -0.271 OA
BRANCH  10  13
HETATM   13  C5  UNL     1      13.820  21.340  17.782  1.00  0.00     0.103 A 
HETATM   14  N1  UNL     1      12.726  20.972  17.041  1.00  0.00    -0.352 N 
HETATM   15  C4  UNL     1      11.949  19.939  17.410  1.00  0.00     0.097 A 
ATOM     16  H1  UNL     1      12.498  21.492  16.193  1.00  0.00     0.166 HD
HETATM   17  C3  UNL     1      12.191  19.192  18.541  1.00  0.00    -0.037 A 
HETATM   18  C31 UNL     1      13.270  19.529  19.304  1.00  0.00    -0.051 A 
HETATM   19  C30 UNL     1      14.055  20.596  18.902  1.00  0.00     0.055 A 
HETATM   20  C32 UNL     1      13.565  18.751  20.528  1.00  0.00     0.049 C 
BRANCH  17  21
HETATM   21  C2  UNL     1      11.327  18.050  18.956  1.00  0.00     0.036 C 
HETATM   22  C1  UNL     1      11.523  16.921  17.973  1.00  0.00     0.010 C 
ENDBRANCH  17  21
ENDBRANCH  10  13
ENDBRANCH   4   5
BRANCH   4  23
HETATM   23  C24 UNL     1      19.610  26.606  15.868  1.00  0.00     0.013 C 
HETATM   24  C25 UNL     1      20.479  27.408  16.852  1.00  0.00     0.012 C 
BRANCH  23  25
HETATM   25  C26 UNL     1      19.446  27.422  14.658  1.00  0.00     0.002 C 
HETATM   26  C27 UNL     1      20.595  28.268  14.216  1.00  0.00     0.005 C 
ENDBRANCH  23  25
ENDBRANCH   4  23
ENDBRANCH   1   4
BRANCH   3  27
HETATM   27  O2  UNL     1      20.160  23.899  17.374  1.00  0.00    -0.348 OA
ATOM     28  H2  UNL     1      19.493  23.760  16.713  1.00  0.00     0.219 HD
ENDBRANCH   3  27
BRANCH   3  29
HETATM   29  C11 UNL     1      20.314  24.355  19.662  1.00  0.00     0.166 C 
BRANCH  29  30
HETATM   30  N5  UNL     1      21.734  24.056  19.617  1.00  0.00    -0.347 N 
HETATM   31  C12 UNL     1      22.759  24.943  19.910  1.00  0.00     0.236 C 
HETATM   32  O3  UNL     1      22.382  26.131  20.251  1.00  0.00    -0.272 OA
ATOM     33  H5  UNL     1      22.001  23.110  19.345  1.00  0.00     0.163 HD
BRANCH  31  34
HETATM   34  C13 UNL     1      24.205  24.727  19.880  1.00  0.00     0.225 C 
BRANCH  34  35
HETATM   35  N6  UNL     1      24.850  24.857  18.590  1.00  0.00    -0.348 N 
HETATM   36  C14 UNL     1      25.414  26.083  18.193  1.00  0.00     0.256 C 
HETATM   37  O4  UNL     1      25.297  27.042  19.041  1.00  0.00    -0.267 OA
ATOM     38  H6  UNL     1      24.894  24.053  17.963  1.00  0.00     0.163 HD
BRANCH  36  39
HETATM   39  C15 UNL     1      26.098  26.412  16.984  1.00  0.00     0.087 A 
HETATM   40  C16 UNL     1      27.399  26.192  16.617  1.00  0.00     0.047 A 
HETATM   41  C17 UNL     1      28.483  25.544  17.379  1.00  0.00     0.071 C 
HETATM   42  N7  UNL     1      27.576  26.695  15.347  1.00  0.00    -0.265 N 
HETATM   43  O5  UNL     1      26.459  27.192  14.956  1.00  0.00    -0.242 OA
ATOM     44  H7  UNL     1      28.443  26.676  14.811  1.00  0.00     0.194 HD
HETATM   45  C18 UNL     1      25.552  27.059  15.867  1.00  0.00     0.090 A 
HETATM   46  C19 UNL     1      24.135  27.505  15.794  1.00  0.00     0.080 C 
ENDBRANCH  36  39
ENDBRANCH  34  35
ENDBRANCH  31  34
ENDBRANCH  29  30
BRANCH  29  47
HETATM   47  C20 UNL     1      19.621  23.376  20.501  1.00  0.00    -0.023 C 
HETATM   48  C21 UNL     1      19.199  22.092  19.769  1.00  0.00     0.017 C 
HETATM   49  C22 UNL     1      18.272  23.931  21.000  1.00  0.00     0.017 C 
HETATM   50  C23 UNL     1      20.374  22.990  21.760  1.00  0.00     0.017 C 
ENDBRANCH  29  47
ENDBRANCH   3  29
TORSDOF 13
ENDMDL
