MODEL 1
REMARK VINA RESULT: -8.605206368      0.000      0.000
REMARK  17 active torsions:
REMARK  status: ('A' for Active; 'I' for Inactive)
REMARK    1  A    between atoms: C2_2  and  O2_4 
REMARK    2  A    between atoms: O2_4  and  C3_5 
REMARK    3  A    between atoms: C3_5  and  O4_7 
REMARK    4  A    between atoms: O4_7  and  C4_8 
REMARK    5  A    between atoms: C5_9  and  O5_10 
REMARK    6  A    between atoms: O5_10  and  S1_11 
REMARK    7  A    between atoms: C7_16  and  S2_17 
REMARK    8  A    between atoms: S2_17  and  C8_18 
REMARK    9  A    between atoms: C9_19  and  C10_20 
REMARK   10  A    between atoms: C11_25  and  N3_26 
REMARK   11  A    between atoms: N3_26  and  C12_28 
REMARK   12  A    between atoms: C12_28  and  C14_31 
REMARK   13  A    between atoms: N5_33  and  O11_35 
REMARK   14  A    between atoms: O11_35  and  C16_36 
REMARK   15  A    between atoms: C16_36  and  C17_37 
REMARK   16  A    between atoms: C21_44  and  N6_45 
REMARK   17  A    between atoms: C22_49  and  O15_50 
ROOT
HETATM    1  C12 UNL     1      42.280  41.882  41.167  1.00  0.00     0.234 C 
HETATM    2  C13 UNL     1      43.212  42.658  40.353  1.00  0.00     0.090 C 
HETATM    3  N4  UNL     1      43.937  43.262  39.687  1.00  0.00    -0.195 NA
ENDROOT
BRANCH   1   4
HETATM    4  N3  UNL     1      40.967  42.383  41.093  1.00  0.00    -0.381 N 
ATOM      5  H3  UNL     1      40.766  43.243  41.605  1.00  0.00     0.156 HD
BRANCH   4   6
HETATM    6  C11 UNL     1      39.925  41.811  40.385  1.00  0.00     0.218 C 
HETATM    7  N2  UNL     1      40.170  40.321  40.336  1.00  0.00    -0.110 NA
HETATM    8  N1  UNL     1      40.720  40.526  39.076  1.00  0.00    -0.277 N 
HETATM    9  C9  UNL     1      41.604  40.235  37.965  1.00  0.00     0.145 C 
HETATM   10  C18 UNL     1      39.837  41.615  38.927  1.00  0.00     0.152 C 
HETATM   11  C8  UNL     1      41.694  40.994  36.902  1.00  0.00     0.081 C 
HETATM   12  C20 UNL     1      40.992  42.284  36.866  1.00  0.00     0.170 C 
HETATM   13  C19 UNL     1      40.286  42.761  38.064  1.00  0.00     0.115 C 
HETATM   14  O14 UNL     1      41.011  42.951  35.796  1.00  0.00    -0.292 OA
BRANCH   9  15
HETATM   15  C10 UNL     1      42.406  38.998  38.063  1.00  0.00     0.229 C 
HETATM   16  O9  UNL     1      42.195  37.977  37.388  1.00  0.00    -0.643 OA
HETATM   17  O10 UNL     1      43.481  38.954  38.974  1.00  0.00    -0.643 OA
ENDBRANCH   9  15
BRANCH  11  18
HETATM   18  S2  UNL     1      42.772  40.560  35.516  1.00  0.00    -0.117 SA
BRANCH  18  19
HETATM   19  C7  UNL     1      44.485  40.752  36.096  1.00  0.00     0.088 C 
HETATM   20  C6  UNL     1      45.441  39.817  35.394  1.00  0.00     0.054 C 
HETATM   21  C5  UNL     1      45.905  40.319  34.072  1.00  0.00     0.178 C 
HETATM   22  C4  UNL     1      46.700  41.595  34.282  1.00  0.00     0.195 C 
HETATM   23  C22 UNL     1      46.366  42.309  35.564  1.00  0.00     0.181 C 
HETATM   24  C21 UNL     1      44.926  42.186  35.944  1.00  0.00     0.228 C 
BRANCH  21  25
HETATM   25  O5  UNL     1      44.861  40.502  33.201  1.00  0.00    -0.249 OA
BRANCH  25  26
HETATM   26  S1  UNL     1      44.983  39.481  31.862  1.00  0.00     0.252 S 
HETATM   27  O6  UNL     1      45.168  38.084  32.371  1.00  0.00    -0.572 OA
HETATM   28  O7  UNL     1      46.118  39.848  30.999  1.00  0.00    -0.572 OA
HETATM   29  O8  UNL     1      43.493  39.515  31.065  1.00  0.00    -0.572 OA
ENDBRANCH  25  26
ENDBRANCH  21  25
BRANCH  22  30
HETATM   30  O4  UNL     1      48.068  41.232  34.336  1.00  0.00    -0.287 OA
BRANCH  30  31
HETATM   31  C3  UNL     1      48.648  40.323  33.471  1.00  0.00     0.414 C 
HETATM   32  O3  UNL     1      49.265  40.796  32.479  1.00  0.00    -0.229 OA
BRANCH  31  33
HETATM   33  O2  UNL     1      48.602  38.947  33.622  1.00  0.00    -0.221 OA
BRANCH  33  34
HETATM   34  C2  UNL     1      49.145  38.327  34.770  1.00  0.00     0.263 C 
HETATM   35  C1  UNL     1      50.562  38.426  35.122  1.00  0.00     0.127 C 
HETATM   36  O1  UNL     1      48.339  37.683  35.473  1.00  0.00    -0.265 OA
ENDBRANCH  33  34
ENDBRANCH  31  33
ENDBRANCH  30  31
ENDBRANCH  22  30
BRANCH  23  37
HETATM   37  O15 UNL     1      46.643  43.686  35.427  1.00  0.00    -0.391 OA
ATOM     38  H15 UNL     1      47.238  43.823  34.699  1.00  0.00     0.210 HD
ENDBRANCH  23  37
BRANCH  24  39
HETATM   39  N6  UNL     1      44.146  42.884  34.938  1.00  0.00    -0.071 N 
ATOM     40  H63 UNL     1      44.723  43.538  34.408  1.00  0.00     0.274 HD
ATOM     41  H62 UNL     1      43.874  42.260  34.179  1.00  0.00     0.274 HD
ATOM     42  H61 UNL     1      43.335  43.349  35.345  1.00  0.00     0.274 HD
ENDBRANCH  24  39
ENDBRANCH  18  19
ENDBRANCH  11  18
ENDBRANCH   4   6
ENDBRANCH   1   4
BRANCH   1  43
HETATM   43  C14 UNL     1      42.726  42.052  42.653  1.00  0.00     0.042 C 
HETATM   44  C15 UNL     1      41.747  42.126  43.733  1.00  0.00     0.069 C 
HETATM   45  N5  UNL     1      43.968  42.127  42.842  1.00  0.00    -0.272 N 
ATOM     46  H5  UNL     1      44.552  42.066  42.007  1.00  0.00     0.193 HD
BRANCH  45  47
HETATM   47  O11 UNL     1      44.619  42.277  44.003  1.00  0.00    -0.270 OA
BRANCH  47  48
HETATM   48  C16 UNL     1      46.019  41.886  43.995  1.00  0.00     0.314 C 
BRANCH  48  49
HETATM   49  C17 UNL     1      46.468  41.861  42.607  1.00  0.00     0.200 C 
HETATM   50  O12 UNL     1      46.550  42.946  41.944  1.00  0.00    -0.646 OA
HETATM   51  O13 UNL     1      46.826  40.695  41.935  1.00  0.00    -0.646 OA
ENDBRANCH  48  49
ENDBRANCH  47  48
ENDBRANCH  45  47
ENDBRANCH   1  43
TORSDOF 17
ENDMDL
MODEL 2
REMARK VINA RESULT: -8.074923035      2.870      4.387
REMARK  17 active torsions:
REMARK  status: ('A' for Active; 'I' for Inactive)
REMARK    1  A    between atoms: C2_2  and  O2_4 
REMARK    2  A    between atoms: O2_4  and  C3_5 
REMARK    3  A    between atoms: C3_5  and  O4_7 
REMARK    4  A    between atoms: O4_7  and  C4_8 
REMARK    5  A    between atoms: C5_9  and  O5_10 
REMARK    6  A    between atoms: O5_10  and  S1_11 
REMARK    7  A    between atoms: C7_16  and  S2_17 
REMARK    8  A    between atoms: S2_17  and  C8_18 
REMARK    9  A    between atoms: C9_19  and  C10_20 
REMARK   10  A    between atoms: C11_25  and  N3_26 
REMARK   11  A    between atoms: N3_26  and  C12_28 
REMARK   12  A    between atoms: C12_28  and  C14_31 
REMARK   13  A    between atoms: N5_33  and  O11_35 
REMARK   14  A    between atoms: O11_35  and  C16_36 
REMARK   15  A    between atoms: C16_36  and  C17_37 
REMARK   16  A    between atoms: C21_44  and  N6_45 
REMARK   17  A    between atoms: C22_49  and  O15_50 
ROOT
HETATM    1  C12 UNL     1      42.263  41.797  41.193  1.00  0.00     0.234 C 
HETATM    2  C13 UNL     1      43.131  42.680  40.417  1.00  0.00     0.090 C 
HETATM    3  N4  UNL     1      43.807  43.367  39.781  1.00  0.00    -0.195 NA
ENDROOT
BRANCH   1   4
HETATM    4  N3  UNL     1      40.907  42.161  41.088  1.00  0.00    -0.381 N 
ATOM      5  H3  UNL     1      40.594  42.956  41.647  1.00  0.00     0.156 HD
BRANCH   4   6
HETATM    6  C11 UNL     1      39.964  41.535  40.293  1.00  0.00     0.218 C 
HETATM    7  N2  UNL     1      40.299  40.062  40.260  1.00  0.00    -0.110 NA
HETATM    8  N1  UNL     1      40.941  40.310  39.052  1.00  0.00    -0.277 N 
HETATM    9  C9  UNL     1      41.930  40.080  38.018  1.00  0.00     0.145 C 
HETATM   10  C18 UNL     1      40.011  41.347  38.832  1.00  0.00     0.152 C 
HETATM   11  C8  UNL     1      42.065  40.852  36.970  1.00  0.00     0.081 C 
HETATM   12  C20 UNL     1      41.294  42.099  36.878  1.00  0.00     0.170 C 
HETATM   13  C19 UNL     1      40.464  42.524  38.014  1.00  0.00     0.115 C 
HETATM   14  O14 UNL     1      41.365  42.775  35.816  1.00  0.00    -0.292 OA
BRANCH   9  15
HETATM   15  C10 UNL     1      42.792  38.890  38.180  1.00  0.00     0.229 C 
HETATM   16  O9  UNL     1      42.638  37.830  37.553  1.00  0.00    -0.643 OA
HETATM   17  O10 UNL     1      43.860  38.943  39.098  1.00  0.00    -0.643 OA
ENDBRANCH   9  15
BRANCH  11  18
HETATM   18  S2  UNL     1      43.280  40.492  35.678  1.00  0.00    -0.117 SA
BRANCH  18  19
HETATM   19  C7  UNL     1      42.525  39.266  34.566  1.00  0.00     0.088 C 
HETATM   20  C6  UNL     1      41.617  39.900  33.539  1.00  0.00     0.054 C 
HETATM   21  C5  UNL     1      42.339  40.432  32.350  1.00  0.00     0.178 C 
HETATM   22  C4  UNL     1      42.999  39.276  31.620  1.00  0.00     0.195 C 
HETATM   23  C22 UNL     1      43.253  38.077  32.493  1.00  0.00     0.181 C 
HETATM   24  C21 UNL     1      43.596  38.440  33.901  1.00  0.00     0.228 C 
BRANCH  21  25
HETATM   25  O5  UNL     1      43.243  41.405  32.696  1.00  0.00    -0.249 OA
BRANCH  25  26
HETATM   26  S1  UNL     1      42.645  42.950  32.373  1.00  0.00     0.252 S 
HETATM   27  O6  UNL     1      41.151  42.891  32.479  1.00  0.00    -0.572 OA
HETATM   28  O7  UNL     1      43.027  43.411  31.028  1.00  0.00    -0.572 OA
HETATM   29  O8  UNL     1      43.181  43.967  33.611  1.00  0.00    -0.572 OA
ENDBRANCH  25  26
ENDBRANCH  21  25
BRANCH  22  30
HETATM   30  O4  UNL     1      42.118  38.877  30.585  1.00  0.00    -0.287 OA
BRANCH  30  31
HETATM   31  C3  UNL     1      41.349  37.730  30.642  1.00  0.00     0.414 C 
HETATM   32  O3  UNL     1      40.185  37.848  31.111  1.00  0.00    -0.229 OA
BRANCH  31  33
HETATM   33  O2  UNL     1      41.764  36.478  30.220  1.00  0.00    -0.221 OA
BRANCH  33  34
HETATM   34  C2  UNL     1      42.551  36.333  29.055  1.00  0.00     0.263 C 
HETATM   35  C1  UNL     1      41.967  36.237  27.716  1.00  0.00     0.127 C 
HETATM   36  O1  UNL     1      43.787  36.289  29.234  1.00  0.00    -0.265 OA
ENDBRANCH  33  34
ENDBRANCH  31  33
ENDBRANCH  30  31
ENDBRANCH  22  30
BRANCH  23  37
HETATM   37  O15 UNL     1      44.339  37.336  31.979  1.00  0.00    -0.391 OA
ATOM     38  H15 UNL     1      45.079  37.913  31.831  1.00  0.00     0.210 HD
ENDBRANCH  23  37
BRANCH  24  39
HETATM   39  N6  UNL     1      44.872  39.133  33.876  1.00  0.00    -0.071 N 
ATOM     40  H63 UNL     1      44.761  40.105  33.585  1.00  0.00     0.274 HD
ATOM     41  H62 UNL     1      45.228  39.290  34.819  1.00  0.00     0.274 HD
ATOM     42  H61 UNL     1      45.555  38.646  33.297  1.00  0.00     0.274 HD
ENDBRANCH  24  39
ENDBRANCH  18  19
ENDBRANCH  11  18
ENDBRANCH   4   6
ENDBRANCH   1   4
BRANCH   1  43
HETATM   43  C14 UNL     1      42.649  41.987  42.693  1.00  0.00     0.042 C 
HETATM   44  C15 UNL     1      41.626  42.109  43.727  1.00  0.00     0.069 C 
HETATM   45  N5  UNL     1      43.884  42.032  42.935  1.00  0.00    -0.272 N 
ATOM     46  H5  UNL     1      44.501  41.938  42.127  1.00  0.00     0.193 HD
BRANCH  45  47
HETATM   47  O11 UNL     1      44.487  42.189  44.120  1.00  0.00    -0.270 OA
BRANCH  47  48
HETATM   48  C16 UNL     1      45.924  41.967  44.128  1.00  0.00     0.314 C 
BRANCH  48  49
HETATM   49  C17 UNL     1      46.387  41.984  42.746  1.00  0.00     0.200 C 
HETATM   50  O12 UNL     1      46.383  43.075  42.086  1.00  0.00    -0.646 OA
HETATM   51  O13 UNL     1      46.850  40.855  42.075  1.00  0.00    -0.646 OA
ENDBRANCH  48  49
ENDBRANCH  47  48
ENDBRANCH  45  47
ENDBRANCH   1  43
TORSDOF 17
ENDMDL
MODEL 3
REMARK VINA RESULT: -7.932966804      4.939     10.026
REMARK  17 active torsions:
REMARK  status: ('A' for Active; 'I' for Inactive)
REMARK    1  A    between atoms: C2_2  and  O2_4 
REMARK    2  A    between atoms: O2_4  and  C3_5 
REMARK    3  A    between atoms: C3_5  and  O4_7 
REMARK    4  A    between atoms: O4_7  and  C4_8 
REMARK    5  A    between atoms: C5_9  and  O5_10 
REMARK    6  A    between atoms: O5_10  and  S1_11 
REMARK    7  A    between atoms: C7_16  and  S2_17 
REMARK    8  A    between atoms: S2_17  and  C8_18 
REMARK    9  A    between atoms: C9_19  and  C10_20 
REMARK   10  A    between atoms: C11_25  and  N3_26 
REMARK   11  A    between atoms: N3_26  and  C12_28 
REMARK   12  A    between atoms: C12_28  and  C14_31 
REMARK   13  A    between atoms: N5_33  and  O11_35 
REMARK   14  A    between atoms: O11_35  and  C16_36 
REMARK   15  A    between atoms: C16_36  and  C17_37 
REMARK   16  A    between atoms: C21_44  and  N6_45 
REMARK   17  A    between atoms: C22_49  and  O15_50 
ROOT
HETATM    1  C12 UNL     1      43.425  35.449  28.068  1.00  0.00     0.234 C 
HETATM    2  C13 UNL     1      42.323  34.555  27.718  1.00  0.00     0.090 C 
HETATM    3  N4  UNL     1      41.469  33.829  27.442  1.00  0.00    -0.195 NA
ENDROOT
BRANCH   1   4
HETATM    4  N3  UNL     1      43.875  35.244  29.386  1.00  0.00    -0.381 N 
ATOM      5  H3  UNL     1      43.170  35.237  30.123  1.00  0.00     0.156 HD
BRANCH   4   6
HETATM    6  C11 UNL     1      45.191  35.050  29.766  1.00  0.00     0.218 C 
HETATM    7  N2  UNL     1      45.184  34.483  31.166  1.00  0.00    -0.110 NA
HETATM    8  N1  UNL     1      45.397  35.781  31.615  1.00  0.00    -0.277 N 
HETATM    9  C9  UNL     1      45.310  36.875  32.561  1.00  0.00     0.145 C 
HETATM   10  C18 UNL     1      46.087  36.026  30.410  1.00  0.00     0.152 C 
HETATM   11  C8  UNL     1      45.733  38.086  32.299  1.00  0.00     0.081 C 
HETATM   12  C20 UNL     1      46.189  38.421  30.944  1.00  0.00     0.170 C 
HETATM   13  C19 UNL     1      46.061  37.428  29.868  1.00  0.00     0.115 C 
HETATM   14  O14 UNL     1      46.685  39.562  30.739  1.00  0.00    -0.292 OA
BRANCH   9  15
HETATM   15  C10 UNL     1      44.731  36.561  33.885  1.00  0.00     0.229 C 
HETATM   16  O9  UNL     1      43.526  36.676  34.161  1.00  0.00    -0.643 OA
HETATM   17  O10 UNL     1      45.584  36.102  34.909  1.00  0.00    -0.643 OA
ENDBRANCH   9  15
BRANCH  11  18
HETATM   18  S2  UNL     1      45.652  39.407  33.534  1.00  0.00    -0.117 SA
BRANCH  18  19
HETATM   19  C7  UNL     1      44.215  40.439  33.111  1.00  0.00     0.088 C 
HETATM   20  C6  UNL     1      42.955  39.991  33.812  1.00  0.00     0.054 C 
HETATM   21  C5  UNL     1      42.830  40.505  35.203  1.00  0.00     0.178 C 
HETATM   22  C4  UNL     1      42.727  42.019  35.159  1.00  0.00     0.195 C 
HETATM   23  C22 UNL     1      43.316  42.627  33.915  1.00  0.00     0.181 C 
HETATM   24  C21 UNL     1      44.512  41.887  33.411  1.00  0.00     0.228 C 
BRANCH  21  25
HETATM   25  O5  UNL     1      43.866  40.083  35.998  1.00  0.00    -0.249 OA
BRANCH  25  26
HETATM   26  S1  UNL     1      43.333  39.027  37.202  1.00  0.00     0.252 S 
HETATM   27  O6  UNL     1      43.284  39.792  38.490  1.00  0.00    -0.572 OA
HETATM   28  O7  UNL     1      44.231  37.870  37.348  1.00  0.00    -0.572 OA
HETATM   29  O8  UNL     1      41.740  38.600  36.829  1.00  0.00    -0.572 OA
ENDBRANCH  25  26
ENDBRANCH  21  25
BRANCH  22  30
HETATM   30  O4  UNL     1      41.350  42.346  35.188  1.00  0.00    -0.287 OA
BRANCH  30  31
HETATM   31  C3  UNL     1      40.654  42.609  36.354  1.00  0.00     0.414 C 
HETATM   32  O3  UNL     1      39.945  43.651  36.370  1.00  0.00    -0.229 OA
BRANCH  31  33
HETATM   33  O2  UNL     1      40.681  41.813  37.486  1.00  0.00    -0.221 OA
BRANCH  33  34
HETATM   34  C2  UNL     1      40.933  42.373  38.759  1.00  0.00     0.263 C 
HETATM   35  C1  UNL     1      40.013  42.213  39.886  1.00  0.00     0.127 C 
HETATM   36  O1  UNL     1      41.996  43.019  38.868  1.00  0.00    -0.265 OA
ENDBRANCH  33  34
ENDBRANCH  31  33
ENDBRANCH  30  31
ENDBRANCH  22  30
BRANCH  23  37
HETATM   37  O15 UNL     1      43.729  43.950  34.182  1.00  0.00    -0.391 OA
ATOM     38  H15 UNL     1      42.987  44.539  34.106  1.00  0.00     0.210 HD
ENDBRANCH  23  37
BRANCH  24  39
HETATM   39  N6  UNL     1      45.563  42.026  34.402  1.00  0.00    -0.071 N 
ATOM     40  H63 UNL     1      45.986  41.124  34.625  1.00  0.00     0.274 HD
ATOM     41  H62 UNL     1      46.382  42.493  34.013  1.00  0.00     0.274 HD
ATOM     42  H61 UNL     1      45.230  42.498  35.242  1.00  0.00     0.274 HD
ENDBRANCH  24  39
ENDBRANCH  18  19
ENDBRANCH  11  18
ENDBRANCH   4   6
ENDBRANCH   1   4
BRANCH   1  43
HETATM   43  C14 UNL     1      42.862  36.903  28.023  1.00  0.00     0.042 C 
HETATM   44  C15 UNL     1      42.627  37.584  26.754  1.00  0.00     0.069 C 
HETATM   45  N5  UNL     1      42.637  37.433  29.143  1.00  0.00    -0.272 N 
ATOM     46  H5  UNL     1      42.843  36.857  29.959  1.00  0.00     0.193 HD
BRANCH  45  47
HETATM   47  O11 UNL     1      42.159  38.659  29.395  1.00  0.00    -0.270 OA
BRANCH  47  48
HETATM   48  C16 UNL     1      41.794  38.920  30.778  1.00  0.00     0.314 C 
BRANCH  48  49
HETATM   49  C17 UNL     1      40.886  37.863  31.207  1.00  0.00     0.200 C 
HETATM   50  O12 UNL     1      39.627  38.056  31.184  1.00  0.00    -0.646 OA
HETATM   51  O13 UNL     1      41.314  36.616  31.655  1.00  0.00    -0.646 OA
ENDBRANCH  48  49
ENDBRANCH  47  48
ENDBRANCH  45  47
ENDBRANCH   1  43
TORSDOF 17
ENDMDL
MODEL 4
REMARK VINA RESULT: -7.879873864      2.983      4.458
REMARK  17 active torsions:
REMARK  status: ('A' for Active; 'I' for Inactive)
REMARK    1  A    between atoms: C2_2  and  O2_4 
REMARK    2  A    between atoms: O2_4  and  C3_5 
REMARK    3  A    between atoms: C3_5  and  O4_7 
REMARK    4  A    between atoms: O4_7  and  C4_8 
REMARK    5  A    between atoms: C5_9  and  O5_10 
REMARK    6  A    between atoms: O5_10  and  S1_11 
REMARK    7  A    between atoms: C7_16  and  S2_17 
REMARK    8  A    between atoms: S2_17  and  C8_18 
REMARK    9  A    between atoms: C9_19  and  C10_20 
REMARK   10  A    between atoms: C11_25  and  N3_26 
REMARK   11  A    between atoms: N3_26  and  C12_28 
REMARK   12  A    between atoms: C12_28  and  C14_31 
REMARK   13  A    between atoms: N5_33  and  O11_35 
REMARK   14  A    between atoms: O11_35  and  C16_36 
REMARK   15  A    between atoms: C16_36  and  C17_37 
REMARK   16  A    between atoms: C21_44  and  N6_45 
REMARK   17  A    between atoms: C22_49  and  O15_50 
ROOT
HETATM    1  C12 UNL     1      42.325  41.862  40.889  1.00  0.00     0.234 C 
HETATM    2  C13 UNL     1      43.307  42.670  40.169  1.00  0.00     0.090 C 
HETATM    3  N4  UNL     1      44.072  43.299  39.576  1.00  0.00    -0.195 NA
ENDROOT
BRANCH   1   4
HETATM    4  N3  UNL     1      41.013  42.340  40.711  1.00  0.00    -0.381 N 
ATOM      5  H3  UNL     1      40.768  43.215  41.177  1.00  0.00     0.156 HD
BRANCH   4   6
HETATM    6  C11 UNL     1      40.027  41.726  39.960  1.00  0.00     0.218 C 
HETATM    7  N2  UNL     1      40.300  40.240  39.973  1.00  0.00    -0.110 NA
HETATM    8  N1  UNL     1      40.924  40.418  38.744  1.00  0.00    -0.277 N 
HETATM    9  C9  UNL     1      41.879  40.109  37.699  1.00  0.00     0.145 C 
HETATM   10  C18 UNL     1      40.033  41.484  38.506  1.00  0.00     0.152 C 
HETATM   11  C8  UNL     1      42.022  40.837  36.620  1.00  0.00     0.081 C 
HETATM   12  C20 UNL     1      41.301  42.111  36.499  1.00  0.00     0.170 C 
HETATM   13  C19 UNL     1      40.514  42.611  37.636  1.00  0.00     0.115 C 
HETATM   14  O14 UNL     1      41.375  42.745  35.412  1.00  0.00    -0.292 OA
BRANCH   9  15
HETATM   15  C10 UNL     1      42.695  38.891  37.885  1.00  0.00     0.229 C 
HETATM   16  O9  UNL     1      42.540  37.844  37.236  1.00  0.00    -0.643 OA
HETATM   17  O10 UNL     1      43.718  38.899  38.855  1.00  0.00    -0.643 OA
ENDBRANCH   9  15
BRANCH  11  18
HETATM   18  S2  UNL     1      43.191  40.381  35.316  1.00  0.00    -0.117 SA
BRANCH  18  19
HETATM   19  C7  UNL     1      42.272  40.406  33.747  1.00  0.00     0.088 C 
HETATM   20  C6  UNL     1      43.156  40.722  32.564  1.00  0.00     0.054 C 
HETATM   21  C5  UNL     1      43.892  39.541  32.035  1.00  0.00     0.178 C 
HETATM   22  C4  UNL     1      42.887  38.534  31.506  1.00  0.00     0.195 C 
HETATM   23  C22 UNL     1      41.518  38.672  32.114  1.00  0.00     0.181 C 
HETATM   24  C21 UNL     1      41.553  39.097  33.546  1.00  0.00     0.228 C 
BRANCH  21  25
HETATM   25  O5  UNL     1      44.721  38.991  32.981  1.00  0.00    -0.249 OA
BRANCH  25  26
HETATM   26  S1  UNL     1      46.332  39.416  32.715  1.00  0.00     0.252 S 
HETATM   27  O6  UNL     1      47.175  38.214  33.012  1.00  0.00    -0.572 OA
HETATM   28  O7  UNL     1      46.749  40.537  33.575  1.00  0.00    -0.572 OA
HETATM   29  O8  UNL     1      46.504  39.736  31.064  1.00  0.00    -0.572 OA
ENDBRANCH  25  26
ENDBRANCH  21  25
BRANCH  22  30
HETATM   30  O4  UNL     1      42.764  38.759  30.113  1.00  0.00    -0.287 OA
BRANCH  30  31
HETATM   31  C3  UNL     1      42.875  37.755  29.168  1.00  0.00     0.414 C 
HETATM   32  O3  UNL     1      42.393  36.631  29.474  1.00  0.00    -0.229 OA
BRANCH  31  33
HETATM   33  O2  UNL     1      43.466  37.902  27.925  1.00  0.00    -0.221 OA
BRANCH  33  34
HETATM   34  C2  UNL     1      42.969  37.206  26.800  1.00  0.00     0.263 C 
HETATM   35  C1  UNL     1      41.713  37.569  26.142  1.00  0.00     0.127 C 
HETATM   36  O1  UNL     1      43.668  36.253  26.396  1.00  0.00    -0.265 OA
ENDBRANCH  33  34
ENDBRANCH  31  33
ENDBRANCH  30  31
ENDBRANCH  22  30
BRANCH  23  37
HETATM   37  O15 UNL     1      40.848  37.430  32.066  1.00  0.00    -0.391 OA
ATOM     38  H15 UNL     1      41.119  36.950  31.292  1.00  0.00     0.210 HD
ENDBRANCH  23  37
BRANCH  24  39
HETATM   39  N6  UNL     1      42.169  38.023  34.306  1.00  0.00    -0.071 N 
ATOM     40  H63 UNL     1      42.580  38.370  35.173  1.00  0.00     0.274 HD
ATOM     41  H62 UNL     1      41.467  37.398  34.702  1.00  0.00     0.274 HD
ATOM     42  H61 UNL     1      42.852  37.510  33.749  1.00  0.00     0.274 HD
ENDBRANCH  24  39
ENDBRANCH  18  19
ENDBRANCH  11  18
ENDBRANCH   4   6
ENDBRANCH   1   4
BRANCH   1  43
HETATM   43  C14 UNL     1      42.640  42.015  42.410  1.00  0.00     0.042 C 
HETATM   44  C15 UNL     1      41.570  42.102  43.399  1.00  0.00     0.069 C 
HETATM   45  N5  UNL     1      43.862  42.064  42.709  1.00  0.00    -0.272 N 
ATOM     46  H5  UNL     1      44.516  41.996  41.928  1.00  0.00     0.193 HD
BRANCH  45  47
HETATM   47  O11 UNL     1      44.410  42.194  43.924  1.00  0.00    -0.270 OA
BRANCH  47  48
HETATM   48  C16 UNL     1      45.841  41.948  43.999  1.00  0.00     0.314 C 
BRANCH  48  49
HETATM   49  C17 UNL     1      46.365  41.939  42.638  1.00  0.00     0.200 C 
HETATM   50  O12 UNL     1      46.469  43.031  41.989  1.00  0.00    -0.646 OA
HETATM   51  O13 UNL     1      46.774  40.784  41.978  1.00  0.00    -0.646 OA
ENDBRANCH  48  49
ENDBRANCH  47  48
ENDBRANCH  45  47
ENDBRANCH   1  43
TORSDOF 17
ENDMDL
MODEL 5
REMARK VINA RESULT: -7.756698799      3.862      5.604
REMARK  17 active torsions:
REMARK  status: ('A' for Active; 'I' for Inactive)
REMARK    1  A    between atoms: C2_2  and  O2_4 
REMARK    2  A    between atoms: O2_4  and  C3_5 
REMARK    3  A    between atoms: C3_5  and  O4_7 
REMARK    4  A    between atoms: O4_7  and  C4_8 
REMARK    5  A    between atoms: C5_9  and  O5_10 
REMARK    6  A    between atoms: O5_10  and  S1_11 
REMARK    7  A    between atoms: C7_16  and  S2_17 
REMARK    8  A    between atoms: S2_17  and  C8_18 
REMARK    9  A    between atoms: C9_19  and  C10_20 
REMARK   10  A    between atoms: C11_25  and  N3_26 
REMARK   11  A    between atoms: N3_26  and  C12_28 
REMARK   12  A    between atoms: C12_28  and  C14_31 
REMARK   13  A    between atoms: N5_33  and  O11_35 
REMARK   14  A    between atoms: O11_35  and  C16_36 
REMARK   15  A    between atoms: C16_36  and  C17_37 
REMARK   16  A    between atoms: C21_44  and  N6_45 
REMARK   17  A    between atoms: C22_49  and  O15_50 
ROOT
HETATM    1  C12 UNL     1      43.113  42.217  40.331  1.00  0.00     0.234 C 
HETATM    2  C13 UNL     1      42.061  43.183  40.022  1.00  0.00     0.090 C 
HETATM    3  N4  UNL     1      41.238  43.946  39.752  1.00  0.00    -0.195 NA
ENDROOT
BRANCH   1   4
HETATM    4  N3  UNL     1      42.878  40.966  39.730  1.00  0.00    -0.381 N 
ATOM      5  H3  UNL     1      43.602  40.255  39.835  1.00  0.00     0.156 HD
BRANCH   4   6
HETATM    6  C11 UNL     1      41.749  40.618  39.010  1.00  0.00     0.218 C 
HETATM    7  N2  UNL     1      41.768  39.119  38.824  1.00  0.00    -0.110 NA
HETATM    8  N1  UNL     1      42.318  39.355  37.570  1.00  0.00    -0.277 N 
HETATM    9  C9  UNL     1      43.126  39.039  36.409  1.00  0.00     0.145 C 
HETATM   10  C18 UNL     1      41.604  40.571  37.544  1.00  0.00     0.152 C 
HETATM   11  C8  UNL     1      43.308  39.870  35.414  1.00  0.00     0.081 C 
HETATM   12  C20 UNL     1      42.805  41.247  35.512  1.00  0.00     0.170 C 
HETATM   13  C19 UNL     1      42.202  41.712  36.769  1.00  0.00     0.115 C 
HETATM   14  O14 UNL     1      42.903  41.998  34.504  1.00  0.00    -0.292 OA
BRANCH   9  15
HETATM   15  C10 UNL     1      43.737  37.694  36.374  1.00  0.00     0.229 C 
HETATM   16  O9  UNL     1      44.790  37.393  36.960  1.00  0.00    -0.643 OA
HETATM   17  O10 UNL     1      43.100  36.676  35.635  1.00  0.00    -0.643 OA
ENDBRANCH   9  15
BRANCH  11  18
HETATM   18  S2  UNL     1      44.282  39.409  33.960  1.00  0.00    -0.117 SA
BRANCH  18  19
HETATM   19  C7  UNL     1      43.176  39.529  32.521  1.00  0.00     0.088 C 
HETATM   20  C6  UNL     1      43.890  40.014  31.282  1.00  0.00     0.054 C 
HETATM   21  C5  UNL     1      44.614  38.938  30.550  1.00  0.00     0.178 C 
HETATM   22  C4  UNL     1      43.604  37.926  30.040  1.00  0.00     0.195 C 
HETATM   23  C22 UNL     1      42.315  37.918  30.816  1.00  0.00     0.181 C 
HETATM   24  C21 UNL     1      42.505  38.203  32.271  1.00  0.00     0.228 C 
BRANCH  21  25
HETATM   25  O5  UNL     1      45.580  38.352  31.329  1.00  0.00    -0.249 OA
BRANCH  25  26
HETATM   26  S1  UNL     1      47.061  38.271  30.523  1.00  0.00     0.252 S 
HETATM   27  O6  UNL     1      47.628  39.657  30.471  1.00  0.00    -0.572 OA
HETATM   28  O7  UNL     1      46.910  37.747  29.156  1.00  0.00    -0.572 OA
HETATM   29  O8  UNL     1      48.107  37.354  31.483  1.00  0.00    -0.572 OA
ENDBRANCH  25  26
ENDBRANCH  21  25
BRANCH  22  30
HETATM   30  O4  UNL     1      43.298  38.277  28.703  1.00  0.00    -0.287 OA
BRANCH  30  31
HETATM   31  C3  UNL     1      43.206  37.354  27.677  1.00  0.00     0.414 C 
HETATM   32  O3  UNL     1      43.530  37.751  26.525  1.00  0.00    -0.229 OA
BRANCH  31  33
HETATM   33  O2  UNL     1      42.793  36.042  27.829  1.00  0.00    -0.221 OA
BRANCH  33  34
HETATM   34  C2  UNL     1      41.571  35.599  27.275  1.00  0.00     0.263 C 
HETATM   35  C1  UNL     1      41.385  34.241  26.762  1.00  0.00     0.127 C 
HETATM   36  O1  UNL     1      40.649  36.441  27.246  1.00  0.00    -0.265 OA
ENDBRANCH  33  34
ENDBRANCH  31  33
ENDBRANCH  30  31
ENDBRANCH  22  30
BRANCH  23  37
HETATM   37  O15 UNL     1      41.708  36.647  30.718  1.00  0.00    -0.391 OA
ATOM     38  H15 UNL     1      42.137  36.041  31.312  1.00  0.00     0.210 HD
ENDBRANCH  23  37
BRANCH  24  39
HETATM   39  N6  UNL     1      43.264  37.102  32.837  1.00  0.00    -0.071 N 
ATOM     40  H63 UNL     1      43.058  36.979  33.829  1.00  0.00     0.274 HD
ATOM     41  H62 UNL     1      42.928  36.202  32.492  1.00  0.00     0.274 HD
ATOM     42  H61 UNL     1      44.265  37.211  32.676  1.00  0.00     0.274 HD
ENDBRANCH  24  39
ENDBRANCH  18  19
ENDBRANCH  11  18
ENDBRANCH   4   6
ENDBRANCH   1   4
BRANCH   1  43
HETATM   43  C14 UNL     1      43.067  41.974  41.872  1.00  0.00     0.042 C 
HETATM   44  C15 UNL     1      44.291  41.818  42.650  1.00  0.00     0.069 C 
HETATM   45  N5  UNL     1      41.915  41.916  42.378  1.00  0.00    -0.272 N 
ATOM     46  H5  UNL     1      41.136  42.037  41.730  1.00  0.00     0.193 HD
BRANCH  45  47
HETATM   47  O11 UNL     1      41.587  41.716  43.661  1.00  0.00    -0.270 OA
BRANCH  47  48
HETATM   48  C16 UNL     1      40.357  40.974  43.888  1.00  0.00     0.314 C 
BRANCH  48  49
HETATM   49  C17 UNL     1      40.034  40.258  42.659  1.00  0.00     0.200 C 
HETATM   50  O12 UNL     1      40.379  39.039  42.522  1.00  0.00    -0.646 OA
HETATM   51  O13 UNL     1      39.353  40.834  41.590  1.00  0.00    -0.646 OA
ENDBRANCH  48  49
ENDBRANCH  47  48
ENDBRANCH  45  47
ENDBRANCH   1  43
TORSDOF 17
ENDMDL
