MODEL 1
REMARK VINA RESULT: -8.856202380      0.000      0.000
REMARK  17 active torsions:
REMARK  status: ('A' for Active; 'I' for Inactive)
REMARK    1  A    between atoms: N1_2  and  C3_4 
REMARK    2  A    between atoms: C5_7  and  C6_8 
REMARK    3  A    between atoms: C8_11  and  C9_12 
REMARK    4  A    between atoms: C9_12  and  C10_14 
REMARK    5  A    between atoms: C10_14  and  C11_15 
REMARK    6  A    between atoms: C11_15  and  C20_44 
REMARK    7  A    between atoms: N2_16  and  N3_18 
REMARK       I    between atoms: N3_18  and  C12_20 
REMARK    8  A    between atoms: C12_20  and  C13_22 
REMARK    9  A    between atoms: C13_22  and  N4_23 
REMARK   10  A    between atoms: C13_22  and  C19_39 
REMARK   11  A    between atoms: N4_23  and  C14_25 
REMARK   12  A    between atoms: C16_29  and  O5_30 
REMARK   13  A    between atoms: C16_29  and  C17_32 
REMARK   14  A    between atoms: C18_35  and  O8_36 
REMARK   15  A    between atoms: C19_39  and  O10_40 
REMARK   16  A    between atoms: C19_39  and  O11_42 
REMARK   17  A    between atoms: C21_45  and  C22_46 
ROOT
HETATM    1  C11 UNL     1      42.654  38.360  29.868  1.00  0.00     0.040 C 
HETATM    2  N2  UNL     1      43.105  39.514  30.155  1.00  0.00    -0.301 N 
ATOM      3  H2  UNL     1      43.822  39.877  29.528  1.00  0.00     0.186 HD
ENDROOT
BRANCH   2   4
HETATM    4  N3  UNL     1      42.752  40.337  31.199  1.00  0.00    -0.268 N 
HETATM    5  C12 UNL     1      43.755  41.073  31.909  1.00  0.00     0.263 C 
HETATM    6  O4  UNL     1      44.958  40.947  31.545  1.00  0.00    -0.269 OA
ATOM      7  H3  UNL     1      41.772  40.423  31.468  1.00  0.00     0.190 HD
BRANCH   5   8
HETATM    8  C13 UNL     1      43.407  41.956  33.029  1.00  0.00     0.233 C 
BRANCH   8   9
HETATM    9  N4  UNL     1      42.459  41.253  33.917  1.00  0.00    -0.339 N 
ATOM     10  H4  UNL     1      41.944  40.440  33.581  1.00  0.00     0.164 HD
BRANCH   9  11
HETATM   11  C14 UNL     1      42.276  41.717  35.235  1.00  0.00     0.218 C 
HETATM   12  N5  UNL     1      43.124  41.434  36.181  1.00  0.00    -0.353 N 
HETATM   13  C15 UNL     1      42.903  41.930  37.532  1.00  0.00     0.177 C 
ATOM     14  H5  UNL     1      43.944  40.863  35.976  1.00  0.00     0.163 HD
HETATM   15  C16 UNL     1      41.419  41.830  37.893  1.00  0.00     0.212 C 
HETATM   16  C18 UNL     1      40.531  42.394  36.825  1.00  0.00     0.313 C 
HETATM   17  O9  UNL     1      41.168  42.505  35.576  1.00  0.00    -0.287 OA
BRANCH  15  18
HETATM   18  O5  UNL     1      41.136  40.483  38.062  1.00  0.00    -0.373 OA
ATOM     19  H5  UNL     1      41.716  40.163  38.742  1.00  0.00     0.211 HD
ENDBRANCH  15  18
BRANCH  15  20
HETATM   20  C17 UNL     1      41.199  42.562  39.161  1.00  0.00     0.216 C 
HETATM   21  O6  UNL     1      40.337  42.136  39.967  1.00  0.00    -0.646 OA
HETATM   22  O7  UNL     1      41.908  43.704  39.499  1.00  0.00    -0.646 OA
ENDBRANCH  15  20
BRANCH  16  23
HETATM   23  O8  UNL     1      40.026  43.657  37.176  1.00  0.00    -0.367 OA
ATOM     24  H8  UNL     1      39.570  44.070  36.453  1.00  0.00     0.212 HD
ENDBRANCH  16  23
ENDBRANCH   9  11
ENDBRANCH   8   9
BRANCH   8  25
HETATM   25  C19 UNL     1      42.710  43.209  32.487  1.00  0.00     0.285 C 
BRANCH  25  26
HETATM   26  O10 UNL     1      43.174  43.372  31.160  1.00  0.00    -0.369 OA
ATOM     27  H10 UNL     1      44.115  43.245  31.193  1.00  0.00     0.212 HD
ENDBRANCH  25  26
BRANCH  25  28
HETATM   28  O11 UNL     1      41.347  43.088  32.451  1.00  0.00    -0.369 OA
ATOM     29  H11 UNL     1      40.973  43.356  31.620  1.00  0.00     0.212 HD
ENDBRANCH  25  28
ENDBRANCH   8  25
ENDBRANCH   5   8
ENDBRANCH   2   4
BRANCH   1  30
HETATM   30  C10 UNL     1      41.611  37.824  30.782  1.00  0.00     0.138 C 
BRANCH  30  31
HETATM   31  C9  UNL     1      42.052  36.861  31.786  1.00  0.00     0.147 C 
HETATM   32  O3  UNL     1      41.958  35.666  31.408  1.00  0.00    -0.296 OA
BRANCH  31  33
HETATM   33  C8  UNL     1      42.569  37.052  33.130  1.00  0.00     0.151 C 
HETATM   34  C7  UNL     1      42.660  35.780  33.941  1.00  0.00     0.011 C 
HETATM   35  C5  UNL     1      43.495  35.749  34.978  1.00  0.00     0.047 C 
HETATM   36  C4  UNL     1      44.327  36.877  35.373  1.00  0.00     0.192 C 
HETATM   37  C3  UNL     1      44.483  38.012  34.450  1.00  0.00     0.225 C 
HETATM   38  O1  UNL     1      44.881  36.829  36.501  1.00  0.00    -0.289 OA
HETATM   39  C25 UNL     1      43.963  37.579  33.124  1.00  0.00     0.171 C 
HETATM   40  O13 UNL     1      44.684  37.681  32.165  1.00  0.00    -0.294 OA
BRANCH  35  41
HETATM   41  C6  UNL     1      43.558  34.485  35.749  1.00  0.00     0.273 C 
HETATM   42  O2  UNL     1      43.019  33.435  35.308  1.00  0.00    -0.301 OA
ENDBRANCH  35  41
BRANCH  37  43
HETATM   43  N1  UNL     1      45.828  38.485  34.333  1.00  0.00    -0.404 N 
HETATM   44  C1  UNL     1      46.825  37.506  34.618  1.00  0.00     0.144 C 
HETATM   45  C2  UNL     1      46.047  39.781  34.891  1.00  0.00     0.144 C 
ENDBRANCH  37  43
ENDBRANCH  31  33
ENDBRANCH  30  31
ENDBRANCH   1  30
BRANCH   1  46
HETATM   46  C20 UNL     1      43.150  37.628  28.728  1.00  0.00    -0.014 C 
HETATM   47  C21 UNL     1      42.412  37.284  27.717  1.00  0.00    -0.001 C 
HETATM   48  C23 UNL     1      43.056  36.509  26.551  1.00  0.00     0.128 C 
HETATM   49  S1  UNL     1      43.425  34.819  27.187  1.00  0.00    -0.093 SA
HETATM   50  S2  UNL     1      44.653  35.339  28.902  1.00  0.00    -0.093 SA
HETATM   51  C24 UNL     1      44.611  37.185  28.772  1.00  0.00     0.127 C 
BRANCH  47  52
HETATM   52  C22 UNL     1      41.010  37.580  27.589  1.00  0.00     0.267 C 
HETATM   53  O12 UNL     1      40.291  36.571  27.198  1.00  0.00    -0.302 OA
ENDBRANCH  47  52
ENDBRANCH   1  46
TORSDOF 17
ENDMDL
MODEL 2
REMARK VINA RESULT: -8.714806610      1.164      2.042
REMARK  17 active torsions:
REMARK  status: ('A' for Active; 'I' for Inactive)
REMARK    1  A    between atoms: N1_2  and  C3_4 
REMARK    2  A    between atoms: C5_7  and  C6_8 
REMARK    3  A    between atoms: C8_11  and  C9_12 
REMARK    4  A    between atoms: C9_12  and  C10_14 
REMARK    5  A    between atoms: C10_14  and  C11_15 
REMARK    6  A    between atoms: C11_15  and  C20_44 
REMARK    7  A    between atoms: N2_16  and  N3_18 
REMARK       I    between atoms: N3_18  and  C12_20 
REMARK    8  A    between atoms: C12_20  and  C13_22 
REMARK    9  A    between atoms: C13_22  and  N4_23 
REMARK   10  A    between atoms: C13_22  and  C19_39 
REMARK   11  A    between atoms: N4_23  and  C14_25 
REMARK   12  A    between atoms: C16_29  and  O5_30 
REMARK   13  A    between atoms: C16_29  and  C17_32 
REMARK   14  A    between atoms: C18_35  and  O8_36 
REMARK   15  A    between atoms: C19_39  and  O10_40 
REMARK   16  A    between atoms: C19_39  and  O11_42 
REMARK   17  A    between atoms: C21_45  and  C22_46 
ROOT
HETATM    1  C11 UNL     1      42.626  38.362  30.094  1.00  0.00     0.040 C 
HETATM    2  N2  UNL     1      42.874  39.607  30.183  1.00  0.00    -0.301 N 
ATOM      3  H2  UNL     1      43.426  40.003  29.423  1.00  0.00     0.186 HD
ENDROOT
BRANCH   2   4
HETATM    4  N3  UNL     1      42.495  40.489  31.167  1.00  0.00    -0.268 N 
HETATM    5  C12 UNL     1      43.480  41.258  31.866  1.00  0.00     0.263 C 
HETATM    6  O4  UNL     1      44.693  41.106  31.548  1.00  0.00    -0.269 OA
ATOM      7  H3  UNL     1      41.508  40.595  31.400  1.00  0.00     0.190 HD
BRANCH   5   8
HETATM    8  C13 UNL     1      43.103  42.204  32.924  1.00  0.00     0.233 C 
BRANCH   8   9
HETATM    9  N4  UNL     1      42.117  41.561  33.814  1.00  0.00    -0.339 N 
ATOM     10  H4  UNL     1      41.450  40.886  33.442  1.00  0.00     0.164 HD
BRANCH   9  11
HETATM   11  C14 UNL     1      42.108  41.890  35.184  1.00  0.00     0.218 C 
HETATM   12  N5  UNL     1      43.075  41.531  35.977  1.00  0.00    -0.353 N 
HETATM   13  C15 UNL     1      43.033  41.888  37.388  1.00  0.00     0.177 C 
ATOM     14  H5  UNL     1      43.864  41.000  35.610  1.00  0.00     0.163 HD
HETATM   15  C16 UNL     1      41.610  41.725  37.930  1.00  0.00     0.212 C 
HETATM   16  C18 UNL     1      40.585  42.374  37.050  1.00  0.00     0.313 C 
HETATM   17  O9  UNL     1      41.050  42.619  35.745  1.00  0.00    -0.287 OA
BRANCH  15  18
HETATM   18  O5  UNL     1      41.360  40.362  37.999  1.00  0.00    -0.373 OA
ATOM     19  H5  UNL     1      40.492  40.261  38.369  1.00  0.00     0.211 HD
ENDBRANCH  15  18
BRANCH  15  20
HETATM   20  C17 UNL     1      41.557  42.325  39.282  1.00  0.00     0.216 C 
HETATM   21  O6  UNL     1      40.788  41.824  40.138  1.00  0.00    -0.646 OA
HETATM   22  O7  UNL     1      42.323  43.421  39.646  1.00  0.00    -0.646 OA
ENDBRANCH  15  20
BRANCH  16  23
HETATM   23  O8  UNL     1      40.124  43.586  37.588  1.00  0.00    -0.367 OA
ATOM     24  H8  UNL     1      39.504  44.017  37.012  1.00  0.00     0.212 HD
ENDBRANCH  16  23
ENDBRANCH   9  11
ENDBRANCH   8   9
BRANCH   8  25
HETATM   25  C19 UNL     1      42.441  43.433  32.289  1.00  0.00     0.285 C 
BRANCH  25  26
HETATM   26  O10 UNL     1      43.054  43.599  31.025  1.00  0.00    -0.369 OA
ATOM     27  H10 UNL     1      42.632  42.978  30.444  1.00  0.00     0.212 HD
ENDBRANCH  25  26
BRANCH  25  28
HETATM   28  O11 UNL     1      41.096  43.273  32.095  1.00  0.00    -0.369 OA
ATOM     29  H11 UNL     1      40.866  43.154  31.181  1.00  0.00     0.212 HD
ENDBRANCH  25  28
ENDBRANCH   8  25
ENDBRANCH   5   8
ENDBRANCH   2   4
BRANCH   1  30
HETATM   30  C10 UNL     1      41.824  37.780  31.203  1.00  0.00     0.138 C 
BRANCH  30  31
HETATM   31  C9  UNL     1      42.386  36.613  31.875  1.00  0.00     0.147 C 
HETATM   32  O3  UNL     1      41.814  35.536  31.570  1.00  0.00    -0.296 OA
BRANCH  31  33
HETATM   33  C8  UNL     1      43.478  36.492  32.826  1.00  0.00     0.151 C 
HETATM   34  C7  UNL     1      44.644  37.411  32.545  1.00  0.00     0.011 C 
HETATM   35  C5  UNL     1      45.473  37.706  33.545  1.00  0.00     0.047 C 
HETATM   36  C4  UNL     1      45.315  37.189  34.898  1.00  0.00     0.192 C 
HETATM   37  C3  UNL     1      44.050  36.540  35.274  1.00  0.00     0.225 C 
HETATM   38  O1  UNL     1      46.281  37.322  35.691  1.00  0.00    -0.289 OA
HETATM   39  C25 UNL     1      43.057  36.851  34.210  1.00  0.00     0.171 C 
HETATM   40  O13 UNL     1      42.013  37.358  34.530  1.00  0.00    -0.294 OA
BRANCH  35  41
HETATM   41  C6  UNL     1      46.604  38.610  33.231  1.00  0.00     0.273 C 
HETATM   42  O2  UNL     1      47.098  38.644  32.074  1.00  0.00    -0.301 OA
ENDBRANCH  35  41
BRANCH  37  43
HETATM   43  N1  UNL     1      43.553  36.937  36.556  1.00  0.00    -0.404 N 
HETATM   44  C1  UNL     1      43.906  38.264  36.942  1.00  0.00     0.144 C 
HETATM   45  C2  UNL     1      43.675  35.939  37.570  1.00  0.00     0.144 C 
ENDBRANCH  37  43
ENDBRANCH  31  33
ENDBRANCH  30  31
ENDBRANCH   1  30
BRANCH   1  46
HETATM   46  C20 UNL     1      43.116  37.581  28.985  1.00  0.00    -0.014 C 
HETATM   47  C21 UNL     1      42.358  37.131  28.032  1.00  0.00    -0.001 C 
HETATM   48  C23 UNL     1      42.996  36.313  26.893  1.00  0.00     0.128 C 
HETATM   49  S1  UNL     1      43.482  34.692  27.622  1.00  0.00    -0.093 SA
HETATM   50  S2  UNL     1      44.746  35.390  29.244  1.00  0.00    -0.093 SA
HETATM   51  C24 UNL     1      44.599  37.218  28.995  1.00  0.00     0.127 C 
BRANCH  47  52
HETATM   52  C22 UNL     1      40.937  37.345  27.945  1.00  0.00     0.267 C 
HETATM   53  O12 UNL     1      40.337  36.562  27.101  1.00  0.00    -0.302 OA
ENDBRANCH  47  52
ENDBRANCH   1  46
TORSDOF 17
ENDMDL
MODEL 3
REMARK VINA RESULT: -8.625516706      1.640      2.075
REMARK  17 active torsions:
REMARK  status: ('A' for Active; 'I' for Inactive)
REMARK    1  A    between atoms: N1_2  and  C3_4 
REMARK    2  A    between atoms: C5_7  and  C6_8 
REMARK    3  A    between atoms: C8_11  and  C9_12 
REMARK    4  A    between atoms: C9_12  and  C10_14 
REMARK    5  A    between atoms: C10_14  and  C11_15 
REMARK    6  A    between atoms: C11_15  and  C20_44 
REMARK    7  A    between atoms: N2_16  and  N3_18 
REMARK       I    between atoms: N3_18  and  C12_20 
REMARK    8  A    between atoms: C12_20  and  C13_22 
REMARK    9  A    between atoms: C13_22  and  N4_23 
REMARK   10  A    between atoms: C13_22  and  C19_39 
REMARK   11  A    between atoms: N4_23  and  C14_25 
REMARK   12  A    between atoms: C16_29  and  O5_30 
REMARK   13  A    between atoms: C16_29  and  C17_32 
REMARK   14  A    between atoms: C18_35  and  O8_36 
REMARK   15  A    between atoms: C19_39  and  O10_40 
REMARK   16  A    between atoms: C19_39  and  O11_42 
REMARK   17  A    between atoms: C21_45  and  C22_46 
ROOT
HETATM    1  C11 UNL     1      42.162  38.302  30.093  1.00  0.00     0.040 C 
HETATM    2  N2  UNL     1      42.460  39.539  30.111  1.00  0.00    -0.301 N 
ATOM      3  H2  UNL     1      42.976  39.881  29.301  1.00  0.00     0.186 HD
ENDROOT
BRANCH   2   4
HETATM    4  N3  UNL     1      42.178  40.476  31.077  1.00  0.00    -0.268 N 
HETATM    5  C12 UNL     1      43.238  41.097  31.812  1.00  0.00     0.263 C 
HETATM    6  O4  UNL     1      44.427  40.765  31.542  1.00  0.00    -0.269 OA
ATOM      7  H3  UNL     1      41.209  40.729  31.270  1.00  0.00     0.190 HD
BRANCH   5   8
HETATM    8  C13 UNL     1      42.965  42.098  32.851  1.00  0.00     0.233 C 
BRANCH   8   9
HETATM    9  N4  UNL     1      41.985  41.544  33.805  1.00  0.00    -0.339 N 
ATOM     10  H4  UNL     1      41.209  40.971  33.473  1.00  0.00     0.164 HD
BRANCH   9  11
HETATM   11  C14 UNL     1      42.133  41.813  35.180  1.00  0.00     0.218 C 
HETATM   12  N5  UNL     1      43.188  41.433  35.839  1.00  0.00    -0.353 N 
HETATM   13  C15 UNL     1      43.308  41.729  37.260  1.00  0.00     0.177 C 
ATOM     14  H5  UNL     1      43.933  40.928  35.359  1.00  0.00     0.163 HD
HETATM   15  C16 UNL     1      41.960  41.525  37.955  1.00  0.00     0.212 C 
HETATM   16  C18 UNL     1      40.834  42.198  37.229  1.00  0.00     0.313 C 
HETATM   17  O9  UNL     1      41.141  42.504  35.891  1.00  0.00    -0.287 OA
BRANCH  15  18
HETATM   18  O5  UNL     1      41.730  40.157  37.993  1.00  0.00    -0.373 OA
ATOM     19  H5  UNL     1      41.821  39.888  38.899  1.00  0.00     0.211 HD
ENDBRANCH  15  18
BRANCH  15  20
HETATM   20  C17 UNL     1      42.059  42.065  39.329  1.00  0.00     0.216 C 
HETATM   21  O6  UNL     1      41.445  41.484  40.257  1.00  0.00    -0.646 OA
HETATM   22  O7  UNL     1      42.805  43.191  39.639  1.00  0.00    -0.646 OA
ENDBRANCH  15  20
BRANCH  16  23
HETATM   23  O8  UNL     1      40.429  43.380  37.870  1.00  0.00    -0.367 OA
ATOM     24  H8  UNL     1      39.596  43.275  38.314  1.00  0.00     0.212 HD
ENDBRANCH  16  23
ENDBRANCH   9  11
ENDBRANCH   8   9
BRANCH   8  25
HETATM   25  C19 UNL     1      42.347  43.342  32.203  1.00  0.00     0.285 C 
BRANCH  25  26
HETATM   26  O10 UNL     1      42.960  43.469  30.934  1.00  0.00    -0.369 OA
ATOM     27  H10 UNL     1      42.756  44.346  30.630  1.00  0.00     0.212 HD
ENDBRANCH  25  26
BRANCH  25  28
HETATM   28  O11 UNL     1      40.996  43.231  32.016  1.00  0.00    -0.369 OA
ATOM     29  H11 UNL     1      40.739  43.321  31.106  1.00  0.00     0.212 HD
ENDBRANCH  25  28
ENDBRANCH   8  25
ENDBRANCH   5   8
ENDBRANCH   2   4
BRANCH   1  30
HETATM   30  C10 UNL     1      41.412  37.799  31.275  1.00  0.00     0.138 C 
BRANCH  30  31
HETATM   31  C9  UNL     1      42.200  37.178  32.334  1.00  0.00     0.147 C 
HETATM   32  O3  UNL     1      41.816  36.018  32.629  1.00  0.00    -0.296 OA
BRANCH  31  33
HETATM   33  C8  UNL     1      43.334  37.672  33.096  1.00  0.00     0.151 C 
HETATM   34  C7  UNL     1      43.252  37.386  34.578  1.00  0.00     0.011 C 
HETATM   35  C5  UNL     1      44.380  37.389  35.286  1.00  0.00     0.047 C 
HETATM   36  C4  UNL     1      45.691  37.654  34.708  1.00  0.00     0.192 C 
HETATM   37  C3  UNL     1      45.844  37.646  33.245  1.00  0.00     0.225 C 
HETATM   38  O1  UNL     1      46.643  37.881  35.497  1.00  0.00    -0.289 OA
HETATM   39  C25 UNL     1      44.613  37.035  32.673  1.00  0.00     0.171 C 
HETATM   40  O13 UNL     1      44.731  36.096  31.929  1.00  0.00    -0.294 OA
BRANCH  35  41
HETATM   41  C6  UNL     1      44.260  37.103  36.735  1.00  0.00     0.273 C 
HETATM   42  O2  UNL     1      44.022  38.029  37.555  1.00  0.00    -0.301 OA
ENDBRANCH  35  41
BRANCH  37  43
HETATM   43  N1  UNL     1      47.008  36.952  32.787  1.00  0.00    -0.404 N 
HETATM   44  C1  UNL     1      47.409  35.860  33.613  1.00  0.00     0.144 C 
HETATM   45  C2  UNL     1      48.058  37.803  32.325  1.00  0.00     0.144 C 
ENDBRANCH  37  43
ENDBRANCH  31  33
ENDBRANCH  30  31
ENDBRANCH   1  30
BRANCH   1  46
HETATM   46  C20 UNL     1      42.549  37.457  28.991  1.00  0.00    -0.014 C 
HETATM   47  C21 UNL     1      43.779  37.297  28.605  1.00  0.00    -0.001 C 
HETATM   48  C23 UNL     1      44.073  36.360  27.418  1.00  0.00     0.128 C 
HETATM   49  S1  UNL     1      43.438  37.210  25.911  1.00  0.00    -0.093 SA
HETATM   50  S2  UNL     1      41.374  37.519  26.513  1.00  0.00    -0.093 SA
HETATM   51  C24 UNL     1      41.426  36.780  28.209  1.00  0.00     0.127 C 
BRANCH  47  52
HETATM   52  C22 UNL     1      44.918  37.933  29.213  1.00  0.00     0.267 C 
HETATM   53  O12 UNL     1      46.018  37.251  29.113  1.00  0.00    -0.302 OA
ENDBRANCH  47  52
ENDBRANCH   1  46
TORSDOF 17
ENDMDL
MODEL 4
REMARK VINA RESULT: -8.476853017      1.490      2.299
REMARK  17 active torsions:
REMARK  status: ('A' for Active; 'I' for Inactive)
REMARK    1  A    between atoms: N1_2  and  C3_4 
REMARK    2  A    between atoms: C5_7  and  C6_8 
REMARK    3  A    between atoms: C8_11  and  C9_12 
REMARK    4  A    between atoms: C9_12  and  C10_14 
REMARK    5  A    between atoms: C10_14  and  C11_15 
REMARK    6  A    between atoms: C11_15  and  C20_44 
REMARK    7  A    between atoms: N2_16  and  N3_18 
REMARK       I    between atoms: N3_18  and  C12_20 
REMARK    8  A    between atoms: C12_20  and  C13_22 
REMARK    9  A    between atoms: C13_22  and  N4_23 
REMARK   10  A    between atoms: C13_22  and  C19_39 
REMARK   11  A    between atoms: N4_23  and  C14_25 
REMARK   12  A    between atoms: C16_29  and  O5_30 
REMARK   13  A    between atoms: C16_29  and  C17_32 
REMARK   14  A    between atoms: C18_35  and  O8_36 
REMARK   15  A    between atoms: C19_39  and  O10_40 
REMARK   16  A    between atoms: C19_39  and  O11_42 
REMARK   17  A    between atoms: C21_45  and  C22_46 
ROOT
HETATM    1  C11 UNL     1      42.592  38.362  29.775  1.00  0.00     0.040 C 
HETATM    2  N2  UNL     1      43.109  39.468  30.134  1.00  0.00    -0.301 N 
ATOM      3  H2  UNL     1      43.921  39.771  29.597  1.00  0.00     0.186 HD
ENDROOT
BRANCH   2   4
HETATM    4  N3  UNL     1      42.719  40.307  31.150  1.00  0.00    -0.268 N 
HETATM    5  C12 UNL     1      43.688  41.097  31.848  1.00  0.00     0.263 C 
HETATM    6  O4  UNL     1      44.899  41.002  31.498  1.00  0.00    -0.269 OA
ATOM      7  H3  UNL     1      41.734  40.368  31.408  1.00  0.00     0.190 HD
BRANCH   5   8
HETATM    8  C13 UNL     1      43.299  41.999  32.939  1.00  0.00     0.233 C 
BRANCH   8   9
HETATM    9  N4  UNL     1      42.357  41.295  33.831  1.00  0.00    -0.339 N 
ATOM     10  H4  UNL     1      41.792  40.523  33.477  1.00  0.00     0.164 HD
BRANCH   9  11
HETATM   11  C14 UNL     1      42.246  41.700  35.175  1.00  0.00     0.218 C 
HETATM   12  N5  UNL     1      43.124  41.344  36.068  1.00  0.00    -0.353 N 
HETATM   13  C15 UNL     1      42.978  41.781  37.450  1.00  0.00     0.177 C 
ATOM     14  H5  UNL     1      43.915  40.758  35.800  1.00  0.00     0.163 HD
HETATM   15  C16 UNL     1      41.509  41.711  37.871  1.00  0.00     0.212 C 
HETATM   16  C18 UNL     1      40.595  42.354  36.872  1.00  0.00     0.313 C 
HETATM   17  O9  UNL     1      41.181  42.504  35.602  1.00  0.00    -0.287 OA
BRANCH  15  18
HETATM   18  O5  UNL     1      41.188  40.367  37.989  1.00  0.00    -0.373 OA
ATOM     19  H5  UNL     1      40.722  40.266  38.811  1.00  0.00     0.211 HD
ENDBRANCH  15  18
BRANCH  15  20
HETATM   20  C17 UNL     1      41.369  42.388  39.181  1.00  0.00     0.216 C 
HETATM   21  O6  UNL     1      40.478  41.997  39.974  1.00  0.00    -0.646 OA
HETATM   22  O7  UNL     1      42.183  43.439  39.571  1.00  0.00    -0.646 OA
ENDBRANCH  15  20
BRANCH  16  23
HETATM   23  O8  UNL     1      40.149  43.614  37.304  1.00  0.00    -0.367 OA
ATOM     24  H8  UNL     1      39.640  43.555  38.104  1.00  0.00     0.212 HD
ENDBRANCH  16  23
ENDBRANCH   9  11
ENDBRANCH   8   9
BRANCH   8  25
HETATM   25  C19 UNL     1      42.578  43.218  32.353  1.00  0.00     0.285 C 
BRANCH  25  26
HETATM   26  O10 UNL     1      43.056  43.357  31.029  1.00  0.00    -0.369 OA
ATOM     27  H10 UNL     1      42.303  43.596  30.500  1.00  0.00     0.212 HD
ENDBRANCH  25  26
BRANCH  25  28
HETATM   28  O11 UNL     1      41.220  43.062  32.303  1.00  0.00    -0.369 OA
ATOM     29  H11 UNL     1      40.749  43.771  32.725  1.00  0.00     0.212 HD
ENDBRANCH  25  28
ENDBRANCH   8  25
ENDBRANCH   5   8
ENDBRANCH   2   4
BRANCH   1  30
HETATM   30  C10 UNL     1      41.411  37.913  30.558  1.00  0.00     0.138 C 
BRANCH  30  31
HETATM   31  C9  UNL     1      41.675  37.361  31.883  1.00  0.00     0.147 C 
HETATM   32  O3  UNL     1      40.733  37.539  32.696  1.00  0.00    -0.296 OA
BRANCH  31  33
HETATM   33  C8  UNL     1      42.829  36.654  32.410  1.00  0.00     0.151 C 
HETATM   34  C7  UNL     1      43.028  36.823  33.898  1.00  0.00     0.011 C 
HETATM   35  C5  UNL     1      43.750  35.912  34.549  1.00  0.00     0.047 C 
HETATM   36  C4  UNL     1      44.359  34.759  33.900  1.00  0.00     0.192 C 
HETATM   37  C3  UNL     1      43.951  34.406  32.532  1.00  0.00     0.225 C 
HETATM   38  O1  UNL     1      45.218  34.109  34.549  1.00  0.00    -0.289 OA
HETATM   39  C25 UNL     1      42.717  35.180  32.224  1.00  0.00     0.171 C 
HETATM   40  O13 UNL     1      41.740  34.579  31.856  1.00  0.00    -0.294 OA
BRANCH  35  41
HETATM   41  C6  UNL     1      43.922  36.111  36.007  1.00  0.00     0.273 C 
HETATM   42  O2  UNL     1      44.871  36.809  36.453  1.00  0.00    -0.301 OA
ENDBRANCH  35  41
BRANCH  37  43
HETATM   43  N1  UNL     1      43.729  33.007  32.334  1.00  0.00    -0.404 N 
HETATM   44  C1  UNL     1      43.209  32.324  33.474  1.00  0.00     0.144 C 
HETATM   45  C2  UNL     1      44.775  32.338  31.629  1.00  0.00     0.144 C 
ENDBRANCH  37  43
ENDBRANCH  31  33
ENDBRANCH  30  31
ENDBRANCH   1  30
BRANCH   1  46
HETATM   46  C20 UNL     1      43.144  37.601  28.681  1.00  0.00    -0.014 C 
HETATM   47  C21 UNL     1      42.467  37.265  27.625  1.00  0.00    -0.001 C 
HETATM   48  C23 UNL     1      43.166  36.456  26.516  1.00  0.00     0.128 C 
HETATM   49  S1  UNL     1      43.441  34.765  27.195  1.00  0.00    -0.093 SA
HETATM   50  S2  UNL     1      44.563  35.273  28.985  1.00  0.00    -0.093 SA
HETATM   51  C24 UNL     1      44.584  37.117  28.831  1.00  0.00     0.127 C 
BRANCH  47  52
HETATM   52  C22 UNL     1      41.086  37.598  27.397  1.00  0.00     0.267 C 
HETATM   53  O12 UNL     1      40.322  36.569  27.187  1.00  0.00    -0.302 OA
ENDBRANCH  47  52
ENDBRANCH   1  46
TORSDOF 17
ENDMDL
MODEL 5
REMARK VINA RESULT: -8.256428970      2.467      5.330
REMARK  17 active torsions:
REMARK  status: ('A' for Active; 'I' for Inactive)
REMARK    1  A    between atoms: N1_2  and  C3_4 
REMARK    2  A    between atoms: C5_7  and  C6_8 
REMARK    3  A    between atoms: C8_11  and  C9_12 
REMARK    4  A    between atoms: C9_12  and  C10_14 
REMARK    5  A    between atoms: C10_14  and  C11_15 
REMARK    6  A    between atoms: C11_15  and  C20_44 
REMARK    7  A    between atoms: N2_16  and  N3_18 
REMARK       I    between atoms: N3_18  and  C12_20 
REMARK    8  A    between atoms: C12_20  and  C13_22 
REMARK    9  A    between atoms: C13_22  and  N4_23 
REMARK   10  A    between atoms: C13_22  and  C19_39 
REMARK   11  A    between atoms: N4_23  and  C14_25 
REMARK   12  A    between atoms: C16_29  and  O5_30 
REMARK   13  A    between atoms: C16_29  and  C17_32 
REMARK   14  A    between atoms: C18_35  and  O8_36 
REMARK   15  A    between atoms: C19_39  and  O10_40 
REMARK   16  A    between atoms: C19_39  and  O11_42 
REMARK   17  A    between atoms: C21_45  and  C22_46 
ROOT
HETATM    1  C11 UNL     1      45.893  39.259  34.735  1.00  0.00     0.040 C 
HETATM    2  N2  UNL     1      45.565  40.218  33.966  1.00  0.00    -0.301 N 
ATOM      3  H2  UNL     1      46.286  40.528  33.315  1.00  0.00     0.186 HD
ENDROOT
BRANCH   2   4
HETATM    4  N3  UNL     1      44.369  40.892  33.897  1.00  0.00    -0.268 N 
HETATM    5  C12 UNL     1      44.290  42.267  34.291  1.00  0.00     0.263 C 
HETATM    6  O4  UNL     1      45.345  42.834  34.693  1.00  0.00    -0.269 OA
ATOM      7  H3  UNL     1      43.534  40.411  33.563  1.00  0.00     0.190 HD
BRANCH   5   8
HETATM    8  C13 UNL     1      43.025  43.009  34.230  1.00  0.00     0.233 C 
BRANCH   8   9
HETATM    9  N4  UNL     1      41.910  42.080  34.498  1.00  0.00    -0.339 N 
ATOM     10  H4  UNL     1      41.429  41.616  33.728  1.00  0.00     0.164 HD
BRANCH   9  11
HETATM   11  C14 UNL     1      41.518  41.840  35.830  1.00  0.00     0.218 C 
HETATM   12  N5  UNL     1      40.817  42.707  36.500  1.00  0.00    -0.353 N 
HETATM   13  C15 UNL     1      40.429  42.426  37.876  1.00  0.00     0.177 C 
ATOM     14  H5  UNL     1      40.538  43.585  36.062  1.00  0.00     0.163 HD
HETATM   15  C16 UNL     1      41.587  41.760  38.623  1.00  0.00     0.212 C 
HETATM   16  C18 UNL     1      42.183  40.620  37.856  1.00  0.00     0.313 C 
HETATM   17  O9  UNL     1      41.872  40.652  36.484  1.00  0.00    -0.287 OA
BRANCH  15  18
HETATM   18  O5  UNL     1      42.552  42.737  38.820  1.00  0.00    -0.373 OA
ATOM     19  H5  UNL     1      42.896  42.612  39.697  1.00  0.00     0.211 HD
ENDBRANCH  15  18
BRANCH  15  20
HETATM   20  C17 UNL     1      41.079  41.272  39.926  1.00  0.00     0.216 C 
HETATM   21  O6  UNL     1      41.875  41.181  40.892  1.00  0.00    -0.646 OA
HETATM   22  O7  UNL     1      39.757  40.911  40.126  1.00  0.00    -0.646 OA
ENDBRANCH  15  20
BRANCH  16  23
HETATM   23  O8  UNL     1      41.784  39.376  38.370  1.00  0.00    -0.367 OA
ATOM     24  H8  UNL     1      42.112  38.654  37.848  1.00  0.00     0.212 HD
ENDBRANCH  16  23
ENDBRANCH   9  11
ENDBRANCH   8   9
BRANCH   8  25
HETATM   25  C19 UNL     1      42.841  43.578  32.818  1.00  0.00     0.285 C 
BRANCH  25  26
HETATM   26  O10 UNL     1      43.733  42.860  31.987  1.00  0.00    -0.369 OA
ATOM     27  H10 UNL     1      43.373  41.985  31.908  1.00  0.00     0.212 HD
ENDBRANCH  25  26
BRANCH  25  28
HETATM   28  O11 UNL     1      41.573  43.404  32.334  1.00  0.00    -0.369 OA
ATOM     29  H11 UNL     1      41.558  43.121  31.428  1.00  0.00     0.212 HD
ENDBRANCH  25  28
ENDBRANCH   8  25
ENDBRANCH   5   8
ENDBRANCH   2   4
BRANCH   1  30
HETATM   30  C10 UNL     1      44.846  38.806  35.689  1.00  0.00     0.138 C 
BRANCH  30  31
HETATM   31  C9  UNL     1      44.137  37.577  35.349  1.00  0.00     0.147 C 
HETATM   32  O3  UNL     1      44.545  36.572  35.986  1.00  0.00    -0.296 OA
BRANCH  31  33
HETATM   33  C8  UNL     1      43.059  37.324  34.410  1.00  0.00     0.151 C 
HETATM   34  C7  UNL     1      42.495  38.571  33.769  1.00  0.00     0.011 C 
HETATM   35  C5  UNL     1      41.842  38.450  32.614  1.00  0.00     0.047 C 
HETATM   36  C4  UNL     1      41.641  37.177  31.935  1.00  0.00     0.192 C 
HETATM   37  C3  UNL     1      42.414  36.003  32.369  1.00  0.00     0.225 C 
HETATM   38  O1  UNL     1      40.805  37.140  30.998  1.00  0.00    -0.289 OA
HETATM   39  C25 UNL     1      43.505  36.493  33.256  1.00  0.00     0.171 C 
HETATM   40  O13 UNL     1      44.639  36.192  32.989  1.00  0.00    -0.294 OA
BRANCH  35  41
HETATM   41  C6  UNL     1      41.305  39.695  32.016  1.00  0.00     0.273 C 
HETATM   42  O2  UNL     1      42.081  40.595  31.599  1.00  0.00    -0.301 OA
ENDBRANCH  35  41
BRANCH  37  43
HETATM   43  N1  UNL     1      42.951  35.231  31.291  1.00  0.00    -0.404 N 
HETATM   44  C1  UNL     1      43.277  35.988  30.127  1.00  0.00     0.144 C 
HETATM   45  C2  UNL     1      42.280  33.992  31.062  1.00  0.00     0.144 C 
ENDBRANCH  37  43
ENDBRANCH  31  33
ENDBRANCH  30  31
ENDBRANCH   1  30
BRANCH   1  46
HETATM   46  C20 UNL     1      47.208  38.671  34.677  1.00  0.00    -0.014 C 
HETATM   47  C21 UNL     1      48.298  39.317  34.962  1.00  0.00    -0.001 C 
HETATM   48  C23 UNL     1      49.648  38.581  34.871  1.00  0.00     0.128 C 
HETATM   49  S1  UNL     1      49.974  38.305  33.078  1.00  0.00    -0.093 SA
HETATM   50  S2  UNL     1      48.161  37.236  32.542  1.00  0.00    -0.093 SA
HETATM   51  C24 UNL     1      47.302  37.230  34.181  1.00  0.00     0.127 C 
BRANCH  47  52
HETATM   52  C22 UNL     1      48.350  40.695  35.373  1.00  0.00     0.267 C 
HETATM   53  O12 UNL     1      48.316  41.541  34.388  1.00  0.00    -0.302 OA
ENDBRANCH  47  52
ENDBRANCH   1  46
TORSDOF 17
ENDMDL
