MODEL 1
REMARK VINA RESULT: -7.549835479      0.000      0.000
REMARK  17 active torsions:
REMARK  status: ('A' for Active; 'I' for Inactive)
REMARK    1  A    between atoms: C2_2  and  O1_3 
REMARK    2  A    between atoms: O1_3  and  C3_4 
REMARK    3  A    between atoms: C3_4  and  C4_6 
REMARK    4  A    between atoms: C8_17  and  C9_18 
REMARK    5  A    between atoms: C9_18  and  O5_20 
REMARK    6  A    between atoms: O5_20  and  C10_21 
REMARK    7  A    between atoms: C10_21  and  C11_22 
REMARK    8  A    between atoms: C11_22  and  O6_23 
REMARK    9  A    between atoms: C11_22  and  C12_25 
REMARK   10  A    between atoms: C12_25  and  N5_26 
REMARK   11  A    between atoms: N5_26  and  O7_28 
REMARK   12  A    between atoms: C16_32  and  O9_33 
REMARK   13  A    between atoms: C17_37  and  C18_38 
REMARK   14  A    between atoms: C18_38  and  O10_40 
REMARK   15  A    between atoms: C21_44  and  O11_45 
REMARK   16  A    between atoms: C23_48  and  C24_49 
REMARK   17  A    between atoms: C24_49  and  S1_50 
ROOT
HETATM    1  C4  UNL     1      46.055  36.851  33.951  1.00  0.00     0.215 C 
HETATM    2  N1  UNL     1      45.116  36.664  34.910  1.00  0.00    -0.365 NA
HETATM    3  C5  UNL     1      44.290  36.506  35.759  1.00  0.00     0.264 C 
HETATM    4  N2  UNL     1      43.203  35.502  35.649  1.00  0.00    -0.049 NA
HETATM    5  N3  UNL     1      44.171  37.212  37.020  1.00  0.00    -0.344 N 
ATOM      6  H3  UNL     1      44.146  36.648  37.870  1.00  0.00     0.163 HD
HETATM    7  C6  UNL     1      44.084  38.647  37.175  1.00  0.00     0.226 C 
HETATM    8  C7  UNL     1      42.679  39.106  37.265  1.00  0.00     0.236 C 
HETATM    9  O3  UNL     1      42.033  38.702  38.291  1.00  0.00    -0.272 OA
HETATM   10  N4  UNL     1      41.986  39.922  36.357  1.00  0.00    -0.339 N 
ATOM     11  H4  UNL     1      41.145  39.517  35.946  1.00  0.00     0.163 HD
HETATM   12  C8  UNL     1      42.311  41.259  35.933  1.00  0.00     0.263 C 
HETATM   13  C15 UNL     1      42.231  41.494  34.479  1.00  0.00     0.231 C 
HETATM   14  O8  UNL     1      42.141  42.723  34.123  1.00  0.00    -0.286 OA
HETATM   15  C16 UNL     1      42.243  40.509  33.414  1.00  0.00     0.187 C 
HETATM   16  N6  UNL     1      43.103  39.423  33.240  1.00  0.00    -0.344 N 
ATOM     17  H6  UNL     1      42.618  38.526  33.250  1.00  0.00     0.163 HD
HETATM   18  C17 UNL     1      44.501  39.295  33.054  1.00  0.00     0.223 C 
HETATM   19  N7  UNL     1      44.793  38.157  32.192  1.00  0.00    -0.284 N 
HETATM   20  C20 UNL     1      45.517  37.067  32.582  1.00  0.00     0.120 A 
HETATM   21  C21 UNL     1      45.698  36.073  31.601  1.00  0.00     0.097 A 
HETATM   22  C22 UNL     1      45.199  36.145  30.324  1.00  0.00     0.052 A 
HETATM   23  C23 UNL     1      44.487  37.238  29.976  1.00  0.00     0.022 A 
HETATM   24  C26 UNL     1      44.301  38.220  30.928  1.00  0.00     0.257 A 
HETATM   25  O12 UNL     1      43.608  39.211  30.510  1.00  0.00    -0.267 OA
ENDROOT
BRANCH  12  26
HETATM   26  C9  UNL     1      41.250  42.178  36.521  1.00  0.00     0.289 C 
HETATM   27  O4  UNL     1      40.241  42.516  35.856  1.00  0.00    -0.262 OA
BRANCH  26  28
HETATM   28  O5  UNL     1      41.372  42.668  37.805  1.00  0.00    -0.317 OA
BRANCH  28  29
HETATM   29  C10 UNL     1      40.741  42.170  38.943  1.00  0.00     0.211 C 
BRANCH  29  30
HETATM   30  C11 UNL     1      41.288  42.966  40.122  1.00  0.00     0.157 C 
BRANCH  30  31
HETATM   31  O6  UNL     1      42.002  44.060  39.671  1.00  0.00    -0.392 OA
ATOM     32  H6  UNL     1      42.935  43.905  39.760  1.00  0.00     0.210 HD
ENDBRANCH  30  31
BRANCH  30  33
HETATM   33  C12 UNL     1      42.095  42.120  41.062  1.00  0.00     0.154 C 
BRANCH  33  34
HETATM   34  N5  UNL     1      43.382  41.812  40.468  1.00  0.00    -0.199 NA
HETATM   35  C13 UNL     1      43.853  40.488  40.766  1.00  0.00     0.143 C 
BRANCH  34  36
HETATM   36  O7  UNL     1      44.286  42.724  40.851  1.00  0.00    -0.309 OA
HETATM   37  C14 UNL     1      45.035  42.240  41.930  1.00  0.00     0.229 C 
ENDBRANCH  34  36
ENDBRANCH  33  34
ENDBRANCH  30  33
ENDBRANCH  29  30
ENDBRANCH  28  29
ENDBRANCH  26  28
ENDBRANCH  12  26
BRANCH  15  38
HETATM   38  O9  UNL     1      41.336  40.624  32.473  1.00  0.00    -0.344 OA
ATOM     39  H9  UNL     1      40.592  40.035  32.507  1.00  0.00     0.219 HD
ENDBRANCH  15  38
BRANCH  18  40
HETATM   40  C18 UNL     1      45.319  40.464  32.695  1.00  0.00     0.157 C 
HETATM   41  C19 UNL     1      45.905  41.249  33.856  1.00  0.00     0.043 C 
BRANCH  40  42
HETATM   42  O10 UNL     1      44.773  41.364  31.802  1.00  0.00    -0.392 OA
ATOM     43  H10 UNL     1      45.376  41.833  31.238  1.00  0.00     0.210 HD
ENDBRANCH  40  42
ENDBRANCH  18  40
BRANCH   1  44
HETATM   44  C3  UNL     1      47.262  37.674  34.267  1.00  0.00     0.326 C 
HETATM   45  O2  UNL     1      47.557  37.843  35.468  1.00  0.00    -0.256 OA
BRANCH  44  46
HETATM   46  O1  UNL     1      48.019  38.240  33.287  1.00  0.00    -0.316 OA
BRANCH  46  47
HETATM   47  C2  UNL     1      49.310  38.767  33.420  1.00  0.00     0.175 C 
HETATM   48  C1  UNL     1      49.454  40.227  33.196  1.00  0.00     0.034 C 
ENDBRANCH  46  47
ENDBRANCH  44  46
ENDBRANCH   1  44
BRANCH  21  49
HETATM   49  O11 UNL     1      46.437  34.925  31.942  1.00  0.00    -0.358 OA
ATOM     50  H11 UNL     1      46.066  34.073  31.741  1.00  0.00     0.217 HD
ENDBRANCH  21  49
BRANCH  23  51
HETATM   51  C24 UNL     1      43.898  37.453  28.621  1.00  0.00     0.117 C 
BRANCH  51  52
HETATM   52  S1  UNL     1      42.574  36.313  28.250  1.00  0.00    -0.169 SA
HETATM   53  C25 UNL     1      41.288  37.239  27.320  1.00  0.00     0.090 C 
ENDBRANCH  51  52
ENDBRANCH  23  51
TORSDOF 17
ENDMDL
MODEL 2
REMARK VINA RESULT: -7.542356675      1.367      1.727
REMARK  17 active torsions:
REMARK  status: ('A' for Active; 'I' for Inactive)
REMARK    1  A    between atoms: C2_2  and  O1_3 
REMARK    2  A    between atoms: O1_3  and  C3_4 
REMARK    3  A    between atoms: C3_4  and  C4_6 
REMARK    4  A    between atoms: C8_17  and  C9_18 
REMARK    5  A    between atoms: C9_18  and  O5_20 
REMARK    6  A    between atoms: O5_20  and  C10_21 
REMARK    7  A    between atoms: C10_21  and  C11_22 
REMARK    8  A    between atoms: C11_22  and  O6_23 
REMARK    9  A    between atoms: C11_22  and  C12_25 
REMARK   10  A    between atoms: C12_25  and  N5_26 
REMARK   11  A    between atoms: N5_26  and  O7_28 
REMARK   12  A    between atoms: C16_32  and  O9_33 
REMARK   13  A    between atoms: C17_37  and  C18_38 
REMARK   14  A    between atoms: C18_38  and  O10_40 
REMARK   15  A    between atoms: C21_44  and  O11_45 
REMARK   16  A    between atoms: C23_48  and  C24_49 
REMARK   17  A    between atoms: C24_49  and  S1_50 
ROOT
HETATM    1  C4  UNL     1      45.996  37.084  34.039  1.00  0.00     0.215 C 
HETATM    2  N1  UNL     1      45.074  36.872  35.008  1.00  0.00    -0.365 NA
HETATM    3  C5  UNL     1      44.263  36.692  35.868  1.00  0.00     0.264 C 
HETATM    4  N2  UNL     1      43.182  35.680  35.757  1.00  0.00    -0.049 NA
HETATM    5  N3  UNL     1      44.159  37.373  37.143  1.00  0.00    -0.344 N 
ATOM      6  H3  UNL     1      44.153  36.793  37.983  1.00  0.00     0.163 HD
HETATM    7  C6  UNL     1      44.064  38.804  37.327  1.00  0.00     0.226 C 
HETATM    8  C7  UNL     1      42.657  39.250  37.448  1.00  0.00     0.236 C 
HETATM    9  O3  UNL     1      42.031  38.822  38.476  1.00  0.00    -0.272 OA
HETATM   10  N4  UNL     1      41.943  40.078  36.567  1.00  0.00    -0.339 N 
ATOM     11  H4  UNL     1      41.099  39.673  36.161  1.00  0.00     0.163 HD
HETATM   12  C8  UNL     1      42.251  41.425  36.162  1.00  0.00     0.263 C 
HETATM   13  C15 UNL     1      42.146  41.686  34.714  1.00  0.00     0.231 C 
HETATM   14  O8  UNL     1      42.040  42.921  34.382  1.00  0.00    -0.286 OA
HETATM   15  C16 UNL     1      42.147  40.720  33.631  1.00  0.00     0.187 C 
HETATM   16  N6  UNL     1      43.013  39.645  33.423  1.00  0.00    -0.344 N 
ATOM     17  H6  UNL     1      42.535  38.743  33.424  1.00  0.00     0.163 HD
HETATM   18  C17 UNL     1      44.409  39.531  33.212  1.00  0.00     0.223 C 
HETATM   19  N7  UNL     1      44.696  38.412  32.325  1.00  0.00    -0.284 N 
HETATM   20  C20 UNL     1      45.434  37.321  32.683  1.00  0.00     0.120 A 
HETATM   21  C21 UNL     1      45.606  36.347  31.680  1.00  0.00     0.097 A 
HETATM   22  C22 UNL     1      45.087  36.438  30.413  1.00  0.00     0.052 A 
HETATM   23  C23 UNL     1      44.360  37.532  30.098  1.00  0.00     0.022 A 
HETATM   24  C26 UNL     1      44.183  38.494  31.070  1.00  0.00     0.257 A 
HETATM   25  O12 UNL     1      43.476  39.487  30.682  1.00  0.00    -0.267 OA
ENDROOT
BRANCH  12  26
HETATM   26  C9  UNL     1      41.193  42.324  36.784  1.00  0.00     0.289 C 
HETATM   27  O4  UNL     1      40.140  42.613  36.166  1.00  0.00    -0.262 OA
BRANCH  26  28
HETATM   28  O5  UNL     1      41.366  42.849  38.047  1.00  0.00    -0.317 OA
BRANCH  28  29
HETATM   29  C10 UNL     1      40.420  42.869  39.071  1.00  0.00     0.211 C 
BRANCH  29  30
HETATM   30  C11 UNL     1      40.567  41.549  39.819  1.00  0.00     0.157 C 
BRANCH  30  31
HETATM   31  O6  UNL     1      39.738  40.591  39.268  1.00  0.00    -0.392 OA
ATOM     32  H6  UNL     1      38.844  40.721  39.562  1.00  0.00     0.210 HD
ENDBRANCH  30  31
BRANCH  30  33
HETATM   33  C12 UNL     1      40.348  41.697  41.296  1.00  0.00     0.154 C 
BRANCH  33  34
HETATM   34  N5  UNL     1      39.710  40.506  41.822  1.00  0.00    -0.199 NA
HETATM   35  C13 UNL     1      39.148  40.683  43.132  1.00  0.00     0.143 C 
BRANCH  34  36
HETATM   36  O7  UNL     1      40.585  39.490  41.825  1.00  0.00    -0.309 OA
HETATM   37  C14 UNL     1      40.146  38.476  42.686  1.00  0.00     0.229 C 
ENDBRANCH  34  36
ENDBRANCH  33  34
ENDBRANCH  30  33
ENDBRANCH  29  30
ENDBRANCH  28  29
ENDBRANCH  26  28
ENDBRANCH  12  26
BRANCH  15  38
HETATM   38  O9  UNL     1      41.224  40.845  32.707  1.00  0.00    -0.344 OA
ATOM     39  H9  UNL     1      40.374  40.462  32.882  1.00  0.00     0.219 HD
ENDBRANCH  15  38
BRANCH  18  40
HETATM   40  C18 UNL     1      45.212  40.713  32.862  1.00  0.00     0.157 C 
HETATM   41  C19 UNL     1      45.819  41.475  34.027  1.00  0.00     0.043 C 
BRANCH  40  42
HETATM   42  O10 UNL     1      44.641  41.629  32.002  1.00  0.00    -0.392 OA
ATOM     43  H10 UNL     1      45.225  42.092  31.413  1.00  0.00     0.210 HD
ENDBRANCH  40  42
ENDBRANCH  18  40
BRANCH   1  44
HETATM   44  C3  UNL     1      47.201  37.911  34.350  1.00  0.00     0.326 C 
HETATM   45  O2  UNL     1      47.246  38.484  35.457  1.00  0.00    -0.256 OA
BRANCH  44  46
HETATM   46  O1  UNL     1      48.222  38.053  33.460  1.00  0.00    -0.316 OA
BRANCH  46  47
HETATM   47  C2  UNL     1      48.510  39.183  32.684  1.00  0.00     0.175 C 
HETATM   48  C1  UNL     1      49.400  40.198  33.300  1.00  0.00     0.034 C 
ENDBRANCH  46  47
ENDBRANCH  44  46
ENDBRANCH   1  44
BRANCH  21  49
HETATM   49  O11 UNL     1      46.360  35.198  31.989  1.00  0.00    -0.358 OA
ATOM     50  H11 UNL     1      47.223  35.108  31.601  1.00  0.00     0.217 HD
ENDBRANCH  21  49
BRANCH  23  51
HETATM   51  C24 UNL     1      43.748  37.767  28.756  1.00  0.00     0.117 C 
BRANCH  51  52
HETATM   52  S1  UNL     1      42.569  36.504  28.300  1.00  0.00    -0.169 SA
HETATM   53  C25 UNL     1      41.262  37.306  27.287  1.00  0.00     0.090 C 
ENDBRANCH  51  52
ENDBRANCH  23  51
TORSDOF 17
ENDMDL
MODEL 3
REMARK VINA RESULT: -7.467465297      2.504      4.860
REMARK  17 active torsions:
REMARK  status: ('A' for Active; 'I' for Inactive)
REMARK    1  A    between atoms: C2_2  and  O1_3 
REMARK    2  A    between atoms: O1_3  and  C3_4 
REMARK    3  A    between atoms: C3_4  and  C4_6 
REMARK    4  A    between atoms: C8_17  and  C9_18 
REMARK    5  A    between atoms: C9_18  and  O5_20 
REMARK    6  A    between atoms: O5_20  and  C10_21 
REMARK    7  A    between atoms: C10_21  and  C11_22 
REMARK    8  A    between atoms: C11_22  and  O6_23 
REMARK    9  A    between atoms: C11_22  and  C12_25 
REMARK   10  A    between atoms: C12_25  and  N5_26 
REMARK   11  A    between atoms: N5_26  and  O7_28 
REMARK   12  A    between atoms: C16_32  and  O9_33 
REMARK   13  A    between atoms: C17_37  and  C18_38 
REMARK   14  A    between atoms: C18_38  and  O10_40 
REMARK   15  A    between atoms: C21_44  and  O11_45 
REMARK   16  A    between atoms: C23_48  and  C24_49 
REMARK   17  A    between atoms: C24_49  and  S1_50 
ROOT
HETATM    1  C4  UNL     1      43.921  35.750  31.364  1.00  0.00     0.215 C 
HETATM    2  N1  UNL     1      43.403  36.866  30.797  1.00  0.00    -0.365 NA
HETATM    3  C5  UNL     1      42.940  37.851  30.303  1.00  0.00     0.264 C 
HETATM    4  N2  UNL     1      43.552  38.531  29.134  1.00  0.00    -0.049 NA
HETATM    5  N3  UNL     1      41.742  38.563  30.704  1.00  0.00    -0.344 N 
ATOM      6  H3  UNL     1      41.029  38.714  29.990  1.00  0.00     0.163 HD
HETATM    7  C6  UNL     1      41.473  39.077  32.028  1.00  0.00     0.226 C 
HETATM    8  C7  UNL     1      41.857  40.501  32.153  1.00  0.00     0.236 C 
HETATM    9  O3  UNL     1      41.192  41.316  31.427  1.00  0.00    -0.272 OA
HETATM   10  N4  UNL     1      42.860  41.049  32.969  1.00  0.00    -0.339 N 
ATOM     11  H4  UNL     1      43.594  41.566  32.485  1.00  0.00     0.163 HD
HETATM   12  C8  UNL     1      42.984  40.972  34.401  1.00  0.00     0.263 C 
HETATM   13  C15 UNL     1      44.331  40.629  34.897  1.00  0.00     0.231 C 
HETATM   14  O8  UNL     1      44.558  40.923  36.126  1.00  0.00    -0.286 OA
HETATM   15  C16 UNL     1      45.418  40.004  34.168  1.00  0.00     0.187 C 
HETATM   16  N6  UNL     1      45.381  38.877  33.344  1.00  0.00    -0.344 N 
ATOM     17  H6  UNL     1      45.650  39.079  32.381  1.00  0.00     0.163 HD
HETATM   18  C17 UNL     1      45.053  37.516  33.553  1.00  0.00     0.223 C 
HETATM   19  N7  UNL     1      45.866  36.663  32.697  1.00  0.00    -0.284 N 
HETATM   20  C20 UNL     1      45.359  35.845  31.729  1.00  0.00     0.120 A 
HETATM   21  C21 UNL     1      46.308  35.091  31.010  1.00  0.00     0.097 A 
HETATM   22  C22 UNL     1      47.663  35.142  31.227  1.00  0.00     0.052 A 
HETATM   23  C23 UNL     1      48.125  35.965  32.192  1.00  0.00     0.022 A 
HETATM   24  C26 UNL     1      47.208  36.709  32.903  1.00  0.00     0.257 A 
HETATM   25  O12 UNL     1      47.739  37.464  33.789  1.00  0.00    -0.267 OA
ENDROOT
BRANCH  12  26
HETATM   26  C9  UNL     1      42.732  42.372  34.940  1.00  0.00     0.289 C 
HETATM   27  O4  UNL     1      43.256  43.380  34.407  1.00  0.00    -0.262 OA
BRANCH  26  28
HETATM   28  O5  UNL     1      41.917  42.571  36.036  1.00  0.00    -0.317 OA
BRANCH  28  29
HETATM   29  C10 UNL     1      41.145  41.604  36.678  1.00  0.00     0.211 C 
BRANCH  29  30
HETATM   30  C11 UNL     1      40.741  42.199  38.023  1.00  0.00     0.157 C 
BRANCH  30  31
HETATM   31  O6  UNL     1      40.470  43.548  37.887  1.00  0.00    -0.392 OA
ATOM     32  H6  UNL     1      39.976  43.706  37.092  1.00  0.00     0.210 HD
ENDBRANCH  30  31
BRANCH  30  33
HETATM   33  C12 UNL     1      41.756  41.937  39.095  1.00  0.00     0.154 C 
BRANCH  33  34
HETATM   34  N5  UNL     1      42.421  43.173  39.459  1.00  0.00    -0.199 NA
HETATM   35  C13 UNL     1      43.794  42.999  39.843  1.00  0.00     0.143 C 
BRANCH  34  36
HETATM   36  O7  UNL     1      41.739  43.781  40.439  1.00  0.00    -0.309 OA
HETATM   37  C14 UNL     1      41.515  42.892  41.497  1.00  0.00     0.229 C 
ENDBRANCH  34  36
ENDBRANCH  33  34
ENDBRANCH  30  33
ENDBRANCH  29  30
ENDBRANCH  28  29
ENDBRANCH  26  28
ENDBRANCH  12  26
BRANCH  15  38
HETATM   38  O9  UNL     1      46.608  40.547  34.273  1.00  0.00    -0.344 OA
ATOM     39  H9  UNL     1      46.953  40.681  35.148  1.00  0.00     0.219 HD
ENDBRANCH  15  38
BRANCH  18  40
HETATM   40  C18 UNL     1      44.954  36.969  34.916  1.00  0.00     0.157 C 
HETATM   41  C19 UNL     1      43.582  37.040  35.564  1.00  0.00     0.043 C 
BRANCH  40  42
HETATM   42  O10 UNL     1      45.886  37.404  35.837  1.00  0.00    -0.392 OA
ATOM     43  H10 UNL     1      46.298  36.744  36.381  1.00  0.00     0.210 HD
ENDBRANCH  40  42
ENDBRANCH  18  40
BRANCH   1  44
HETATM   44  C3  UNL     1      43.095  34.982  32.344  1.00  0.00     0.326 C 
HETATM   45  O2  UNL     1      41.874  35.235  32.405  1.00  0.00    -0.256 OA
BRANCH  44  46
HETATM   46  O1  UNL     1      43.643  34.040  33.160  1.00  0.00    -0.316 OA
BRANCH  46  47
HETATM   47  C2  UNL     1      42.957  33.116  33.959  1.00  0.00     0.175 C 
HETATM   48  C1  UNL     1      42.977  33.364  35.422  1.00  0.00     0.034 C 
ENDBRANCH  46  47
ENDBRANCH  44  46
ENDBRANCH   1  44
BRANCH  21  49
HETATM   49  O11 UNL     1      45.847  34.226  29.999  1.00  0.00    -0.358 OA
ATOM     50  H11 UNL     1      45.507  34.610  29.198  1.00  0.00     0.217 HD
ENDBRANCH  21  49
BRANCH  23  51
HETATM   51  C24 UNL     1      49.570  36.109  32.542  1.00  0.00     0.117 C 
BRANCH  51  52
HETATM   52  S1  UNL     1      50.542  36.796  31.210  1.00  0.00    -0.169 SA
HETATM   53  C25 UNL     1      49.662  38.285  30.591  1.00  0.00     0.090 C 
ENDBRANCH  51  52
ENDBRANCH  23  51
TORSDOF 17
ENDMDL
MODEL 4
REMARK VINA RESULT: -7.458204647      3.101      9.232
REMARK  17 active torsions:
REMARK  status: ('A' for Active; 'I' for Inactive)
REMARK    1  A    between atoms: C2_2  and  O1_3 
REMARK    2  A    between atoms: O1_3  and  C3_4 
REMARK    3  A    between atoms: C3_4  and  C4_6 
REMARK    4  A    between atoms: C8_17  and  C9_18 
REMARK    5  A    between atoms: C9_18  and  O5_20 
REMARK    6  A    between atoms: O5_20  and  C10_21 
REMARK    7  A    between atoms: C10_21  and  C11_22 
REMARK    8  A    between atoms: C11_22  and  O6_23 
REMARK    9  A    between atoms: C11_22  and  C12_25 
REMARK   10  A    between atoms: C12_25  and  N5_26 
REMARK   11  A    between atoms: N5_26  and  O7_28 
REMARK   12  A    between atoms: C16_32  and  O9_33 
REMARK   13  A    between atoms: C17_37  and  C18_38 
REMARK   14  A    between atoms: C18_38  and  O10_40 
REMARK   15  A    between atoms: C21_44  and  O11_45 
REMARK   16  A    between atoms: C23_48  and  C24_49 
REMARK   17  A    between atoms: C24_49  and  S1_50 
ROOT
HETATM    1  C4  UNL     1      43.279  41.503  34.525  1.00  0.00     0.215 C 
HETATM    2  N1  UNL     1      42.765  41.141  33.325  1.00  0.00    -0.365 NA
HETATM    3  C5  UNL     1      42.320  40.822  32.263  1.00  0.00     0.264 C 
HETATM    4  N2  UNL     1      40.870  40.601  32.030  1.00  0.00    -0.049 NA
HETATM    5  N3  UNL     1      43.047  40.596  31.029  1.00  0.00    -0.344 N 
ATOM      6  H3  UNL     1      42.753  41.128  30.210  1.00  0.00     0.163 HD
HETATM    7  C6  UNL     1      44.155  39.681  30.862  1.00  0.00     0.226 C 
HETATM    8  C7  UNL     1      43.708  38.366  30.349  1.00  0.00     0.236 C 
HETATM    9  O3  UNL     1      43.209  38.375  29.173  1.00  0.00    -0.272 OA
HETATM   10  N4  UNL     1      43.769  37.126  31.006  1.00  0.00    -0.339 N 
ATOM     11  H4  UNL     1      42.877  36.649  31.138  1.00  0.00     0.163 HD
HETATM   12  C8  UNL     1      44.929  36.443  31.515  1.00  0.00     0.263 C 
HETATM   13  C15 UNL     1      44.787  35.893  32.877  1.00  0.00     0.231 C 
HETATM   14  O8  UNL     1      45.632  34.981  33.194  1.00  0.00    -0.286 OA
HETATM   15  C16 UNL     1      43.814  36.257  33.889  1.00  0.00     0.187 C 
HETATM   16  N6  UNL     1      43.431  37.532  34.312  1.00  0.00    -0.344 N 
ATOM     17  H6  UNL     1      42.443  37.725  34.151  1.00  0.00     0.163 HD
HETATM   18  C17 UNL     1      44.115  38.615  34.917  1.00  0.00     0.223 C 
HETATM   19  N7  UNL     1      43.226  39.332  35.821  1.00  0.00    -0.284 N 
HETATM   20  C20 UNL     1      42.869  40.640  35.665  1.00  0.00     0.120 A 
HETATM   21  C21 UNL     1      42.005  41.157  36.650  1.00  0.00     0.097 A 
HETATM   22  C22 UNL     1      41.523  40.435  37.714  1.00  0.00     0.052 A 
HETATM   23  C23 UNL     1      41.897  39.144  37.832  1.00  0.00     0.022 A 
HETATM   24  C26 UNL     1      42.743  38.624  36.875  1.00  0.00     0.257 A 
HETATM   25  O12 UNL     1      43.035  37.393  37.065  1.00  0.00    -0.267 OA
ENDROOT
BRANCH  12  26
HETATM   26  C9  UNL     1      45.142  35.220  30.636  1.00  0.00     0.289 C 
HETATM   27  O4  UNL     1      46.250  34.995  30.092  1.00  0.00    -0.262 OA
BRANCH  26  28
HETATM   28  O5  UNL     1      44.117  34.325  30.411  1.00  0.00    -0.317 OA
BRANCH  28  29
HETATM   29  C10 UNL     1      43.749  33.782  29.181  1.00  0.00     0.211 C 
BRANCH  29  30
HETATM   30  C11 UNL     1      42.743  34.750  28.567  1.00  0.00     0.157 C 
BRANCH  30  31
HETATM   31  O6  UNL     1      42.059  35.424  29.561  1.00  0.00    -0.392 OA
ATOM     32  H6  UNL     1      41.405  34.857  29.953  1.00  0.00     0.210 HD
ENDBRANCH  30  31
BRANCH  30  33
HETATM   33  C12 UNL     1      41.812  34.077  27.603  1.00  0.00     0.154 C 
BRANCH  33  34
HETATM   34  N5  UNL     1      41.379  35.022  26.593  1.00  0.00    -0.199 NA
HETATM   35  C13 UNL     1      42.438  35.473  25.732  1.00  0.00     0.143 C 
BRANCH  34  36
HETATM   36  O7  UNL     1      40.782  36.069  27.180  1.00  0.00    -0.309 OA
HETATM   37  C14 UNL     1      41.124  37.255  26.520  1.00  0.00     0.229 C 
ENDBRANCH  34  36
ENDBRANCH  33  34
ENDBRANCH  30  33
ENDBRANCH  29  30
ENDBRANCH  28  29
ENDBRANCH  26  28
ENDBRANCH  12  26
BRANCH  15  38
HETATM   38  O9  UNL     1      43.190  35.283  34.508  1.00  0.00    -0.344 OA
ATOM     39  H9  UNL     1      42.302  35.088  34.236  1.00  0.00     0.219 HD
ENDBRANCH  15  38
BRANCH  18  40
HETATM   40  C18 UNL     1      45.446  38.421  35.514  1.00  0.00     0.157 C 
HETATM   41  C19 UNL     1      46.627  38.853  34.664  1.00  0.00     0.043 C 
BRANCH  40  42
HETATM   42  O10 UNL     1      45.726  37.173  36.035  1.00  0.00    -0.392 OA
ATOM     43  H10 UNL     1      46.619  36.861  35.954  1.00  0.00     0.210 HD
ENDBRANCH  40  42
ENDBRANCH  18  40
BRANCH   1  44
HETATM   44  C3  UNL     1      44.695  41.973  34.598  1.00  0.00     0.326 C 
HETATM   45  O2  UNL     1      45.379  41.932  33.555  1.00  0.00    -0.256 OA
BRANCH  44  46
HETATM   46  O1  UNL     1      45.241  42.426  35.760  1.00  0.00    -0.316 OA
BRANCH  46  47
HETATM   47  C2  UNL     1      46.411  43.183  35.902  1.00  0.00     0.175 C 
HETATM   48  C1  UNL     1      47.659  42.427  36.169  1.00  0.00     0.034 C 
ENDBRANCH  46  47
ENDBRANCH  44  46
ENDBRANCH   1  44
BRANCH  21  49
HETATM   49  O11 UNL     1      41.601  42.502  36.545  1.00  0.00    -0.358 OA
ATOM     50  H11 UNL     1      40.926  42.817  37.135  1.00  0.00     0.217 HD
ENDBRANCH  21  49
BRANCH  23  51
HETATM   51  C24 UNL     1      41.459  38.247  38.944  1.00  0.00     0.117 C 
BRANCH  51  52
HETATM   52  S1  UNL     1      42.031  38.797  40.545  1.00  0.00    -0.169 SA
HETATM   53  C25 UNL     1      40.665  39.747  41.324  1.00  0.00     0.090 C 
ENDBRANCH  51  52
ENDBRANCH  23  51
TORSDOF 17
ENDMDL
MODEL 5
REMARK VINA RESULT: -7.447637386      2.579      5.134
REMARK  17 active torsions:
REMARK  status: ('A' for Active; 'I' for Inactive)
REMARK    1  A    between atoms: C2_2  and  O1_3 
REMARK    2  A    between atoms: O1_3  and  C3_4 
REMARK    3  A    between atoms: C3_4  and  C4_6 
REMARK    4  A    between atoms: C8_17  and  C9_18 
REMARK    5  A    between atoms: C9_18  and  O5_20 
REMARK    6  A    between atoms: O5_20  and  C10_21 
REMARK    7  A    between atoms: C10_21  and  C11_22 
REMARK    8  A    between atoms: C11_22  and  O6_23 
REMARK    9  A    between atoms: C11_22  and  C12_25 
REMARK   10  A    between atoms: C12_25  and  N5_26 
REMARK   11  A    between atoms: N5_26  and  O7_28 
REMARK   12  A    between atoms: C16_32  and  O9_33 
REMARK   13  A    between atoms: C17_37  and  C18_38 
REMARK   14  A    between atoms: C18_38  and  O10_40 
REMARK   15  A    between atoms: C21_44  and  O11_45 
REMARK   16  A    between atoms: C23_48  and  C24_49 
REMARK   17  A    between atoms: C24_49  and  S1_50 
ROOT
HETATM    1  C4  UNL     1      44.482  40.188  32.805  1.00  0.00     0.215 C 
HETATM    2  N1  UNL     1      44.561  41.067  33.833  1.00  0.00    -0.365 NA
HETATM    3  C5  UNL     1      44.623  41.842  34.740  1.00  0.00     0.264 C 
HETATM    4  N2  UNL     1      45.907  42.380  35.256  1.00  0.00    -0.049 NA
HETATM    5  N3  UNL     1      43.524  42.407  35.498  1.00  0.00    -0.344 N 
ATOM      6  H3  UNL     1      43.466  43.424  35.550  1.00  0.00     0.163 HD
HETATM    7  C6  UNL     1      42.501  41.651  36.187  1.00  0.00     0.226 C 
HETATM    8  C7  UNL     1      42.834  41.452  37.616  1.00  0.00     0.236 C 
HETATM    9  O3  UNL     1      42.881  42.515  38.324  1.00  0.00    -0.272 OA
HETATM   10  N4  UNL     1      43.105  40.240  38.271  1.00  0.00    -0.339 N 
ATOM     11  H4  UNL     1      44.019  40.170  38.719  1.00  0.00     0.163 HD
HETATM   12  C8  UNL     1      42.256  39.083  38.391  1.00  0.00     0.263 C 
HETATM   13  C15 UNL     1      42.914  37.791  38.120  1.00  0.00     0.231 C 
HETATM   14  O8  UNL     1      42.308  36.757  38.579  1.00  0.00    -0.286 OA
HETATM   15  C16 UNL     1      44.153  37.553  37.404  1.00  0.00     0.187 C 
HETATM   16  N6  UNL     1      44.563  38.074  36.175  1.00  0.00    -0.344 N 
ATOM     17  H6  UNL     1      45.412  38.635  36.244  1.00  0.00     0.163 HD
HETATM   18  C17 UNL     1      44.059  37.994  34.854  1.00  0.00     0.223 C 
HETATM   19  N7  UNL     1      45.154  38.007  33.894  1.00  0.00    -0.284 N 
HETATM   20  C20 UNL     1      45.333  38.978  32.951  1.00  0.00     0.120 A 
HETATM   21  C21 UNL     1      46.450  38.810  32.108  1.00  0.00     0.097 A 
HETATM   22  C22 UNL     1      47.331  37.761  32.190  1.00  0.00     0.052 A 
HETATM   23  C23 UNL     1      47.121  36.822  33.138  1.00  0.00     0.022 A 
HETATM   24  C26 UNL     1      46.032  36.974  33.970  1.00  0.00     0.257 A 
HETATM   25  O12 UNL     1      45.920  36.042  34.839  1.00  0.00    -0.267 OA
ENDROOT
BRANCH  12  26
HETATM   26  C9  UNL     1      41.837  38.993  39.851  1.00  0.00     0.289 C 
HETATM   27  O4  UNL     1      40.976  38.163  40.231  1.00  0.00    -0.262 OA
BRANCH  26  28
HETATM   28  O5  UNL     1      42.395  39.827  40.798  1.00  0.00    -0.317 OA
BRANCH  28  29
HETATM   29  C10 UNL     1      41.715  40.756  41.585  1.00  0.00     0.211 C 
BRANCH  29  30
HETATM   30  C11 UNL     1      42.685  41.907  41.826  1.00  0.00     0.157 C 
BRANCH  30  31
HETATM   31  O6  UNL     1      42.295  43.020  41.104  1.00  0.00    -0.392 OA
ATOM     32  H6  UNL     1      42.436  43.809  41.614  1.00  0.00     0.210 HD
ENDBRANCH  30  31
BRANCH  30  33
HETATM   33  C12 UNL     1      44.108  41.527  41.546  1.00  0.00     0.154 C 
BRANCH  33  34
HETATM   34  N5  UNL     1      44.994  42.226  42.458  1.00  0.00    -0.199 NA
HETATM   35  C13 UNL     1      46.345  41.738  42.437  1.00  0.00     0.143 C 
BRANCH  34  36
HETATM   36  O7  UNL     1      44.499  42.167  43.702  1.00  0.00    -0.309 OA
HETATM   37  C14 UNL     1      45.539  42.181  44.639  1.00  0.00     0.229 C 
ENDBRANCH  34  36
ENDBRANCH  33  34
ENDBRANCH  30  33
ENDBRANCH  29  30
ENDBRANCH  28  29
ENDBRANCH  26  28
ENDBRANCH  12  26
BRANCH  15  38
HETATM   38  O9  UNL     1      45.027  36.746  37.957  1.00  0.00    -0.344 OA
ATOM     39  H9  UNL     1      45.777  36.488  37.436  1.00  0.00     0.219 HD
ENDBRANCH  15  38
BRANCH  18  40
HETATM   40  C18 UNL     1      43.046  36.987  34.498  1.00  0.00     0.157 C 
HETATM   41  C19 UNL     1      41.608  37.473  34.464  1.00  0.00     0.043 C 
BRANCH  40  42
HETATM   42  O10 UNL     1      43.078  35.792  35.188  1.00  0.00    -0.392 OA
ATOM     43  H10 UNL     1      42.701  35.034  34.757  1.00  0.00     0.210 HD
ENDBRANCH  40  42
ENDBRANCH  18  40
BRANCH   1  44
HETATM   44  C3  UNL     1      43.152  39.923  32.176  1.00  0.00     0.326 C 
HETATM   45  O2  UNL     1      43.113  39.159  31.190  1.00  0.00    -0.256 OA
BRANCH  44  46
HETATM   46  O1  UNL     1      42.010  40.498  32.645  1.00  0.00    -0.316 OA
BRANCH  46  47
HETATM   47  C2  UNL     1      41.247  41.490  32.016  1.00  0.00     0.175 C 
HETATM   48  C1  UNL     1      41.894  42.815  31.848  1.00  0.00     0.034 C 
ENDBRANCH  46  47
ENDBRANCH  44  46
ENDBRANCH   1  44
BRANCH  21  49
HETATM   49  O11 UNL     1      46.687  39.778  31.113  1.00  0.00    -0.358 OA
ATOM     50  H11 UNL     1      47.585  40.035  30.939  1.00  0.00     0.217 HD
ENDBRANCH  21  49
BRANCH  23  51
HETATM   51  C24 UNL     1      47.991  35.624  33.331  1.00  0.00     0.117 C 
BRANCH  51  52
HETATM   52  S1  UNL     1      49.391  35.596  32.221  1.00  0.00    -0.169 SA
HETATM   53  C25 UNL     1      50.771  36.486  33.046  1.00  0.00     0.090 C 
ENDBRANCH  51  52
ENDBRANCH  23  51
TORSDOF 17
ENDMDL
