MODEL 1
REMARK VINA RESULT: -10.759957662      0.000      0.000
REMARK  5 active torsions:
REMARK  status: ('A' for Active; 'I' for Inactive)
REMARK    1  A    between atoms: C2_2  and  N1_3 
REMARK       I    between atoms: N1_3  and  C3_5 
REMARK    2  A    between atoms: C3_5  and  C4_7 
REMARK    3  A    between atoms: C7_11  and  C8_12 
REMARK    4  A    between atoms: C17_21  and  N2_22 
REMARK       I    between atoms: N2_22  and  C18_24 
REMARK       I    between atoms: C18_24  and  N3_26 
REMARK    5  A    between atoms: N3_26  and  C19_28 
ROOT
HETATM    1  C8  UNL     1      13.273   2.241  -7.686  1.00  0.00     0.005 A 
HETATM    2  C9  UNL     1      13.879   1.006  -7.452  1.00  0.00     0.021 A 
HETATM    3  C10 UNL     1      13.570  -0.128  -8.164  1.00  0.00    -0.060 A 
HETATM    4  C11 UNL     1      14.237  -1.422  -7.882  1.00  0.00     0.048 C 
HETATM    5  C12 UNL     1      12.620  -0.083  -9.163  1.00  0.00     0.021 A 
HETATM    6  C13 UNL     1      12.012   1.117  -9.411  1.00  0.00    -0.002 A 
HETATM    7  C14 UNL     1      11.066   1.118 -10.432  1.00  0.00    -0.046 A 
HETATM    8  C15 UNL     1      10.717  -0.082 -11.209  1.00  0.00     0.049 C 
HETATM    9  C16 UNL     1      10.444   2.319 -10.707  1.00  0.00     0.056 A 
HETATM   10  C17 UNL     1      10.730   3.475 -10.013  1.00  0.00     0.110 A 
HETATM   11  N4  UNL     1      11.672   3.417  -9.017  1.00  0.00    -0.341 N 
ATOM     12  H4  UNL     1      11.890   4.269  -8.500  1.00  0.00     0.167 HD
HETATM   13  C23 UNL     1      12.315   2.287  -8.696  1.00  0.00     0.056 A 
ENDROOT
BRANCH   1  14
HETATM   14  C7  UNL     1      13.562   3.415  -6.880  1.00  0.00     0.018 A 
HETATM   15  C4  UNL     1      13.721   3.550  -5.520  1.00  0.00     0.153 A 
HETATM   16  O2  UNL     1      13.887   4.838  -5.274  1.00  0.00    -0.316 OA
HETATM   17  C5  UNL     1      13.853   5.561  -6.348  1.00  0.00     0.143 A 
HETATM   18  C6  UNL     1      13.650   4.712  -7.407  1.00  0.00     0.040 A 
BRANCH  15  19
HETATM   19  C3  UNL     1      13.713   2.474  -4.512  1.00  0.00     0.276 C 
HETATM   20  N1  UNL     1      14.964   2.106  -3.938  1.00  0.00    -0.356 N 
ATOM     21  H1  UNL     1      15.810   2.590  -4.240  1.00  0.00     0.162 HD
HETATM   22  O1  UNL     1      12.645   1.941  -4.207  1.00  0.00    -0.265 OA
BRANCH  20  23
HETATM   23  C2  UNL     1      15.068   1.064  -2.937  1.00  0.00     0.118 C 
HETATM   24  C1  UNL     1      16.494   0.806  -2.518  1.00  0.00     0.026 C 
ENDBRANCH  20  23
ENDBRANCH  15  19
ENDBRANCH   1  14
BRANCH  10  25
HETATM   25  N2  UNL     1      10.166   4.609 -10.234  1.00  0.00    -0.295 N 
HETATM   26  C18 UNL     1      10.837   5.840 -10.253  1.00  0.00     0.322 C 
HETATM   27  O3  UNL     1      11.830   6.021 -10.997  1.00  0.00    -0.247 OA
HETATM   28  N3  UNL     1      10.404   6.916  -9.428  1.00  0.00    -0.335 N 
ATOM     29  H3  UNL     1       9.595   6.768  -8.824  1.00  0.00     0.165 HD
ATOM     30  H2  UNL     1       9.161   4.613 -10.407  1.00  0.00     0.172 HD
BRANCH  28  31
HETATM   31  C19 UNL     1      11.051   8.205  -9.401  1.00  0.00     0.023 C 
HETATM   32  C20 UNL     1      10.280   9.125  -8.473  1.00  0.00     0.037 C 
HETATM   33  C21 UNL     1      12.482   8.100  -8.918  1.00  0.00     0.037 C 
HETATM   34  C22 UNL     1      11.042   8.834 -10.766  1.00  0.00     0.037 C 
ENDBRANCH  28  31
ENDBRANCH  10  25
TORSDOF 5
ENDMDL
MODEL 2
REMARK VINA RESULT: -9.964222150      2.523      4.863
REMARK  5 active torsions:
REMARK  status: ('A' for Active; 'I' for Inactive)
REMARK    1  A    between atoms: C2_2  and  N1_3 
REMARK       I    between atoms: N1_3  and  C3_5 
REMARK    2  A    between atoms: C3_5  and  C4_7 
REMARK    3  A    between atoms: C7_11  and  C8_12 
REMARK    4  A    between atoms: C17_21  and  N2_22 
REMARK       I    between atoms: N2_22  and  C18_24 
REMARK       I    between atoms: C18_24  and  N3_26 
REMARK    5  A    between atoms: N3_26  and  C19_28 
ROOT
HETATM    1  C8  UNL     1      13.578   1.156  -6.650  1.00  0.00     0.005 A 
HETATM    2  C9  UNL     1      13.706   0.234  -5.611  1.00  0.00     0.021 A 
HETATM    3  C10 UNL     1      13.976   0.599  -4.313  1.00  0.00    -0.060 A 
HETATM    4  C11 UNL     1      14.105  -0.415  -3.238  1.00  0.00     0.048 C 
HETATM    5  C12 UNL     1      14.136   1.928  -3.984  1.00  0.00     0.021 A 
HETATM    6  C13 UNL     1      14.016   2.852  -4.987  1.00  0.00    -0.002 A 
HETATM    7  C14 UNL     1      14.178   4.181  -4.609  1.00  0.00    -0.046 A 
HETATM    8  C15 UNL     1      14.468   4.598  -3.228  1.00  0.00     0.049 C 
HETATM    9  C16 UNL     1      14.053   5.132  -5.602  1.00  0.00     0.056 A 
HETATM   10  C17 UNL     1      13.783   4.801  -6.912  1.00  0.00     0.110 A 
HETATM   11  N4  UNL     1      13.632   3.476  -7.229  1.00  0.00    -0.341 N 
ATOM     12  H4  UNL     1      13.429   3.223  -8.196  1.00  0.00     0.167 HD
HETATM   13  C23 UNL     1      13.739   2.499  -6.318  1.00  0.00     0.056 A 
ENDROOT
BRANCH   1  14
HETATM   14  C7  UNL     1      13.359   0.751  -8.027  1.00  0.00     0.018 A 
HETATM   15  C4  UNL     1      13.727  -0.397  -8.691  1.00  0.00     0.153 A 
HETATM   16  O2  UNL     1      13.366  -0.247  -9.955  1.00  0.00    -0.316 OA
HETATM   17  C5  UNL     1      12.797   0.893 -10.180  1.00  0.00     0.143 A 
HETATM   18  C6  UNL     1      12.761   1.576  -8.991  1.00  0.00     0.040 A 
BRANCH  15  19
HETATM   19  C3  UNL     1      14.392  -1.583  -8.120  1.00  0.00     0.276 C 
HETATM   20  N1  UNL     1      15.816  -1.576  -8.077  1.00  0.00    -0.356 N 
ATOM     21  H1  UNL     1      16.320  -0.767  -8.438  1.00  0.00     0.162 HD
HETATM   22  O1  UNL     1      13.706  -2.519  -7.707  1.00  0.00    -0.265 OA
BRANCH  20  23
HETATM   23  C2  UNL     1      16.568  -2.688  -7.533  1.00  0.00     0.118 C 
HETATM   24  C1  UNL     1      16.995  -2.455  -6.105  1.00  0.00     0.026 C 
ENDBRANCH  20  23
ENDBRANCH  15  19
ENDBRANCH   1  14
BRANCH  10  25
HETATM   25  N2  UNL     1      13.668   5.658  -7.864  1.00  0.00    -0.295 N 
HETATM   26  C18 UNL     1      12.448   6.086  -8.405  1.00  0.00     0.322 C 
HETATM   27  O3  UNL     1      11.549   6.560  -7.671  1.00  0.00    -0.247 OA
HETATM   28  N3  UNL     1      12.200   5.995  -9.804  1.00  0.00    -0.335 N 
ATOM     29  H3  UNL     1      12.933   5.611 -10.401  1.00  0.00     0.165 HD
ATOM     30  H2  UNL     1      14.524   6.052  -8.254  1.00  0.00     0.172 HD
BRANCH  28  31
HETATM   31  C19 UNL     1      10.967   6.417 -10.421  1.00  0.00     0.023 C 
HETATM   32  C20 UNL     1      11.055   6.175 -11.916  1.00  0.00     0.037 C 
HETATM   33  C21 UNL     1       9.779   5.661  -9.866  1.00  0.00     0.037 C 
HETATM   34  C22 UNL     1      10.746   7.890 -10.217  1.00  0.00     0.037 C 
ENDBRANCH  28  31
ENDBRANCH  10  25
TORSDOF 5
ENDMDL
MODEL 3
REMARK VINA RESULT: -9.907522935      2.552      8.324
REMARK  5 active torsions:
REMARK  status: ('A' for Active; 'I' for Inactive)
REMARK    1  A    between atoms: C2_2  and  N1_3 
REMARK       I    between atoms: N1_3  and  C3_5 
REMARK    2  A    between atoms: C3_5  and  C4_7 
REMARK    3  A    between atoms: C7_11  and  C8_12 
REMARK    4  A    between atoms: C17_21  and  N2_22 
REMARK       I    between atoms: N2_22  and  C18_24 
REMARK       I    between atoms: C18_24  and  N3_26 
REMARK    5  A    between atoms: N3_26  and  C19_28 
ROOT
HETATM    1  C8  UNL     1      13.394   2.601  -7.964  1.00  0.00     0.005 A 
HETATM    2  C9  UNL     1      13.353   3.974  -8.207  1.00  0.00     0.021 A 
HETATM    3  C10 UNL     1      13.556   4.917  -7.227  1.00  0.00    -0.060 A 
HETATM    4  C11 UNL     1      13.502   6.367  -7.529  1.00  0.00     0.048 C 
HETATM    5  C12 UNL     1      13.814   4.525  -5.931  1.00  0.00     0.021 A 
HETATM    6  C13 UNL     1      13.859   3.184  -5.666  1.00  0.00    -0.002 A 
HETATM    7  C14 UNL     1      14.129   2.834  -4.347  1.00  0.00    -0.046 A 
HETATM    8  C15 UNL     1      14.350   3.822  -3.280  1.00  0.00     0.049 C 
HETATM    9  C16 UNL     1      14.188   1.486  -4.057  1.00  0.00     0.056 A 
HETATM   10  C17 UNL     1      13.990   0.515  -5.015  1.00  0.00     0.110 A 
HETATM   11  N4  UNL     1      13.728   0.916  -6.301  1.00  0.00    -0.341 N 
ATOM     12  H4  UNL     1      13.582   0.203  -7.015  1.00  0.00     0.167 HD
HETATM   13  C23 UNL     1      13.656   2.206  -6.654  1.00  0.00     0.056 A 
ENDROOT
BRANCH   1  14
HETATM   14  C7  UNL     1      13.112   1.619  -8.996  1.00  0.00     0.018 A 
HETATM   15  C4  UNL     1      12.149   1.606  -9.979  1.00  0.00     0.153 A 
HETATM   16  O2  UNL     1      12.255   0.449 -10.611  1.00  0.00    -0.316 OA
HETATM   17  C5  UNL     1      13.199  -0.297 -10.133  1.00  0.00     0.143 A 
HETATM   18  C6  UNL     1      13.784   0.392  -9.101  1.00  0.00     0.040 A 
BRANCH  15  19
HETATM   19  C3  UNL     1      11.177   2.671 -10.288  1.00  0.00     0.276 C 
HETATM   20  N1  UNL     1      11.672   3.842 -10.931  1.00  0.00    -0.356 N 
ATOM     21  H1  UNL     1      12.666   3.904 -11.151  1.00  0.00     0.162 HD
HETATM   22  O1  UNL     1       9.993   2.513  -9.985  1.00  0.00    -0.265 OA
BRANCH  20  23
HETATM   23  C2  UNL     1      10.802   4.946 -11.281  1.00  0.00     0.118 C 
HETATM   24  C1  UNL     1      10.664   5.950 -10.164  1.00  0.00     0.026 C 
ENDBRANCH  20  23
ENDBRANCH  15  19
ENDBRANCH   1  14
BRANCH  10  25
HETATM   25  N2  UNL     1      14.029  -0.749  -4.782  1.00  0.00    -0.295 N 
HETATM   26  C18 UNL     1      14.862  -1.656  -5.452  1.00  0.00     0.322 C 
HETATM   27  O3  UNL     1      16.101  -1.476  -5.501  1.00  0.00    -0.247 OA
HETATM   28  N3  UNL     1      14.318  -2.805  -6.092  1.00  0.00    -0.335 N 
ATOM     29  H3  UNL     1      13.309  -2.951  -6.050  1.00  0.00     0.165 HD
ATOM     30  H2  UNL     1      13.410  -1.117  -4.059  1.00  0.00     0.172 HD
BRANCH  28  31
HETATM   31  C19 UNL     1      15.121  -3.774  -6.798  1.00  0.00     0.023 C 
HETATM   32  C20 UNL     1      14.242  -4.944  -7.198  1.00  0.00     0.037 C 
HETATM   33  C21 UNL     1      15.749  -3.179  -8.040  1.00  0.00     0.037 C 
HETATM   34  C22 UNL     1      16.209  -4.312  -5.911  1.00  0.00     0.037 C 
ENDBRANCH  28  31
ENDBRANCH  10  25
TORSDOF 5
ENDMDL
MODEL 4
REMARK VINA RESULT: -9.887907901      1.263      1.566
REMARK  5 active torsions:
REMARK  status: ('A' for Active; 'I' for Inactive)
REMARK    1  A    between atoms: C2_2  and  N1_3 
REMARK       I    between atoms: N1_3  and  C3_5 
REMARK    2  A    between atoms: C3_5  and  C4_7 
REMARK    3  A    between atoms: C7_11  and  C8_12 
REMARK    4  A    between atoms: C17_21  and  N2_22 
REMARK       I    between atoms: N2_22  and  C18_24 
REMARK       I    between atoms: C18_24  and  N3_26 
REMARK    5  A    between atoms: N3_26  and  C19_28 
ROOT
HETATM    1  C8  UNL     1      13.355   2.929  -7.505  1.00  0.00     0.005 A 
HETATM    2  C9  UNL     1      13.845   1.624  -7.559  1.00  0.00     0.021 A 
HETATM    3  C10 UNL     1      13.475   0.722  -8.529  1.00  0.00    -0.060 A 
HETATM    4  C11 UNL     1      14.020  -0.656  -8.550  1.00  0.00     0.048 C 
HETATM    5  C12 UNL     1      12.578   1.088  -9.510  1.00  0.00     0.021 A 
HETATM    6  C13 UNL     1      12.082   2.363  -9.478  1.00  0.00    -0.002 A 
HETATM    7  C14 UNL     1      11.186   2.691 -10.490  1.00  0.00    -0.046 A 
HETATM    8  C15 UNL     1      10.773   1.746 -11.539  1.00  0.00     0.049 C 
HETATM    9  C16 UNL     1      10.677   3.974 -10.484  1.00  0.00     0.056 A 
HETATM   10  C17 UNL     1      11.028   4.902  -9.527  1.00  0.00     0.110 A 
HETATM   11  N4  UNL     1      11.916   4.526  -8.552  1.00  0.00    -0.341 N 
ATOM     12  H4  UNL     1      12.181   5.209  -7.842  1.00  0.00     0.167 HD
HETATM   13  C23 UNL     1      12.449   3.298  -8.496  1.00  0.00     0.056 A 
ENDROOT
BRANCH   1  14
HETATM   14  C7  UNL     1      13.704   3.847  -6.436  1.00  0.00     0.018 A 
HETATM   15  C4  UNL     1      13.824   3.639  -5.081  1.00  0.00     0.153 A 
HETATM   16  O2  UNL     1      14.080   4.813  -4.529  1.00  0.00    -0.316 OA
HETATM   17  C5  UNL     1      14.139   5.772  -5.396  1.00  0.00     0.143 A 
HETATM   18  C6  UNL     1      13.909   5.221  -6.632  1.00  0.00     0.040 A 
BRANCH  15  19
HETATM   19  C3  UNL     1      13.698   2.358  -4.362  1.00  0.00     0.276 C 
HETATM   20  N1  UNL     1      14.902   1.719  -3.949  1.00  0.00    -0.356 N 
ATOM     21  H1  UNL     1      15.796   2.160  -4.161  1.00  0.00     0.162 HD
HETATM   22  O1  UNL     1      12.577   1.895  -4.148  1.00  0.00    -0.265 OA
BRANCH  20  23
HETATM   23  C2  UNL     1      14.891   0.459  -3.234  1.00  0.00     0.118 C 
HETATM   24  C1  UNL     1      14.930  -0.731  -4.160  1.00  0.00     0.026 C 
ENDBRANCH  20  23
ENDBRANCH  15  19
ENDBRANCH   1  14
BRANCH  10  25
HETATM   25  N2  UNL     1      10.569   6.103  -9.483  1.00  0.00    -0.295 N 
HETATM   26  C18 UNL     1      10.621   7.013 -10.548  1.00  0.00     0.322 C 
HETATM   27  O3  UNL     1      10.152   6.716 -11.672  1.00  0.00    -0.247 OA
HETATM   28  N3  UNL     1      11.208   8.299 -10.378  1.00  0.00    -0.335 N 
ATOM     29  H3  UNL     1      11.588   8.540  -9.463  1.00  0.00     0.165 HD
ATOM     30  H2  UNL     1      10.138   6.415  -8.613  1.00  0.00     0.172 HD
BRANCH  28  31
HETATM   31  C19 UNL     1      11.293   9.278 -11.433  1.00  0.00     0.023 C 
HETATM   32  C20 UNL     1      11.508  10.648 -10.819  1.00  0.00     0.037 C 
HETATM   33  C21 UNL     1      12.433   8.977 -12.383  1.00  0.00     0.037 C 
HETATM   34  C22 UNL     1      10.010   9.333 -12.215  1.00  0.00     0.037 C 
ENDBRANCH  28  31
ENDBRANCH  10  25
TORSDOF 5
ENDMDL
MODEL 5
REMARK VINA RESULT: -9.769339483      2.618      8.550
REMARK  5 active torsions:
REMARK  status: ('A' for Active; 'I' for Inactive)
REMARK    1  A    between atoms: C2_2  and  N1_3 
REMARK       I    between atoms: N1_3  and  C3_5 
REMARK    2  A    between atoms: C3_5  and  C4_7 
REMARK    3  A    between atoms: C7_11  and  C8_12 
REMARK    4  A    between atoms: C17_21  and  N2_22 
REMARK       I    between atoms: N2_22  and  C18_24 
REMARK       I    between atoms: C18_24  and  N3_26 
REMARK    5  A    between atoms: N3_26  and  C19_28 
ROOT
HETATM    1  C8  UNL     1      13.455   2.649  -7.860  1.00  0.00     0.005 A 
HETATM    2  C9  UNL     1      13.408   3.974  -8.294  1.00  0.00     0.021 A 
HETATM    3  C10 UNL     1      13.587   5.047  -7.453  1.00  0.00    -0.060 A 
HETATM    4  C11 UNL     1      13.528   6.440  -7.956  1.00  0.00     0.048 C 
HETATM    5  C12 UNL     1      13.825   4.843  -6.110  1.00  0.00     0.021 A 
HETATM    6  C13 UNL     1      13.875   3.552  -5.659  1.00  0.00    -0.002 A 
HETATM    7  C14 UNL     1      14.124   3.393  -4.300  1.00  0.00    -0.046 A 
HETATM    8  C15 UNL     1      14.319   4.523  -3.378  1.00  0.00     0.049 C 
HETATM    9  C16 UNL     1      14.187   2.099  -3.822  1.00  0.00     0.056 A 
HETATM   10  C17 UNL     1      14.013   1.002  -4.638  1.00  0.00     0.110 A 
HETATM   11  N4  UNL     1      13.770   1.216  -5.971  1.00  0.00    -0.341 N 
ATOM     12  H4  UNL     1      13.642   0.409  -6.581  1.00  0.00     0.167 HD
HETATM   13  C23 UNL     1      13.696   2.444  -6.503  1.00  0.00     0.056 A 
ENDROOT
BRANCH   1  14
HETATM   14  C7  UNL     1      13.197   1.529  -8.748  1.00  0.00     0.018 A 
HETATM   15  C4  UNL     1      12.226   1.353  -9.708  1.00  0.00     0.153 A 
HETATM   16  O2  UNL     1      12.367   0.127 -10.182  1.00  0.00    -0.316 OA
HETATM   17  C5  UNL     1      13.340  -0.517  -9.622  1.00  0.00     0.143 A 
HETATM   18  C6  UNL     1      13.910   0.322  -8.699  1.00  0.00     0.040 A 
BRANCH  15  19
HETATM   19  C3  UNL     1      11.215   2.335 -10.142  1.00  0.00     0.276 C 
HETATM   20  N1  UNL     1      11.684   3.520 -10.778  1.00  0.00    -0.356 N 
ATOM     21  H1  UNL     1      12.687   3.649 -10.908  1.00  0.00     0.162 HD
HETATM   22  O1  UNL     1      10.022   2.099  -9.943  1.00  0.00    -0.265 OA
BRANCH  20  23
HETATM   23  C2  UNL     1      10.775   4.546 -11.245  1.00  0.00     0.118 C 
HETATM   24  C1  UNL     1      10.486   5.585 -10.190  1.00  0.00     0.026 C 
ENDBRANCH  20  23
ENDBRANCH  15  19
ENDBRANCH   1  14
BRANCH  10  25
HETATM   25  N2  UNL     1      14.056  -0.216  -4.229  1.00  0.00    -0.295 N 
HETATM   26  C18 UNL     1      15.226  -0.883  -3.841  1.00  0.00     0.322 C 
HETATM   27  O3  UNL     1      15.978  -0.404  -2.959  1.00  0.00    -0.247 OA
HETATM   28  N3  UNL     1      15.589  -2.123  -4.438  1.00  0.00    -0.335 N 
ATOM     29  H3  UNL     1      14.975  -2.513  -5.154  1.00  0.00     0.165 HD
ATOM     30  H2  UNL     1      13.178  -0.733  -4.185  1.00  0.00     0.172 HD
BRANCH  28  31
HETATM   31  C19 UNL     1      16.778  -2.858  -4.083  1.00  0.00     0.023 C 
HETATM   32  C20 UNL     1      16.801  -4.163  -4.855  1.00  0.00     0.037 C 
HETATM   33  C21 UNL     1      18.033  -2.072  -4.401  1.00  0.00     0.037 C 
HETATM   34  C22 UNL     1      16.776  -3.201  -2.620  1.00  0.00     0.037 C 
ENDBRANCH  28  31
ENDBRANCH  10  25
TORSDOF 5
ENDMDL
