MODEL 1
REMARK VINA RESULT: -10.017260803      0.000      0.000
REMARK  5 active torsions:
REMARK  status: ('A' for Active; 'I' for Inactive)
REMARK    1  A    between atoms: C3_5  and  C4_6 
REMARK       I    between atoms: C4_6  and  N2_8 
REMARK    2  A    between atoms: N2_8  and  C5_10 
REMARK    3  A    between atoms: C5_10  and  C6_11 
REMARK    4  A    between atoms: C6_11  and  N3_14 
REMARK    5  A    between atoms: C18_29  and  C19_30 
ROOT
HETATM    1  C1  UNL     1      13.701   4.728  -3.944  1.00  0.00     0.070 C 
HETATM    2  C2  UNL     1      13.664   3.772  -5.100  1.00  0.00     0.033 A 
HETATM    3  N1  UNL     1      13.466   4.286  -6.311  1.00  0.00    -0.353 N 
ATOM      4  H1  UNL     1      13.350   5.293  -6.431  1.00  0.00     0.166 HD
HETATM    5  C3  UNL     1      13.421   3.447  -7.400  1.00  0.00     0.107 A 
HETATM    6  C9  UNL     1      13.584   2.094  -7.212  1.00  0.00    -0.020 A 
HETATM    7  C10 UNL     1      13.706   1.245  -8.411  1.00  0.00     0.051 C 
HETATM    8  C11 UNL     1      13.781   1.527  -5.993  1.00  0.00    -0.009 A 
HETATM    9  C12 UNL     1      13.823   2.428  -4.897  1.00  0.00     0.059 A 
HETATM   10  N4  UNL     1      14.078   1.942  -3.590  1.00  0.00    -0.379 N 
ATOM     11  H4  UNL     1      13.622   2.372  -2.786  1.00  0.00     0.160 HD
HETATM   12  C13 UNL     1      15.002   0.819  -3.398  1.00  0.00     0.028 C 
HETATM   13  C14 UNL     1      16.379   1.460  -3.153  1.00  0.00     0.038 C 
HETATM   14  C15 UNL     1      14.625   0.116  -2.160  1.00  0.00     0.038 C 
HETATM   15  C16 UNL     1      15.088   0.070  -4.660  1.00  0.00     0.033 C 
HETATM   16  C17 UNL     1      15.383  -1.363  -4.586  1.00  0.00     0.043 C 
HETATM   17  C18 UNL     1      14.960  -1.814  -5.942  1.00  0.00    -0.074 C 
HETATM   18  C23 UNL     1      14.109  -0.952  -6.475  1.00  0.00    -0.009 C 
HETATM   19  C24 UNL     1      13.868   0.144  -5.574  1.00  0.00     0.010 C 
HETATM   20  C25 UNL     1      12.610  -0.240  -4.742  1.00  0.00     0.025 C 
ENDROOT
BRANCH   5  21
HETATM   21  C4  UNL     1      13.167   4.107  -8.693  1.00  0.00     0.268 C 
HETATM   22  O1  UNL     1      14.176   4.788  -9.133  1.00  0.00    -0.266 OA
HETATM   23  N2  UNL     1      11.985   4.068  -9.438  1.00  0.00    -0.353 N 
ATOM     24  H2  UNL     1      11.176   3.544  -9.104  1.00  0.00     0.162 HD
BRANCH  23  25
HETATM   25  C5  UNL     1      11.935   4.793 -10.704  1.00  0.00     0.160 C 
BRANCH  25  26
HETATM   26  C6  UNL     1      10.888   5.881 -10.667  1.00  0.00     0.132 C 
HETATM   27  C7  UNL     1      10.006   5.677  -9.447  1.00  0.00     0.047 C 
HETATM   28  C8  UNL     1      11.504   7.259 -10.661  1.00  0.00     0.047 C 
BRANCH  26  29
HETATM   29  N3  UNL     1      10.051   5.742 -11.831  1.00  0.00    -0.070 N 
ATOM     30  H33 UNL     1      10.441   5.100 -12.522  1.00  0.00     0.275 HD
ATOM     31  H32 UNL     1       9.191   5.229 -11.637  1.00  0.00     0.275 HD
ATOM     32  H31 UNL     1       9.876   6.671 -12.213  1.00  0.00     0.275 HD
ENDBRANCH  26  29
ENDBRANCH  25  26
ENDBRANCH  23  25
ENDBRANCH   5  21
BRANCH  17  33
HETATM   33  C19 UNL     1      15.442  -3.066  -6.586  1.00  0.00    -0.028 C 
HETATM   34  C20 UNL     1      16.374  -3.822  -5.662  1.00  0.00     0.019 C 
HETATM   35  C21 UNL     1      14.294  -3.907  -7.023  1.00  0.00     0.019 C 
HETATM   36  C22 UNL     1      16.282  -2.680  -7.806  1.00  0.00     0.019 C 
ENDBRANCH  17  33
TORSDOF 5
ENDMDL
MODEL 2
REMARK VINA RESULT: -9.970297478      2.558      7.452
REMARK  5 active torsions:
REMARK  status: ('A' for Active; 'I' for Inactive)
REMARK    1  A    between atoms: C3_5  and  C4_6 
REMARK       I    between atoms: C4_6  and  N2_8 
REMARK    2  A    between atoms: N2_8  and  C5_10 
REMARK    3  A    between atoms: C5_10  and  C6_11 
REMARK    4  A    between atoms: C6_11  and  N3_14 
REMARK    5  A    between atoms: C18_29  and  C19_30 
ROOT
HETATM    1  C1  UNL     1      14.043   6.372  -5.363  1.00  0.00     0.070 C 
HETATM    2  C2  UNL     1      13.850   4.936  -5.753  1.00  0.00     0.033 A 
HETATM    3  N1  UNL     1      14.099   4.013  -4.827  1.00  0.00    -0.353 N 
ATOM      4  H1  UNL     1      14.404   4.289  -3.894  1.00  0.00     0.166 HD
HETATM    5  C3  UNL     1      13.940   2.684  -5.142  1.00  0.00     0.107 A 
HETATM    6  C9  UNL     1      13.523   2.338  -6.406  1.00  0.00    -0.020 A 
HETATM    7  C10 UNL     1      13.194   0.924  -6.657  1.00  0.00     0.051 C 
HETATM    8  C11 UNL     1      13.265   3.247  -7.383  1.00  0.00    -0.009 A 
HETATM    9  C12 UNL     1      13.440   4.607  -7.017  1.00  0.00     0.059 A 
HETATM   10  N4  UNL     1      13.143   5.635  -7.947  1.00  0.00    -0.379 N 
ATOM     11  H4  UNL     1      13.704   6.487  -7.965  1.00  0.00     0.160 HD
HETATM   12  C13 UNL     1      12.027   5.470  -8.884  1.00  0.00     0.028 C 
HETATM   13  C14 UNL     1      10.811   6.103  -8.184  1.00  0.00     0.038 C 
HETATM   14  C15 UNL     1      12.305   6.277 -10.083  1.00  0.00     0.038 C 
HETATM   15  C16 UNL     1      11.750   4.033  -9.024  1.00  0.00     0.033 C 
HETATM   16  C17 UNL     1      11.184   3.567 -10.292  1.00  0.00     0.043 C 
HETATM   17  C18 UNL     1      11.460   2.105 -10.210  1.00  0.00    -0.074 C 
HETATM   18  C23 UNL     1      12.443   1.864  -9.357  1.00  0.00    -0.009 C 
HETATM   19  C24 UNL     1      12.926   3.091  -8.781  1.00  0.00     0.010 C 
HETATM   20  C25 UNL     1      14.115   3.556  -9.672  1.00  0.00     0.025 C 
ENDROOT
BRANCH   5  21
HETATM   21  C4  UNL     1      14.269   1.738  -4.061  1.00  0.00     0.268 C 
HETATM   22  O1  UNL     1      13.248   1.396  -3.343  1.00  0.00    -0.266 OA
HETATM   23  N2  UNL     1      15.530   1.216  -3.758  1.00  0.00    -0.353 N 
ATOM     24  H2  UNL     1      16.349   1.479  -4.306  1.00  0.00     0.162 HD
BRANCH  23  25
HETATM   25  C5  UNL     1      15.647   0.285  -2.639  1.00  0.00     0.160 C 
BRANCH  25  26
HETATM   26  C6  UNL     1      16.805  -0.664  -2.840  1.00  0.00     0.132 C 
HETATM   27  C7  UNL     1      16.713  -1.268  -4.231  1.00  0.00     0.047 C 
HETATM   28  C8  UNL     1      18.135   0.016  -2.636  1.00  0.00     0.047 C 
BRANCH  26  29
HETATM   29  N3  UNL     1      16.674  -1.743  -1.893  1.00  0.00    -0.070 N 
ATOM     30  H33 UNL     1      15.986  -1.546  -1.166  1.00  0.00     0.275 HD
ATOM     31  H32 UNL     1      16.221  -2.564  -2.294  1.00  0.00     0.275 HD
ATOM     32  H31 UNL     1      17.598  -1.949  -1.514  1.00  0.00     0.275 HD
ENDBRANCH  26  29
ENDBRANCH  25  26
ENDBRANCH  23  25
ENDBRANCH   5  21
BRANCH  17  33
HETATM   33  C19 UNL     1      10.720   1.077 -10.992  1.00  0.00    -0.028 C 
HETATM   34  C20 UNL     1       9.323   0.886 -10.441  1.00  0.00     0.019 C 
HETATM   35  C21 UNL     1      10.702   1.430 -12.438  1.00  0.00     0.019 C 
HETATM   36  C22 UNL     1      11.432  -0.265 -10.806  1.00  0.00     0.019 C 
ENDBRANCH  17  33
TORSDOF 5
ENDMDL
MODEL 3
REMARK VINA RESULT: -9.685107475      0.731      1.110
REMARK  5 active torsions:
REMARK  status: ('A' for Active; 'I' for Inactive)
REMARK    1  A    between atoms: C3_5  and  C4_6 
REMARK       I    between atoms: C4_6  and  N2_8 
REMARK    2  A    between atoms: N2_8  and  C5_10 
REMARK    3  A    between atoms: C5_10  and  C6_11 
REMARK    4  A    between atoms: C6_11  and  N3_14 
REMARK    5  A    between atoms: C18_29  and  C19_30 
ROOT
HETATM    1  C1  UNL     1      13.816   4.421  -3.312  1.00  0.00     0.070 C 
HETATM    2  C2  UNL     1      13.749   3.634  -4.587  1.00  0.00     0.033 A 
HETATM    3  N1  UNL     1      13.513   4.308  -5.710  1.00  0.00    -0.353 N 
ATOM      4  H1  UNL     1      13.390   5.321  -5.687  1.00  0.00     0.166 HD
HETATM    5  C3  UNL     1      13.439   3.627  -6.902  1.00  0.00     0.107 A 
HETATM    6  C9  UNL     1      13.614   2.262  -6.908  1.00  0.00    -0.020 A 
HETATM    7  C10 UNL     1      13.704   1.588  -8.215  1.00  0.00     0.051 C 
HETATM    8  C11 UNL     1      13.849   1.535  -5.785  1.00  0.00    -0.009 A 
HETATM    9  C12 UNL     1      13.920   2.276  -4.577  1.00  0.00     0.059 A 
HETATM   10  N4  UNL     1      14.216   1.617  -3.357  1.00  0.00    -0.379 N 
ATOM     11  H4  UNL     1      13.781   1.928  -2.488  1.00  0.00     0.160 HD
HETATM   12  C13 UNL     1      15.149   0.485  -3.348  1.00  0.00     0.028 C 
HETATM   13  C14 UNL     1      16.530   1.099  -3.056  1.00  0.00     0.038 C 
HETATM   14  C15 UNL     1      14.812  -0.385  -2.209  1.00  0.00     0.038 C 
HETATM   15  C16 UNL     1      15.201  -0.081  -4.704  1.00  0.00     0.033 C 
HETATM   16  C17 UNL     1      15.505  -1.508  -4.836  1.00  0.00     0.043 C 
HETATM   17  C18 UNL     1      15.044  -1.772  -6.229  1.00  0.00    -0.074 C 
HETATM   18  C23 UNL     1      14.173  -0.852  -6.613  1.00  0.00    -0.009 C 
HETATM   19  C24 UNL     1      13.954   0.108  -5.563  1.00  0.00     0.010 C 
HETATM   20  C25 UNL     1      12.723  -0.398  -4.756  1.00  0.00     0.025 C 
ENDROOT
BRANCH   5  21
HETATM   21  C4  UNL     1      13.145   4.457  -8.084  1.00  0.00     0.268 C 
HETATM   22  O1  UNL     1      14.184   5.059  -8.566  1.00  0.00    -0.266 OA
HETATM   23  N2  UNL     1      11.898   4.644  -8.688  1.00  0.00    -0.353 N 
ATOM     24  H2  UNL     1      11.065   4.185  -8.319  1.00  0.00     0.162 HD
BRANCH  23  25
HETATM   25  C5  UNL     1      11.816   5.511  -9.860  1.00  0.00     0.160 C 
BRANCH  25  26
HETATM   26  C6  UNL     1      10.422   6.069 -10.028  1.00  0.00     0.132 C 
HETATM   27  C7  UNL     1      10.062   6.878  -8.794  1.00  0.00     0.047 C 
HETATM   28  C8  UNL     1      10.296   6.907 -11.276  1.00  0.00     0.047 C 
BRANCH  26  29
HETATM   29  N3  UNL     1       9.500   4.964 -10.103  1.00  0.00    -0.070 N 
ATOM     30  H33 UNL     1       8.633   5.141  -9.594  1.00  0.00     0.275 HD
ATOM     31  H32 UNL     1       9.094   4.854 -11.032  1.00  0.00     0.275 HD
ATOM     32  H31 UNL     1       9.980   4.124  -9.781  1.00  0.00     0.275 HD
ENDBRANCH  26  29
ENDBRANCH  25  26
ENDBRANCH  23  25
ENDBRANCH   5  21
BRANCH  17  33
HETATM   33  C19 UNL     1      15.512  -2.920  -7.053  1.00  0.00    -0.028 C 
HETATM   34  C20 UNL     1      14.382  -3.473  -7.894  1.00  0.00     0.019 C 
HETATM   35  C21 UNL     1      16.681  -2.525  -7.885  1.00  0.00     0.019 C 
HETATM   36  C22 UNL     1      15.922  -4.049  -6.104  1.00  0.00     0.019 C 
ENDBRANCH  17  33
TORSDOF 5
ENDMDL
MODEL 4
REMARK VINA RESULT: -9.486859267      2.683      7.338
REMARK  5 active torsions:
REMARK  status: ('A' for Active; 'I' for Inactive)
REMARK    1  A    between atoms: C3_5  and  C4_6 
REMARK       I    between atoms: C4_6  and  N2_8 
REMARK    2  A    between atoms: N2_8  and  C5_10 
REMARK    3  A    between atoms: C5_10  and  C6_11 
REMARK    4  A    between atoms: C6_11  and  N3_14 
REMARK    5  A    between atoms: C18_29  and  C19_30 
ROOT
HETATM    1  C1  UNL     1      12.263   8.209  -7.131  1.00  0.00     0.070 C 
HETATM    2  C2  UNL     1      12.638   6.756  -7.165  1.00  0.00     0.033 A 
HETATM    3  N1  UNL     1      13.290   6.268  -6.112  1.00  0.00    -0.353 N 
ATOM      4  H1  UNL     1      13.514   6.872  -5.321  1.00  0.00     0.166 HD
HETATM    5  C3  UNL     1      13.657   4.943  -6.102  1.00  0.00     0.107 A 
HETATM    6  C9  UNL     1      13.339   4.150  -7.180  1.00  0.00    -0.020 A 
HETATM    7  C10 UNL     1      13.588   2.702  -7.063  1.00  0.00     0.051 C 
HETATM    8  C11 UNL     1      12.681   4.608  -8.277  1.00  0.00    -0.009 A 
HETATM    9  C12 UNL     1      12.319   5.980  -8.247  1.00  0.00     0.059 A 
HETATM   10  N4  UNL     1      11.581   6.542  -9.319  1.00  0.00    -0.379 N 
ATOM     11  H4  UNL     1      11.753   7.505  -9.609  1.00  0.00     0.160 HD
HETATM   12  C13 UNL     1      10.570   5.735 -10.010  1.00  0.00     0.028 C 
HETATM   13  C14 UNL     1       9.247   6.029  -9.281  1.00  0.00     0.038 C 
HETATM   14  C15 UNL     1      10.430   6.244 -11.384  1.00  0.00     0.038 C 
HETATM   15  C16 UNL     1      10.883   4.315  -9.790  1.00  0.00     0.033 C 
HETATM   16  C17 UNL     1      10.476   3.359 -10.822  1.00  0.00     0.043 C 
HETATM   17  C18 UNL     1      11.318   2.181 -10.470  1.00  0.00    -0.074 C 
HETATM   18  C23 UNL     1      12.365   2.555  -9.750  1.00  0.00    -0.009 C 
HETATM   19  C24 UNL     1      12.350   3.978  -9.537  1.00  0.00     0.010 C 
HETATM   20  C25 UNL     1      13.199   4.601 -10.684  1.00  0.00     0.025 C 
ENDROOT
BRANCH   5  21
HETATM   21  C4  UNL     1      14.401   4.506  -4.907  1.00  0.00     0.268 C 
HETATM   22  O1  UNL     1      15.365   5.304  -4.577  1.00  0.00    -0.266 OA
HETATM   23  N2  UNL     1      14.167   3.355  -4.148  1.00  0.00    -0.353 N 
ATOM     24  H2  UNL     1      13.418   2.710  -4.396  1.00  0.00     0.162 HD
BRANCH  23  25
HETATM   25  C5  UNL     1      15.021   3.101  -2.992  1.00  0.00     0.160 C 
BRANCH  25  26
HETATM   26  C6  UNL     1      15.356   1.632  -2.875  1.00  0.00     0.132 C 
HETATM   27  C7  UNL     1      14.718   0.887  -4.035  1.00  0.00     0.047 C 
HETATM   28  C8  UNL     1      16.845   1.393  -2.837  1.00  0.00     0.047 C 
BRANCH  26  29
HETATM   29  N3  UNL     1      14.764   1.129  -1.662  1.00  0.00    -0.070 N 
ATOM     30  H33 UNL     1      15.459   0.881  -0.958  1.00  0.00     0.275 HD
ATOM     31  H32 UNL     1      14.282   1.854  -1.130  1.00  0.00     0.275 HD
ATOM     32  H31 UNL     1      14.154   0.347  -1.904  1.00  0.00     0.275 HD
ENDBRANCH  26  29
ENDBRANCH  25  26
ENDBRANCH  23  25
ENDBRANCH   5  21
BRANCH  17  33
HETATM   33  C19 UNL     1      11.006   0.785 -10.883  1.00  0.00    -0.028 C 
HETATM   34  C20 UNL     1      12.054  -0.176 -10.366  1.00  0.00     0.019 C 
HETATM   35  C21 UNL     1       9.637   0.402 -10.443  1.00  0.00     0.019 C 
HETATM   36  C22 UNL     1      11.087   0.714 -12.410  1.00  0.00     0.019 C 
ENDBRANCH  17  33
TORSDOF 5
ENDMDL
MODEL 5
REMARK VINA RESULT: -8.567963329      3.901      9.202
REMARK  5 active torsions:
REMARK  status: ('A' for Active; 'I' for Inactive)
REMARK    1  A    between atoms: C3_5  and  C4_6 
REMARK       I    between atoms: C4_6  and  N2_8 
REMARK    2  A    between atoms: N2_8  and  C5_10 
REMARK    3  A    between atoms: C5_10  and  C6_11 
REMARK    4  A    between atoms: C6_11  and  N3_14 
REMARK    5  A    between atoms: C18_29  and  C19_30 
ROOT
HETATM    1  C1  UNL     1      14.498  -3.821  -8.061  1.00  0.00     0.070 C 
HETATM    2  C2  UNL     1      14.906  -3.039  -6.849  1.00  0.00     0.033 A 
HETATM    3  N1  UNL     1      15.852  -3.564  -6.072  1.00  0.00    -0.353 N 
ATOM      4  H1  UNL     1      16.273  -4.462  -6.310  1.00  0.00     0.166 HD
HETATM    5  C3  UNL     1      16.254  -2.883  -4.947  1.00  0.00     0.107 A 
HETATM    6  C9  UNL     1      15.673  -1.672  -4.651  1.00  0.00    -0.020 A 
HETATM    7  C10 UNL     1      16.247  -0.888  -3.543  1.00  0.00     0.051 C 
HETATM    8  C11 UNL     1      14.701  -1.103  -5.412  1.00  0.00    -0.009 A 
HETATM    9  C12 UNL     1      14.316  -1.837  -6.564  1.00  0.00     0.059 A 
HETATM   10  N4  UNL     1      13.349  -1.304  -7.453  1.00  0.00    -0.379 N 
ATOM     11  H4  UNL     1      12.688  -1.924  -7.922  1.00  0.00     0.160 HD
HETATM   12  C13 UNL     1      13.300   0.141  -7.696  1.00  0.00     0.028 C 
HETATM   13  C14 UNL     1      14.191   0.377  -8.929  1.00  0.00     0.038 C 
HETATM   14  C15 UNL     1      11.926   0.502  -8.080  1.00  0.00     0.038 C 
HETATM   15  C16 UNL     1      13.940   0.822  -6.560  1.00  0.00     0.033 C 
HETATM   16  C17 UNL     1      13.484   2.175  -6.231  1.00  0.00     0.043 C 
HETATM   17  C18 UNL     1      14.010   2.325  -4.845  1.00  0.00    -0.074 C 
HETATM   18  C23 UNL     1      14.234   1.140  -4.300  1.00  0.00    -0.009 C 
HETATM   19  C24 UNL     1      13.900   0.088  -5.223  1.00  0.00     0.010 C 
HETATM   20  C25 UNL     1      12.424  -0.305  -4.925  1.00  0.00     0.025 C 
ENDROOT
BRANCH   5  21
HETATM   21  C4  UNL     1      17.283  -3.560  -4.137  1.00  0.00     0.268 C 
HETATM   22  O1  UNL     1      18.490  -3.354  -4.556  1.00  0.00    -0.266 OA
HETATM   23  N2  UNL     1      17.070  -4.370  -3.018  1.00  0.00    -0.353 N 
ATOM     24  H2  UNL     1      16.126  -4.552  -2.678  1.00  0.00     0.162 HD
BRANCH  23  25
HETATM   25  C5  UNL     1      18.231  -4.951  -2.349  1.00  0.00     0.160 C 
BRANCH  25  26
HETATM   26  C6  UNL     1      18.077  -6.446  -2.193  1.00  0.00     0.132 C 
HETATM   27  C7  UNL     1      16.842  -6.730  -1.356  1.00  0.00     0.047 C 
HETATM   28  C8  UNL     1      17.998  -7.148  -3.525  1.00  0.00     0.047 C 
BRANCH  26  29
HETATM   29  N3  UNL     1      19.215  -6.942  -1.461  1.00  0.00    -0.070 N 
ATOM     30  H33 UNL     1      20.095  -6.536  -1.780  1.00  0.00     0.275 HD
ATOM     31  H32 UNL     1      19.245  -6.599  -0.501  1.00  0.00     0.275 HD
ATOM     32  H31 UNL     1      19.211  -7.961  -1.516  1.00  0.00     0.275 HD
ENDBRANCH  26  29
ENDBRANCH  25  26
ENDBRANCH  23  25
ENDBRANCH   5  21
BRANCH  17  33
HETATM   33  C19 UNL     1      14.242   3.640  -4.185  1.00  0.00    -0.028 C 
HETATM   34  C20 UNL     1      13.129   3.954  -3.208  1.00  0.00     0.019 C 
HETATM   35  C21 UNL     1      15.578   3.670  -3.531  1.00  0.00     0.019 C 
HETATM   36  C22 UNL     1      14.177   4.728  -5.259  1.00  0.00     0.019 C 
ENDBRANCH  17  33
TORSDOF 5
ENDMDL
