MODEL 1
REMARK VINA RESULT: -11.635175905      0.000      0.000
REMARK  6 active torsions:
REMARK  status: ('A' for Active; 'I' for Inactive)
REMARK    1  A    between atoms: C6_6  and  N1_7 
REMARK    2  A    between atoms: N1_7  and  C7_9 
REMARK    3  A    between atoms: C8_12  and  N3_13 
REMARK    4  A    between atoms: N3_13  and  C9_15 
REMARK    5  A    between atoms: C16_24  and  N5_25 
REMARK    6  A    between atoms: N5_25  and  C17_27 
ROOT
HETATM    1  C1  UNL     1      13.701  -0.700  -9.171  1.00  0.00     0.018 C 
HETATM    2  C2  UNL     1      13.303   0.408  -9.359  1.00  0.00    -0.078 C 
HETATM    3  C3  UNL     1      12.835   1.756  -9.574  1.00  0.00     0.017 A 
HETATM    4  C4  UNL     1      11.486   2.055  -9.407  1.00  0.00     0.023 A 
HETATM    5  C5  UNL     1      11.010   3.335  -9.605  1.00  0.00     0.031 A 
HETATM    6  C6  UNL     1      11.851   4.371  -9.978  1.00  0.00     0.049 A 
HETATM    7  C24 UNL     1      13.200   4.058 -10.141  1.00  0.00     0.031 A 
HETATM    8  C25 UNL     1      13.681   2.786  -9.945  1.00  0.00     0.023 A 
ENDROOT
BRANCH   6   9
HETATM    9  N1  UNL     1      11.356   5.669 -10.179  1.00  0.00    -0.191 N 
ATOM     10  H1  UNL     1      10.910   5.917 -11.062  1.00  0.00     0.184 HD
BRANCH   9  11
HETATM   11  C7  UNL     1      11.467   6.540  -9.245  1.00  0.00     0.711 A 
HETATM   12  N2  UNL     1      10.768   7.678  -9.310  1.00  0.00    -0.021 N 
HETATM   13  C8  UNL     1      10.915   8.567  -8.308  1.00  0.00     0.711 A 
ATOM     14  H2  UNL     1      10.142   7.866 -10.093  1.00  0.00     0.203 HD
HETATM   15  N4  UNL     1      11.743   8.312  -7.277  1.00  0.00    -0.021 N 
HETATM   16  C16 UNL     1      12.456   7.167  -7.200  1.00  0.00     0.711 A 
ATOM     17  H4  UNL     1      11.833   9.002  -6.531  1.00  0.00     0.203 HD
HETATM   18  N6  UNL     1      12.305   6.285  -8.200  1.00  0.00    -0.021 N 
ATOM     19  H6  UNL     1      12.825   5.408  -8.177  1.00  0.00     0.203 HD
BRANCH  13  20
HETATM   20  N3  UNL     1      10.259   9.651  -8.350  1.00  0.00    -0.191 N 
ATOM     21  H3  UNL     1       9.781   9.926  -7.492  1.00  0.00     0.184 HD
BRANCH  20  22
HETATM   22  C9  UNL     1      10.120  10.512  -9.446  1.00  0.00     0.049 A 
HETATM   23  C10 UNL     1      11.160  10.609 -10.348  1.00  0.00     0.030 A 
HETATM   24  C11 UNL     1      11.108  11.431 -11.456  1.00  0.00     0.009 A 
HETATM   25  C12 UNL     1       9.989  12.202 -11.707  1.00  0.00    -0.062 A 
HETATM   26  C13 UNL     1       9.896  13.098 -12.890  1.00  0.00     0.048 C 
HETATM   27  C14 UNL     1       8.948  12.106 -10.808  1.00  0.00     0.009 A 
HETATM   28  C15 UNL     1       8.998  11.286  -9.699  1.00  0.00     0.030 A 
ENDBRANCH  20  22
ENDBRANCH  13  20
BRANCH  16  29
HETATM   29  N5  UNL     1      13.254   6.892  -6.234  1.00  0.00    -0.191 N 
ATOM     30  H5  UNL     1      13.741   7.680  -5.807  1.00  0.00     0.184 HD
BRANCH  29  31
HETATM   31  C17 UNL     1      13.528   5.626  -5.702  1.00  0.00     0.049 A 
HETATM   32  C18 UNL     1      13.735   5.472  -4.346  1.00  0.00     0.030 A 
HETATM   33  C19 UNL     1      14.009   4.233  -3.787  1.00  0.00     0.009 A 
HETATM   34  C20 UNL     1      14.080   3.111  -4.590  1.00  0.00    -0.062 A 
HETATM   35  C21 UNL     1      14.378   1.798  -3.955  1.00  0.00     0.048 C 
HETATM   36  C22 UNL     1      13.876   3.246  -5.947  1.00  0.00     0.009 A 
HETATM   37  C23 UNL     1      13.606   4.490  -6.479  1.00  0.00     0.030 A 
ENDBRANCH  29  31
ENDBRANCH  16  29
ENDBRANCH   9  11
ENDBRANCH   6   9
TORSDOF 6
ENDMDL
MODEL 2
REMARK VINA RESULT: -11.589377060      0.996      1.219
REMARK  6 active torsions:
REMARK  status: ('A' for Active; 'I' for Inactive)
REMARK    1  A    between atoms: C6_6  and  N1_7 
REMARK    2  A    between atoms: N1_7  and  C7_9 
REMARK    3  A    between atoms: C8_12  and  N3_13 
REMARK    4  A    between atoms: N3_13  and  C9_15 
REMARK    5  A    between atoms: C16_24  and  N5_25 
REMARK    6  A    between atoms: N5_25  and  C17_27 
ROOT
HETATM    1  C1  UNL     1      13.986  -1.072  -8.689  1.00  0.00     0.018 C 
HETATM    2  C2  UNL     1      13.511  -0.025  -9.005  1.00  0.00    -0.078 C 
HETATM    3  C3  UNL     1      12.948   1.251  -9.375  1.00  0.00     0.017 A 
HETATM    4  C4  UNL     1      11.583   1.477  -9.221  1.00  0.00     0.023 A 
HETATM    5  C5  UNL     1      11.018   2.687  -9.566  1.00  0.00     0.031 A 
HETATM    6  C6  UNL     1      11.781   3.723 -10.079  1.00  0.00     0.049 A 
HETATM    7  C24 UNL     1      13.147   3.484 -10.228  1.00  0.00     0.031 A 
HETATM    8  C25 UNL     1      13.717   2.281  -9.886  1.00  0.00     0.023 A 
ENDROOT
BRANCH   6   9
HETATM    9  N1  UNL     1      11.195   4.949 -10.429  1.00  0.00    -0.191 N 
ATOM     10  H1  UNL     1      10.430   4.978 -11.104  1.00  0.00     0.184 HD
BRANCH   9  11
HETATM   11  C7  UNL     1      11.627   6.032  -9.896  1.00  0.00     0.711 A 
HETATM   12  N2  UNL     1      11.660   7.159 -10.614  1.00  0.00    -0.021 N 
HETATM   13  C8  UNL     1      12.121   8.275 -10.015  1.00  0.00     0.711 A 
ATOM     14  H2  UNL     1      11.345   7.175 -11.584  1.00  0.00     0.203 HD
HETATM   15  N4  UNL     1      12.534   8.248  -8.733  1.00  0.00    -0.021 N 
HETATM   16  C16 UNL     1      12.507   7.115  -7.998  1.00  0.00     0.711 A 
ATOM     17  H4  UNL     1      12.877   9.108  -8.305  1.00  0.00     0.203 HD
HETATM   18  N6  UNL     1      12.046   6.008  -8.599  1.00  0.00    -0.021 N 
ATOM     19  H6  UNL     1      12.008   5.133  -8.077  1.00  0.00     0.203 HD
BRANCH  13  20
HETATM   20  N3  UNL     1      12.159   9.355 -10.678  1.00  0.00    -0.191 N 
ATOM     21  H3  UNL     1      13.021   9.543 -11.191  1.00  0.00     0.184 HD
BRANCH  20  22
HETATM   22  C9  UNL     1      11.147  10.318 -10.781  1.00  0.00     0.049 A 
HETATM   23  C10 UNL     1      10.739  10.717 -12.038  1.00  0.00     0.030 A 
HETATM   24  C11 UNL     1       9.749  11.658 -12.232  1.00  0.00     0.009 A 
HETATM   25  C12 UNL     1       9.117  12.248 -11.154  1.00  0.00    -0.062 A 
HETATM   26  C13 UNL     1       8.047  13.265 -11.324  1.00  0.00     0.048 C 
HETATM   27  C14 UNL     1       9.523  11.852  -9.897  1.00  0.00     0.009 A 
HETATM   28  C15 UNL     1      10.514  10.910  -9.700  1.00  0.00     0.030 A 
ENDBRANCH  20  22
ENDBRANCH  13  20
BRANCH  16  29
HETATM   29  N5  UNL     1      12.895   7.053  -6.777  1.00  0.00    -0.191 N 
ATOM     30  H5  UNL     1      12.894   7.929  -6.253  1.00  0.00     0.184 HD
BRANCH  29  31
HETATM   31  C17 UNL     1      13.319   5.912  -6.085  1.00  0.00     0.049 A 
HETATM   32  C18 UNL     1      13.614   5.985  -4.738  1.00  0.00     0.030 A 
HETATM   33  C19 UNL     1      14.038   4.875  -4.023  1.00  0.00     0.009 A 
HETATM   34  C20 UNL     1      14.173   3.655  -4.656  1.00  0.00    -0.062 A 
HETATM   35  C21 UNL     1      14.630   2.485  -3.857  1.00  0.00     0.048 C 
HETATM   36  C22 UNL     1      13.882   3.562  -6.000  1.00  0.00     0.009 A 
HETATM   37  C23 UNL     1      13.463   4.682  -6.689  1.00  0.00     0.030 A 
ENDBRANCH  29  31
ENDBRANCH  16  29
ENDBRANCH   9  11
ENDBRANCH   6   9
TORSDOF 6
ENDMDL
MODEL 3
REMARK VINA RESULT: -11.556995461      0.149      7.414
REMARK  6 active torsions:
REMARK  status: ('A' for Active; 'I' for Inactive)
REMARK    1  A    between atoms: C6_6  and  N1_7 
REMARK    2  A    between atoms: N1_7  and  C7_9 
REMARK    3  A    between atoms: C8_12  and  N3_13 
REMARK    4  A    between atoms: N3_13  and  C9_15 
REMARK    5  A    between atoms: C16_24  and  N5_25 
REMARK    6  A    between atoms: N5_25  and  C17_27 
ROOT
HETATM    1  C1  UNL     1      13.696  -0.827  -9.209  1.00  0.00     0.018 C 
HETATM    2  C2  UNL     1      13.305   0.285  -9.383  1.00  0.00    -0.078 C 
HETATM    3  C3  UNL     1      12.843   1.639  -9.579  1.00  0.00     0.017 A 
HETATM    4  C4  UNL     1      11.494   1.940  -9.420  1.00  0.00     0.023 A 
HETATM    5  C5  UNL     1      11.024   3.224  -9.601  1.00  0.00     0.031 A 
HETATM    6  C6  UNL     1      11.871   4.263  -9.948  1.00  0.00     0.049 A 
HETATM    7  C24 UNL     1      13.221   3.948 -10.105  1.00  0.00     0.031 A 
HETATM    8  C25 UNL     1      13.696   2.671  -9.926  1.00  0.00     0.023 A 
ENDROOT
BRANCH   6   9
HETATM    9  N1  UNL     1      11.383   5.566 -10.132  1.00  0.00    -0.191 N 
ATOM     10  H1  UNL     1      10.927   5.824 -11.008  1.00  0.00     0.184 HD
BRANCH   9  11
HETATM   11  C7  UNL     1      11.512   6.429  -9.194  1.00  0.00     0.711 A 
HETATM   12  N2  UNL     1      12.342   6.184  -8.174  1.00  0.00    -0.021 N 
HETATM   13  C8  UNL     1      12.448   7.118  -7.208  1.00  0.00     0.711 A 
ATOM     14  H2  UNL     1      12.878   5.317  -8.129  1.00  0.00     0.203 HD
HETATM   15  N4  UNL     1      11.737   8.261  -7.275  1.00  0.00    -0.021 N 
HETATM   16  C16 UNL     1      10.895   8.520  -8.299  1.00  0.00     0.711 A 
ATOM     17  H4  UNL     1      11.838   8.951  -6.531  1.00  0.00     0.203 HD
HETATM   18  N6  UNL     1      10.794   7.586  -9.258  1.00  0.00    -0.021 N 
ATOM     19  H6  UNL     1      10.170   7.746 -10.048  1.00  0.00     0.203 HD
BRANCH  13  20
HETATM   20  N3  UNL     1      13.230   6.906  -6.234  1.00  0.00    -0.191 N 
ATOM     21  H3  UNL     1      13.688   7.724  -5.833  1.00  0.00     0.184 HD
BRANCH  20  22
HETATM   22  C9  UNL     1      13.534   5.670  -5.649  1.00  0.00     0.049 A 
HETATM   23  C10 UNL     1      13.677   5.604  -4.277  1.00  0.00     0.030 A 
HETATM   24  C11 UNL     1      13.974   4.429  -3.618  1.00  0.00     0.009 A 
HETATM   25  C12 UNL     1      14.142   3.251  -4.321  1.00  0.00    -0.062 A 
HETATM   26  C13 UNL     1      14.462   1.966  -3.645  1.00  0.00     0.048 C 
HETATM   27  C14 UNL     1      13.999   3.314  -5.691  1.00  0.00     0.009 A 
HETATM   28  C15 UNL     1      13.702   4.488  -6.353  1.00  0.00     0.030 A 
ENDBRANCH  20  22
ENDBRANCH  13  20
BRANCH  16  29
HETATM   29  N5  UNL     1      10.202   9.596  -8.392  1.00  0.00    -0.191 N 
ATOM     30  H5  UNL     1       9.643   9.850  -7.578  1.00  0.00     0.184 HD
BRANCH  29  31
HETATM   31  C17 UNL     1      10.133  10.459  -9.492  1.00  0.00     0.049 A 
HETATM   32  C18 UNL     1       9.045  11.293  -9.654  1.00  0.00     0.030 A 
HETATM   33  C19 UNL     1       8.943  12.159 -10.732  1.00  0.00     0.009 A 
HETATM   34  C20 UNL     1       9.947  12.204 -11.680  1.00  0.00    -0.062 A 
HETATM   35  C21 UNL     1       9.804  13.146 -12.825  1.00  0.00     0.048 C 
HETATM   36  C22 UNL     1      11.041  11.378 -11.536  1.00  0.00     0.009 A 
HETATM   37  C23 UNL     1      11.118  10.525 -10.454  1.00  0.00     0.030 A 
ENDBRANCH  29  31
ENDBRANCH  16  29
ENDBRANCH   9  11
ENDBRANCH   6   9
TORSDOF 6
ENDMDL
MODEL 4
REMARK VINA RESULT: -11.475331542      1.091      7.837
REMARK  6 active torsions:
REMARK  status: ('A' for Active; 'I' for Inactive)
REMARK    1  A    between atoms: C6_6  and  N1_7 
REMARK    2  A    between atoms: N1_7  and  C7_9 
REMARK    3  A    between atoms: C8_12  and  N3_13 
REMARK    4  A    between atoms: N3_13  and  C9_15 
REMARK    5  A    between atoms: C16_24  and  N5_25 
REMARK    6  A    between atoms: N5_25  and  C17_27 
ROOT
HETATM    1  C1  UNL     1      15.202   1.265  -3.058  1.00  0.00     0.018 C 
HETATM    2  C2  UNL     1      14.812   2.233  -3.635  1.00  0.00    -0.078 C 
HETATM    3  C3  UNL     1      14.355   3.403  -4.346  1.00  0.00     0.017 A 
HETATM    4  C4  UNL     1      14.193   4.607  -3.666  1.00  0.00     0.023 A 
HETATM    5  C5  UNL     1      13.758   5.741  -4.319  1.00  0.00     0.031 A 
HETATM    6  C6  UNL     1      13.465   5.729  -5.673  1.00  0.00     0.049 A 
HETATM    7  C24 UNL     1      13.631   4.517  -6.342  1.00  0.00     0.031 A 
HETATM    8  C25 UNL     1      14.065   3.384  -5.698  1.00  0.00     0.023 A 
ENDROOT
BRANCH   6   9
HETATM    9  N1  UNL     1      13.021   6.889  -6.328  1.00  0.00    -0.191 N 
ATOM     10  H1  UNL     1      13.060   7.792  -5.855  1.00  0.00     0.184 HD
BRANCH   9  11
HETATM   11  C7  UNL     1      12.565   6.806  -7.523  1.00  0.00     0.711 A 
HETATM   12  N2  UNL     1      11.978   5.677  -7.935  1.00  0.00    -0.021 N 
HETATM   13  C8  UNL     1      11.514   5.632  -9.199  1.00  0.00     0.711 A 
ATOM     14  H2  UNL     1      11.885   4.875  -7.311  1.00  0.00     0.203 HD
HETATM   15  N4  UNL     1      11.640   6.695 -10.017  1.00  0.00    -0.021 N 
HETATM   16  C16 UNL     1      12.232   7.840  -9.614  1.00  0.00     0.711 A 
ATOM     17  H4  UNL     1      11.278   6.634 -10.969  1.00  0.00     0.203 HD
HETATM   18  N6  UNL     1      12.692   7.879  -8.354  1.00  0.00    -0.021 N 
ATOM     19  H6  UNL     1      13.143   8.727  -8.011  1.00  0.00     0.203 HD
BRANCH  13  20
HETATM   20  N3  UNL     1      10.953   4.572  -9.608  1.00  0.00    -0.191 N 
ATOM     21  H3  UNL     1      10.000   4.669  -9.960  1.00  0.00     0.184 HD
BRANCH  20  22
HETATM   22  C9  UNL     1      11.499   3.281  -9.630  1.00  0.00     0.049 A 
HETATM   23  C10 UNL     1      12.872   3.144  -9.628  1.00  0.00     0.030 A 
HETATM   24  C11 UNL     1      13.494   1.912  -9.647  1.00  0.00     0.009 A 
HETATM   25  C12 UNL     1      12.749   0.748  -9.669  1.00  0.00    -0.062 A 
HETATM   26  C13 UNL     1      13.384  -0.596  -9.689  1.00  0.00     0.048 C 
HETATM   27  C14 UNL     1      11.377   0.883  -9.670  1.00  0.00     0.009 A 
HETATM   28  C15 UNL     1      10.752   2.114  -9.651  1.00  0.00     0.030 A 
ENDBRANCH  20  22
ENDBRANCH  13  20
BRANCH  16  29
HETATM   29  N5  UNL     1      12.371   8.870 -10.367  1.00  0.00    -0.191 N 
ATOM     30  H5  UNL     1      13.271   8.974 -10.835  1.00  0.00     0.184 HD
BRANCH  29  31
HETATM   31  C17 UNL     1      11.418   9.866 -10.615  1.00  0.00     0.049 A 
HETATM   32  C18 UNL     1      10.901  10.607  -9.572  1.00  0.00     0.030 A 
HETATM   33  C19 UNL     1       9.956  11.601  -9.782  1.00  0.00     0.009 A 
HETATM   34  C20 UNL     1       9.508  11.870 -11.061  1.00  0.00    -0.062 A 
HETATM   35  C21 UNL     1       8.492  12.942 -11.248  1.00  0.00     0.048 C 
HETATM   36  C22 UNL     1      10.013  11.139 -12.115  1.00  0.00     0.009 A 
HETATM   37  C23 UNL     1      10.952  10.156 -11.879  1.00  0.00     0.030 A 
ENDBRANCH  29  31
ENDBRANCH  16  29
ENDBRANCH   9  11
ENDBRANCH   6   9
TORSDOF 6
ENDMDL
MODEL 5
REMARK VINA RESULT: -11.468516646      1.063      7.399
REMARK  6 active torsions:
REMARK  status: ('A' for Active; 'I' for Inactive)
REMARK    1  A    between atoms: C6_6  and  N1_7 
REMARK    2  A    between atoms: N1_7  and  C7_9 
REMARK    3  A    between atoms: C8_12  and  N3_13 
REMARK    4  A    between atoms: N3_13  and  C9_15 
REMARK    5  A    between atoms: C16_24  and  N5_25 
REMARK    6  A    between atoms: N5_25  and  C17_27 
ROOT
HETATM    1  C1  UNL     1      14.022  -1.258  -8.708  1.00  0.00     0.018 C 
HETATM    2  C2  UNL     1      13.515  -0.212  -8.973  1.00  0.00    -0.078 C 
HETATM    3  C3  UNL     1      12.891   1.046  -9.308  1.00  0.00     0.017 A 
HETATM    4  C4  UNL     1      13.679   2.139  -9.656  1.00  0.00     0.023 A 
HETATM    5  C5  UNL     1      13.110   3.353  -9.981  1.00  0.00     0.031 A 
HETATM    6  C6  UNL     1      11.737   3.535  -9.973  1.00  0.00     0.049 A 
HETATM    7  C24 UNL     1      10.959   2.432  -9.622  1.00  0.00     0.031 A 
HETATM    8  C25 UNL     1      11.518   1.220  -9.298  1.00  0.00     0.023 A 
ENDROOT
BRANCH   6   9
HETATM    9  N1  UNL     1      11.169   4.775 -10.303  1.00  0.00    -0.191 N 
ATOM     10  H1  UNL     1      10.397   4.825 -10.969  1.00  0.00     0.184 HD
BRANCH   9  11
HETATM   11  C7  UNL     1      11.625   5.844  -9.763  1.00  0.00     0.711 A 
HETATM   12  N2  UNL     1      12.031   5.825  -8.489  1.00  0.00    -0.021 N 
HETATM   13  C8  UNL     1      12.504   6.971  -7.960  1.00  0.00     0.711 A 
ATOM     14  H2  UNL     1      11.986   4.969  -7.935  1.00  0.00     0.203 HD
HETATM   15  N4  UNL     1      12.562   8.097  -8.697  1.00  0.00    -0.021 N 
HETATM   16  C16 UNL     1      12.154   8.130  -9.984  1.00  0.00     0.711 A 
ATOM     17  H4  UNL     1      12.926   8.950  -8.272  1.00  0.00     0.203 HD
HETATM   18  N6  UNL     1      11.685   6.985 -10.506  1.00  0.00    -0.021 N 
ATOM     19  H6  UNL     1      11.369   6.969 -11.475  1.00  0.00     0.203 HD
BRANCH  13  20
HETATM   20  N3  UNL     1      12.895   6.973  -6.755  1.00  0.00    -0.191 N 
ATOM     21  H3  UNL     1      12.868   7.871  -6.270  1.00  0.00     0.184 HD
BRANCH  20  22
HETATM   22  C9  UNL     1      13.363   5.878  -6.016  1.00  0.00     0.049 A 
HETATM   23  C10 UNL     1      13.648   6.056  -4.678  1.00  0.00     0.030 A 
HETATM   24  C11 UNL     1      14.111   5.033  -3.876  1.00  0.00     0.009 A 
HETATM   25  C12 UNL     1      14.311   3.767  -4.395  1.00  0.00    -0.062 A 
HETATM   26  C13 UNL     1      14.808   2.641  -3.561  1.00  0.00     0.048 C 
HETATM   27  C14 UNL     1      14.026   3.587  -5.732  1.00  0.00     0.009 A 
HETATM   28  C15 UNL     1      13.563   4.609  -6.536  1.00  0.00     0.030 A 
ENDBRANCH  20  22
ENDBRANCH  13  20
BRANCH  16  29
HETATM   29  N5  UNL     1      12.194   9.184 -10.714  1.00  0.00    -0.191 N 
ATOM     30  H5  UNL     1      13.036   9.320 -11.273  1.00  0.00     0.184 HD
BRANCH  29  31
HETATM   31  C17 UNL     1      11.204  10.169 -10.825  1.00  0.00     0.049 A 
HETATM   32  C18 UNL     1      10.747  10.558 -12.068  1.00  0.00     0.030 A 
HETATM   33  C19 UNL     1       9.769  11.530 -12.214  1.00  0.00     0.009 A 
HETATM   34  C20 UNL     1       9.225  12.137 -11.099  1.00  0.00    -0.062 A 
HETATM   35  C21 UNL     1       8.177  13.177 -11.294  1.00  0.00     0.048 C 
HETATM   36  C22 UNL     1       9.668  11.761  -9.849  1.00  0.00     0.009 A 
HETATM   37  C23 UNL     1      10.643  10.791  -9.731  1.00  0.00     0.030 A 
ENDBRANCH  29  31
ENDBRANCH  16  29
ENDBRANCH   9  11
ENDBRANCH   6   9
TORSDOF 6
ENDMDL
