MODEL 1
REMARK VINA RESULT: -11.969073628      0.000      0.000
REMARK  2 active torsions:
REMARK  status: ('A' for Active; 'I' for Inactive)
REMARK    1  A    between atoms: C6_9  and  C7_10 
REMARK    2  A    between atoms: C10_13  and  C11_14 
ROOT
HETATM    1  O1  UNL     1      13.325  -1.089 -10.254  1.00  0.00    -0.268 OA
HETATM    2  C1  UNL     1      12.841   0.068 -10.159  1.00  0.00     0.249 A 
HETATM    3  C2  UNL     1      13.292   1.061  -9.202  1.00  0.00     0.107 A 
HETATM    4  C3  UNL     1      12.578   2.182  -9.355  1.00  0.00     0.082 A 
HETATM    5  N1  UNL     1      12.781   3.332  -8.581  1.00  0.00    -0.352 N 
ATOM      6  H1  UNL     1      13.478   3.199  -7.849  1.00  0.00     0.166 HD
HETATM    7  C4  UNL     1      12.278   4.531  -8.589  1.00  0.00     0.047 C 
HETATM    8  C5  UNL     1      12.774   5.457  -7.603  1.00  0.00     0.031 A 
HETATM    9  C6  UNL     1      12.551   6.787  -7.398  1.00  0.00     0.056 A 
HETATM   10  N4  UNL     1      12.977   7.163  -6.138  1.00  0.00    -0.354 N 
ATOM     11  H4  UNL     1      12.915   8.100  -5.740  1.00  0.00     0.166 HD
HETATM   12  C16 UNL     1      13.483   6.093  -5.535  1.00  0.00     0.043 A 
HETATM   13  C17 UNL     1      14.037   5.991  -4.261  1.00  0.00     0.030 A 
HETATM   14  C18 UNL     1      14.509   4.780  -3.832  1.00  0.00     0.002 A 
HETATM   15  C19 UNL     1      14.422   3.702  -4.666  1.00  0.00     0.001 A 
HETATM   16  C20 UNL     1      13.854   3.831  -5.956  1.00  0.00     0.014 A 
HETATM   17  C21 UNL     1      13.382   5.031  -6.393  1.00  0.00     0.005 A 
HETATM   18  C22 UNL     1      11.111   4.859  -9.388  1.00  0.00     0.047 C 
HETATM   19  C23 UNL     1      10.469   4.130 -10.332  1.00  0.00     0.092 C 
HETATM   20  N5  UNL     1      10.722   2.832 -10.832  1.00  0.00    -0.350 N 
ATOM     21  H5  UNL     1      10.130   2.525 -11.604  1.00  0.00     0.166 HD
HETATM   22  C24 UNL     1      11.616   1.983 -10.428  1.00  0.00     0.135 A 
HETATM   23  N6  UNL     1      11.799   0.669 -10.909  1.00  0.00    -0.308 N 
ATOM     24  H6  UNL     1      11.273   0.228 -11.664  1.00  0.00     0.170 HD
ENDROOT
BRANCH   9  25
HETATM   25  C7  UNL     1      12.041   7.816  -8.284  1.00  0.00    -0.008 A 
HETATM   26  C8  UNL     1      12.551   8.102  -9.516  1.00  0.00     0.014 A 
HETATM   27  C9  UNL     1      12.011   9.081 -10.352  1.00  0.00     0.013 A 
HETATM   28  C10 UNL     1      10.919   9.793  -9.925  1.00  0.00    -0.023 A 
HETATM   29  C14 UNL     1      10.370   9.545  -8.693  1.00  0.00     0.013 A 
HETATM   30  C15 UNL     1      10.929   8.574  -7.899  1.00  0.00     0.014 A 
BRANCH  28  31
HETATM   31  C11 UNL     1      10.336  10.813 -10.768  1.00  0.00     0.008 A 
HETATM   32  C12 UNL     1       9.558  11.888 -10.404  1.00  0.00     0.120 A 
HETATM   33  N2  UNL     1       9.258  12.546 -11.526  1.00  0.00    -0.311 N 
HETATM   34  N3  UNL     1       9.807  11.933 -12.542  1.00  0.00    -0.311 N 
ATOM     35  H2  UNL     1       8.690  13.392 -11.582  1.00  0.00     0.186 HD
HETATM   36  C13 UNL     1      10.488  10.854 -12.139  1.00  0.00     0.120 A 
ATOM     37  H3  UNL     1       9.728  12.237 -13.513  1.00  0.00     0.186 HD
ENDBRANCH  28  31
ENDBRANCH   9  25
TORSDOF 2
ENDMDL
MODEL 2
REMARK VINA RESULT: -11.668629571      0.133      1.078
REMARK  2 active torsions:
REMARK  status: ('A' for Active; 'I' for Inactive)
REMARK    1  A    between atoms: C6_9  and  C7_10 
REMARK    2  A    between atoms: C10_13  and  C11_14 
ROOT
HETATM    1  O1  UNL     1      13.383  -1.053 -10.250  1.00  0.00    -0.268 OA
HETATM    2  C1  UNL     1      12.869   0.090 -10.148  1.00  0.00     0.249 A 
HETATM    3  C2  UNL     1      13.317   1.101  -9.208  1.00  0.00     0.107 A 
HETATM    4  C3  UNL     1      12.567   2.201  -9.347  1.00  0.00     0.082 A 
HETATM    5  N1  UNL     1      12.757   3.360  -8.584  1.00  0.00    -0.352 N 
ATOM      6  H1  UNL     1      13.477   3.251  -7.869  1.00  0.00     0.166 HD
HETATM    7  C4  UNL     1      12.220   4.544  -8.583  1.00  0.00     0.047 C 
HETATM    8  C5  UNL     1      12.715   5.489  -7.616  1.00  0.00     0.031 A 
HETATM    9  C6  UNL     1      12.460   6.813  -7.411  1.00  0.00     0.056 A 
HETATM   10  N4  UNL     1      12.908   7.208  -6.163  1.00  0.00    -0.354 N 
ATOM     11  H4  UNL     1      12.829   8.145  -5.768  1.00  0.00     0.166 HD
HETATM   12  C16 UNL     1      13.460   6.156  -5.570  1.00  0.00     0.043 A 
HETATM   13  C17 UNL     1      14.050   6.076  -4.310  1.00  0.00     0.030 A 
HETATM   14  C18 UNL     1      14.568   4.881  -3.889  1.00  0.00     0.002 A 
HETATM   15  C19 UNL     1      14.489   3.797  -4.715  1.00  0.00     0.001 A 
HETATM   16  C20 UNL     1      13.884   3.903  -5.990  1.00  0.00     0.014 A 
HETATM   17  C21 UNL     1      13.367   5.087  -6.420  1.00  0.00     0.005 A 
HETATM   18  C22 UNL     1      11.024   4.834  -9.353  1.00  0.00     0.047 C 
HETATM   19  C23 UNL     1      10.378   4.083 -10.276  1.00  0.00     0.092 C 
HETATM   20  N5  UNL     1      10.654   2.790 -10.777  1.00  0.00    -0.350 N 
ATOM     21  H5  UNL     1      10.052   2.462 -11.532  1.00  0.00     0.166 HD
HETATM   22  C24 UNL     1      11.583   1.968 -10.393  1.00  0.00     0.135 A 
HETATM   23  N6  UNL     1      11.791   0.658 -10.873  1.00  0.00    -0.308 N 
ATOM     24  H6  UNL     1      11.258   0.198 -11.611  1.00  0.00     0.170 HD
ENDROOT
BRANCH   9  25
HETATM   25  C7  UNL     1      11.897   7.823  -8.287  1.00  0.00    -0.008 A 
HETATM   26  C8  UNL     1      10.822   8.604  -7.981  1.00  0.00     0.014 A 
HETATM   27  C9  UNL     1      10.330   9.588  -8.841  1.00  0.00     0.013 A 
HETATM   28  C10 UNL     1      10.948   9.785 -10.050  1.00  0.00    -0.023 A 
HETATM   29  C14 UNL     1      12.032   9.025 -10.405  1.00  0.00     0.013 A 
HETATM   30  C15 UNL     1      12.488   8.067  -9.532  1.00  0.00     0.014 A 
BRANCH  28  31
HETATM   31  C11 UNL     1      10.463  10.797 -10.962  1.00  0.00     0.008 A 
HETATM   32  C12 UNL     1      10.702  10.924 -12.311  1.00  0.00     0.120 A 
HETATM   33  N2  UNL     1      10.043  12.010 -12.720  1.00  0.00    -0.311 N 
HETATM   34  N3  UNL     1       9.423  12.545 -11.700  1.00  0.00    -0.311 N 
ATOM     35  H2  UNL     1      10.025  12.367 -13.676  1.00  0.00     0.186 HD
HETATM   36  C13 UNL     1       9.643  11.841 -10.584  1.00  0.00     0.120 A 
ATOM     37  H3  UNL     1       8.847  13.386 -11.749  1.00  0.00     0.186 HD
ENDBRANCH  28  31
ENDBRANCH   9  25
TORSDOF 2
ENDMDL
MODEL 3
REMARK VINA RESULT: -11.287569919      2.348      5.131
REMARK  2 active torsions:
REMARK  status: ('A' for Active; 'I' for Inactive)
REMARK    1  A    between atoms: C6_9  and  C7_10 
REMARK    2  A    between atoms: C10_13  and  C11_14 
ROOT
HETATM    1  O1  UNL     1      14.966   1.183  -1.920  1.00  0.00    -0.268 OA
HETATM    2  C1  UNL     1      14.749   2.023  -2.830  1.00  0.00     0.249 A 
HETATM    3  C2  UNL     1      14.170   1.694  -4.119  1.00  0.00     0.107 A 
HETATM    4  C3  UNL     1      14.072   2.804  -4.860  1.00  0.00     0.082 A 
HETATM    5  N1  UNL     1      13.543   2.816  -6.157  1.00  0.00    -0.352 N 
ATOM      6  H1  UNL     1      13.308   1.884  -6.498  1.00  0.00     0.166 HD
HETATM    7  C4  UNL     1      13.286   3.751  -7.022  1.00  0.00     0.047 C 
HETATM    8  C5  UNL     1      12.718   3.342  -8.281  1.00  0.00     0.031 A 
HETATM    9  C6  UNL     1      12.240   4.048  -9.346  1.00  0.00     0.056 A 
HETATM   10  N4  UNL     1      12.111   3.230 -10.454  1.00  0.00    -0.354 N 
ATOM     11  H4  UNL     1      11.783   3.518 -11.376  1.00  0.00     0.166 HD
HETATM   12  C16 UNL     1      12.488   2.004 -10.109  1.00  0.00     0.043 A 
HETATM   13  C17 UNL     1      12.522   0.851 -10.891  1.00  0.00     0.030 A 
HETATM   14  C18 UNL     1      12.947  -0.324 -10.330  1.00  0.00     0.002 A 
HETATM   15  C19 UNL     1      13.327  -0.333  -9.020  1.00  0.00     0.001 A 
HETATM   16  C20 UNL     1      13.284   0.852  -8.247  1.00  0.00     0.014 A 
HETATM   17  C21 UNL     1      12.864   2.026  -8.794  1.00  0.00     0.005 A 
HETATM   18  C22 UNL     1      13.760   5.111  -6.834  1.00  0.00     0.047 C 
HETATM   19  C23 UNL     1      14.348   5.687  -5.759  1.00  0.00     0.092 C 
HETATM   20  N5  UNL     1      14.691   5.156  -4.494  1.00  0.00    -0.350 N 
ATOM     21  H5  UNL     1      15.068   5.818  -3.817  1.00  0.00     0.166 HD
HETATM   22  C24 UNL     1      14.583   3.927  -4.090  1.00  0.00     0.135 A 
HETATM   23  N6  UNL     1      14.994   3.420  -2.839  1.00  0.00    -0.308 N 
ATOM     24  H6  UNL     1      15.398   3.962  -2.076  1.00  0.00     0.170 HD
ENDROOT
BRANCH   9  25
HETATM   25  C7  UNL     1      11.797   5.425  -9.457  1.00  0.00    -0.008 A 
HETATM   26  C8  UNL     1      10.699   5.938  -8.831  1.00  0.00     0.014 A 
HETATM   27  C9  UNL     1      10.323   7.279  -8.938  1.00  0.00     0.013 A 
HETATM   28  C10 UNL     1      11.085   8.124  -9.705  1.00  0.00    -0.023 A 
HETATM   29  C14 UNL     1      12.196   7.656 -10.356  1.00  0.00     0.013 A 
HETATM   30  C15 UNL     1      12.535   6.331 -10.226  1.00  0.00     0.014 A 
BRANCH  28  31
HETATM   31  C11 UNL     1      10.722   9.518  -9.835  1.00  0.00     0.008 A 
HETATM   32  C12 UNL     1       9.875  10.264  -9.047  1.00  0.00     0.120 A 
HETATM   33  N2  UNL     1       9.855  11.497  -9.558  1.00  0.00    -0.311 N 
HETATM   34  N3  UNL     1      10.637  11.538 -10.607  1.00  0.00    -0.311 N 
ATOM     35  H2  UNL     1       9.317  12.281  -9.191  1.00  0.00     0.186 HD
HETATM   36  C13 UNL     1      11.202  10.346 -10.830  1.00  0.00     0.120 A 
ATOM     37  H3  UNL     1      10.795  12.369 -11.177  1.00  0.00     0.186 HD
ENDBRANCH  28  31
ENDBRANCH   9  25
TORSDOF 2
ENDMDL
MODEL 4
REMARK VINA RESULT: -11.054671566      4.493     10.490
REMARK  2 active torsions:
REMARK  status: ('A' for Active; 'I' for Inactive)
REMARK    1  A    between atoms: C6_9  and  C7_10 
REMARK    2  A    between atoms: C10_13  and  C11_14 
ROOT
HETATM    1  O1  UNL     1      12.487   8.318  -7.656  1.00  0.00    -0.268 OA
HETATM    2  C1  UNL     1      12.758   7.155  -7.264  1.00  0.00     0.249 A 
HETATM    3  C2  UNL     1      12.601   5.965  -8.080  1.00  0.00     0.107 A 
HETATM    4  C3  UNL     1      12.971   4.890  -7.375  1.00  0.00     0.082 A 
HETATM    5  N1  UNL     1      12.942   3.588  -7.890  1.00  0.00    -0.352 N 
ATOM      6  H1  UNL     1      12.546   3.541  -8.829  1.00  0.00     0.166 HD
HETATM    7  C4  UNL     1      13.307   2.425  -7.438  1.00  0.00     0.047 C 
HETATM    8  C5  UNL     1      13.114   1.292  -8.307  1.00  0.00     0.031 A 
HETATM    9  C6  UNL     1      13.470  -0.020  -8.198  1.00  0.00     0.056 A 
HETATM   10  N4  UNL     1      12.778  -0.789  -9.116  1.00  0.00    -0.354 N 
ATOM     11  H4  UNL     1      12.858  -1.800  -9.231  1.00  0.00     0.166 HD
HETATM   12  C16 UNL     1      11.990   0.015  -9.820  1.00  0.00     0.043 A 
HETATM   13  C17 UNL     1      11.117  -0.309 -10.856  1.00  0.00     0.030 A 
HETATM   14  C18 UNL     1      10.393   0.686 -11.456  1.00  0.00     0.002 A 
HETATM   15  C19 UNL     1      10.546   1.971 -11.022  1.00  0.00     0.001 A 
HETATM   16  C20 UNL     1      11.440   2.274  -9.967  1.00  0.00     0.014 A 
HETATM   17  C21 UNL     1      12.165   1.293  -9.363  1.00  0.00     0.005 A 
HETATM   18  C22 UNL     1      13.672   2.233  -6.046  1.00  0.00     0.047 C 
HETATM   19  C23 UNL     1      13.868   3.144  -5.063  1.00  0.00     0.092 C 
HETATM   20  N5  UNL     1      13.776   4.555  -5.075  1.00  0.00    -0.350 N 
ATOM     21  H5  UNL     1      14.042   5.029  -4.213  1.00  0.00     0.166 HD
HETATM   22  C24 UNL     1      13.393   5.320  -6.051  1.00  0.00     0.135 A 
HETATM   23  N6  UNL     1      13.253   6.724  -6.007  1.00  0.00    -0.308 N 
ATOM     24  H6  UNL     1      13.469   7.323  -5.211  1.00  0.00     0.170 HD
ENDROOT
BRANCH   9  25
HETATM   25  C7  UNL     1      14.467  -0.672  -7.371  1.00  0.00    -0.008 A 
HETATM   26  C8  UNL     1      14.508  -0.607  -6.010  1.00  0.00     0.014 A 
HETATM   27  C9  UNL     1      15.468  -1.277  -5.247  1.00  0.00     0.013 A 
HETATM   28  C10 UNL     1      16.415  -2.036  -5.886  1.00  0.00    -0.023 A 
HETATM   29  C14 UNL     1      16.417  -2.132  -7.254  1.00  0.00     0.013 A 
HETATM   30  C15 UNL     1      15.457  -1.460  -7.970  1.00  0.00     0.014 A 
BRANCH  28  31
HETATM   31  C11 UNL     1      17.421  -2.742  -5.125  1.00  0.00     0.008 A 
HETATM   32  C12 UNL     1      17.692  -4.090  -5.101  1.00  0.00     0.120 A 
HETATM   33  N2  UNL     1      18.706  -4.267  -4.250  1.00  0.00    -0.311 N 
HETATM   34  N3  UNL     1      19.061  -3.107  -3.760  1.00  0.00    -0.311 N 
ATOM     35  H2  UNL     1      19.135  -5.162  -4.018  1.00  0.00     0.186 HD
HETATM   36  C13 UNL     1      18.304  -2.124  -4.262  1.00  0.00     0.120 A 
ATOM     37  H3  UNL     1      19.814  -2.970  -3.086  1.00  0.00     0.186 HD
ENDBRANCH  28  31
ENDBRANCH   9  25
TORSDOF 2
ENDMDL
MODEL 5
REMARK VINA RESULT: -10.895532042      2.228      5.003
REMARK  2 active torsions:
REMARK  status: ('A' for Active; 'I' for Inactive)
REMARK    1  A    between atoms: C6_9  and  C7_10 
REMARK    2  A    between atoms: C10_13  and  C11_14 
ROOT
HETATM    1  O1  UNL     1      14.973   1.677  -2.187  1.00  0.00    -0.268 OA
HETATM    2  C1  UNL     1      14.764   2.478  -3.134  1.00  0.00     0.249 A 
HETATM    3  C2  UNL     1      14.100   2.116  -4.372  1.00  0.00     0.107 A 
HETATM    4  C3  UNL     1      14.036   3.187  -5.172  1.00  0.00     0.082 A 
HETATM    5  N1  UNL     1      13.443   3.163  -6.441  1.00  0.00    -0.352 N 
ATOM      6  H1  UNL     1      13.131   2.231  -6.715  1.00  0.00     0.166 HD
HETATM    7  C4  UNL     1      13.203   4.063  -7.347  1.00  0.00     0.047 C 
HETATM    8  C5  UNL     1      12.546   3.623  -8.551  1.00  0.00     0.031 A 
HETATM    9  C6  UNL     1      12.061   4.298  -9.632  1.00  0.00     0.056 A 
HETATM   10  N4  UNL     1      11.823   3.430 -10.682  1.00  0.00    -0.354 N 
ATOM     11  H4  UNL     1      11.467   3.687 -11.603  1.00  0.00     0.166 HD
HETATM   12  C16 UNL     1      12.137   2.203 -10.283  1.00  0.00     0.043 A 
HETATM   13  C17 UNL     1      12.056   1.008 -10.996  1.00  0.00     0.030 A 
HETATM   14  C18 UNL     1      12.431  -0.160 -10.387  1.00  0.00     0.002 A 
HETATM   15  C19 UNL     1      12.877  -0.121  -9.098  1.00  0.00     0.001 A 
HETATM   16  C20 UNL     1      12.951   1.105  -8.396  1.00  0.00     0.014 A 
HETATM   17  C21 UNL     1      12.580   2.273  -8.991  1.00  0.00     0.005 A 
HETATM   18  C22 UNL     1      13.773   5.395  -7.263  1.00  0.00     0.047 C 
HETATM   19  C23 UNL     1      14.452   5.990  -6.253  1.00  0.00     0.092 C 
HETATM   20  N5  UNL     1      14.824   5.509  -4.977  1.00  0.00    -0.350 N 
ATOM     21  H5  UNL     1      15.278   6.181  -4.359  1.00  0.00     0.166 HD
HETATM   22  C24 UNL     1      14.658   4.315  -4.496  1.00  0.00     0.135 A 
HETATM   23  N6  UNL     1      15.099   3.852  -3.238  1.00  0.00    -0.308 N 
ATOM     24  H6  UNL     1      15.576   4.408  -2.528  1.00  0.00     0.170 HD
ENDROOT
BRANCH   9  25
HETATM   25  C7  UNL     1      11.702   5.693  -9.803  1.00  0.00    -0.008 A 
HETATM   26  C8  UNL     1      12.256   6.528 -10.728  1.00  0.00     0.014 A 
HETATM   27  C9  UNL     1      11.861   7.859 -10.882  1.00  0.00     0.013 A 
HETATM   28  C10 UNL     1      10.872   8.357 -10.071  1.00  0.00    -0.023 A 
HETATM   29  C14 UNL     1      10.285   7.558  -9.125  1.00  0.00     0.013 A 
HETATM   30  C15 UNL     1      10.700   6.255  -9.004  1.00  0.00     0.014 A 
BRANCH  28  31
HETATM   31  C11 UNL     1      10.440   9.731 -10.207  1.00  0.00     0.008 A 
HETATM   32  C12 UNL     1      10.360  10.498 -11.346  1.00  0.00     0.120 A 
HETATM   33  N2  UNL     1       9.908  11.698 -10.973  1.00  0.00    -0.311 N 
HETATM   34  N3  UNL     1       9.712  11.699  -9.679  1.00  0.00    -0.311 N 
ATOM     35  H2  UNL     1       9.742  12.488 -11.597  1.00  0.00     0.186 HD
HETATM   36  C13 UNL     1      10.023  10.511  -9.147  1.00  0.00     0.120 A 
ATOM     37  H3  UNL     1       9.368  12.499  -9.147  1.00  0.00     0.186 HD
ENDBRANCH  28  31
ENDBRANCH   9  25
TORSDOF 2
ENDMDL
