MODEL 1
REMARK VINA RESULT: -11.300057330      0.000      0.000
REMARK  5 active torsions:
REMARK  status: ('A' for Active; 'I' for Inactive)
REMARK    1  A    between atoms: C2_2  and  C3_3 
REMARK    2  A    between atoms: C8_8  and  N1_9 
REMARK       I    between atoms: N1_9  and  C9_11 
REMARK       I    between atoms: C9_11  and  N2_13 
REMARK    3  A    between atoms: N2_13  and  C10_15 
REMARK    4  A    between atoms: C13_22  and  N5_23 
REMARK    5  A    between atoms: N5_23  and  C14_25 
ROOT
HETATM    1  C10 UNL     1      12.521   6.946  -8.755  1.00  0.00     0.702 A 
HETATM    2  N3  UNL     1      11.376   6.220  -8.788  1.00  0.00    -0.180 N 
ATOM      3  H3  UNL     1      11.221   5.465  -8.118  1.00  0.00     0.185 HD
HETATM    4  C11 UNL     1      10.448   6.512  -9.719  1.00  0.00     0.109 A 
HETATM    5  C12 UNL     1       9.209   5.675  -9.699  1.00  0.00     0.090 C 
HETATM    6  N4  UNL     1      10.631   7.499 -10.611  1.00  0.00    -0.180 N 
ATOM      7  H4  UNL     1       9.911   7.696 -11.305  1.00  0.00     0.185 HD
HETATM    8  C13 UNL     1      11.763   8.230 -10.593  1.00  0.00     0.698 A 
HETATM    9  N6  UNL     1      12.688   7.924  -9.650  1.00  0.00    -0.022 N 
ATOM     10  H6  UNL     1      13.552   8.466  -9.623  1.00  0.00     0.203 HD
ENDROOT
BRANCH   1  11
HETATM   11  N2  UNL     1      13.445   6.713  -7.887  1.00  0.00    -0.140 N 
HETATM   12  C9  UNL     1      13.252   5.606  -6.974  1.00  0.00     0.339 C 
HETATM   13  N1  UNL     1      13.889   4.415  -7.260  1.00  0.00    -0.308 N 
HETATM   14  O1  UNL     1      12.514   5.846  -5.999  1.00  0.00    -0.246 OA
ATOM     15  H1  UNL     1      14.460   4.399  -8.105  1.00  0.00     0.170 HD
ATOM     16  H2  UNL     1      14.285   7.289  -7.845  1.00  0.00     0.189 HD
BRANCH  13  17
HETATM   17  C8  UNL     1      13.842   3.230  -6.525  1.00  0.00     0.037 A 
HETATM   18  C7  UNL     1      14.009   3.177  -5.171  1.00  0.00     0.036 A 
HETATM   19  C5  UNL     1      13.957   1.957  -4.483  1.00  0.00    -0.059 A 
HETATM   20  C4  UNL     1      13.732   0.786  -5.185  1.00  0.00     0.013 A 
HETATM   21  C6  UNL     1      14.143   1.934  -3.012  1.00  0.00     0.048 C 
HETATM   22  C3  UNL     1      13.560   0.806  -6.546  1.00  0.00    -0.056 A 
HETATM   23  C23 UNL     1      13.616   2.005  -7.188  1.00  0.00     0.036 A 
BRANCH  22  24
HETATM   24  C2  UNL     1      13.322  -0.439  -7.288  1.00  0.00     0.034 C 
HETATM   25  C1  UNL     1      13.743  -0.207  -8.724  1.00  0.00     0.010 C 
ENDBRANCH  22  24
ENDBRANCH  13  17
ENDBRANCH   1  11
BRANCH   8  26
HETATM   26  N5  UNL     1      12.027   9.177 -11.389  1.00  0.00    -0.190 N 
ATOM     27  H5  UNL     1      12.995   9.240 -11.706  1.00  0.00     0.184 HD
BRANCH  26  28
HETATM   28  C14 UNL     1      11.152  10.147 -11.887  1.00  0.00     0.061 A 
HETATM   29  C15 UNL     1      10.608  11.113 -11.072  1.00  0.00    -0.034 A 
HETATM   30  C16 UNL     1      10.932  11.159  -9.641  1.00  0.00     0.050 C 
HETATM   31  C17 UNL     1       9.734  12.081 -11.571  1.00  0.00     0.015 A 
HETATM   32  C18 UNL     1       9.383  12.100 -12.904  1.00  0.00    -0.061 A 
HETATM   33  C19 UNL     1       8.446  13.135 -13.444  1.00  0.00     0.048 C 
HETATM   34  C20 UNL     1       9.926  11.134 -13.723  1.00  0.00     0.015 A 
HETATM   35  C21 UNL     1      10.791  10.180 -13.218  1.00  0.00    -0.034 A 
HETATM   36  C22 UNL     1      11.372   9.141 -14.106  1.00  0.00     0.050 C 
ENDBRANCH  26  28
ENDBRANCH   8  26
TORSDOF 5
ENDMDL
MODEL 2
REMARK VINA RESULT: -11.261055577      0.120      1.538
REMARK  5 active torsions:
REMARK  status: ('A' for Active; 'I' for Inactive)
REMARK    1  A    between atoms: C2_2  and  C3_3 
REMARK    2  A    between atoms: C8_8  and  N1_9 
REMARK       I    between atoms: N1_9  and  C9_11 
REMARK       I    between atoms: C9_11  and  N2_13 
REMARK    3  A    between atoms: N2_13  and  C10_15 
REMARK    4  A    between atoms: C13_22  and  N5_23 
REMARK    5  A    between atoms: N5_23  and  C14_25 
ROOT
HETATM    1  C10 UNL     1      12.525   6.931  -8.758  1.00  0.00     0.702 A 
HETATM    2  N3  UNL     1      11.370   6.221  -8.795  1.00  0.00    -0.180 N 
ATOM      3  H3  UNL     1      11.207   5.461  -8.134  1.00  0.00     0.185 HD
HETATM    4  C11 UNL     1      10.443   6.537  -9.719  1.00  0.00     0.109 A 
HETATM    5  C12 UNL     1       9.193   5.716  -9.706  1.00  0.00     0.090 C 
HETATM    6  N4  UNL     1      10.637   7.532 -10.600  1.00  0.00    -0.180 N 
ATOM      7  H4  UNL     1       9.917   7.747 -11.289  1.00  0.00     0.185 HD
HETATM    8  C13 UNL     1      11.779   8.248 -10.577  1.00  0.00     0.698 A 
HETATM    9  N6  UNL     1      12.702   7.918  -9.641  1.00  0.00    -0.022 N 
ATOM     10  H6  UNL     1      13.573   8.448  -9.610  1.00  0.00     0.203 HD
ENDROOT
BRANCH   1  11
HETATM   11  N2  UNL     1      13.449   6.675  -7.896  1.00  0.00    -0.140 N 
HETATM   12  C9  UNL     1      13.252   5.549  -7.008  1.00  0.00     0.339 C 
HETATM   13  N1  UNL     1      13.885   4.361  -7.321  1.00  0.00    -0.308 N 
HETATM   14  O1  UNL     1      12.516   5.769  -6.027  1.00  0.00    -0.246 OA
ATOM     15  H1  UNL     1      14.455   4.363  -8.167  1.00  0.00     0.170 HD
ATOM     16  H2  UNL     1      14.291   7.247  -7.841  1.00  0.00     0.189 HD
BRANCH  13  17
HETATM   17  C8  UNL     1      13.834   3.160  -6.614  1.00  0.00     0.037 A 
HETATM   18  C7  UNL     1      14.006   3.075  -5.263  1.00  0.00     0.036 A 
HETATM   19  C5  UNL     1      13.950   1.840  -4.602  1.00  0.00    -0.059 A 
HETATM   20  C4  UNL     1      13.716   0.686  -5.330  1.00  0.00     0.013 A 
HETATM   21  C6  UNL     1      14.141   1.782  -3.133  1.00  0.00     0.048 C 
HETATM   22  C3  UNL     1      13.539   0.739  -6.690  1.00  0.00    -0.056 A 
HETATM   23  C23 UNL     1      13.600   1.952  -7.305  1.00  0.00     0.036 A 
BRANCH  22  24
HETATM   24  C2  UNL     1      13.292  -0.487  -7.459  1.00  0.00     0.034 C 
HETATM   25  C1  UNL     1      13.732  -0.232  -8.887  1.00  0.00     0.010 C 
ENDBRANCH  22  24
ENDBRANCH  13  17
ENDBRANCH   1  11
BRANCH   8  26
HETATM   26  N5  UNL     1      12.053   9.200 -11.362  1.00  0.00    -0.190 N 
ATOM     27  H5  UNL     1      13.035   9.304 -11.617  1.00  0.00     0.184 HD
BRANCH  26  28
HETATM   28  C14 UNL     1      11.171  10.129 -11.923  1.00  0.00     0.061 A 
HETATM   29  C15 UNL     1      10.825  10.082 -13.253  1.00  0.00    -0.034 A 
HETATM   30  C16 UNL     1      11.373   9.044 -14.136  1.00  0.00     0.050 C 
HETATM   31  C17 UNL     1       9.945  11.011 -13.813  1.00  0.00     0.015 A 
HETATM   32  C18 UNL     1       9.392  12.013 -13.046  1.00  0.00    -0.061 A 
HETATM   33  C19 UNL     1       8.448  13.012 -13.640  1.00  0.00     0.048 C 
HETATM   34  C20 UNL     1       9.736  12.064 -11.713  1.00  0.00     0.015 A 
HETATM   35  C21 UNL     1      10.608  11.138 -11.169  1.00  0.00    -0.034 A 
HETATM   36  C22 UNL     1      10.975  11.199  -9.731  1.00  0.00     0.050 C 
ENDBRANCH  26  28
ENDBRANCH   8  26
TORSDOF 5
ENDMDL
MODEL 3
REMARK VINA RESULT: -11.174470425      0.374      1.959
REMARK  5 active torsions:
REMARK  status: ('A' for Active; 'I' for Inactive)
REMARK    1  A    between atoms: C2_2  and  C3_3 
REMARK    2  A    between atoms: C8_8  and  N1_9 
REMARK       I    between atoms: N1_9  and  C9_11 
REMARK       I    between atoms: C9_11  and  N2_13 
REMARK    3  A    between atoms: N2_13  and  C10_15 
REMARK    4  A    between atoms: C13_22  and  N5_23 
REMARK    5  A    between atoms: N5_23  and  C14_25 
ROOT
HETATM    1  C10 UNL     1      12.536   6.906  -8.780  1.00  0.00     0.702 A 
HETATM    2  N3  UNL     1      11.384   6.191  -8.802  1.00  0.00    -0.180 N 
ATOM      3  H3  UNL     1      11.227   5.438  -8.131  1.00  0.00     0.185 HD
HETATM    4  C11 UNL     1      10.451   6.492  -9.725  1.00  0.00     0.109 A 
HETATM    5  C12 UNL     1       9.203   5.667  -9.694  1.00  0.00     0.090 C 
HETATM    6  N4  UNL     1      10.635   7.477 -10.619  1.00  0.00    -0.180 N 
ATOM      7  H4  UNL     1       9.910   7.681 -11.307  1.00  0.00     0.185 HD
HETATM    8  C13 UNL     1      11.774   8.197 -10.612  1.00  0.00     0.698 A 
HETATM    9  N6  UNL     1      12.705   7.883  -9.677  1.00  0.00    -0.022 N 
ATOM     10  H6  UNL     1      13.573   8.417  -9.657  1.00  0.00     0.203 HD
ENDROOT
BRANCH   1  11
HETATM   11  N2  UNL     1      13.466   6.664  -7.921  1.00  0.00    -0.140 N 
HETATM   12  C9  UNL     1      13.267   5.564  -7.001  1.00  0.00     0.339 C 
HETATM   13  N1  UNL     1      13.885   4.363  -7.288  1.00  0.00    -0.308 N 
HETATM   14  O1  UNL     1      12.542   5.818  -6.019  1.00  0.00    -0.246 OA
ATOM     15  H1  UNL     1      14.447   4.336  -8.140  1.00  0.00     0.170 HD
ATOM     16  H2  UNL     1      14.314   7.230  -7.889  1.00  0.00     0.189 HD
BRANCH  13  17
HETATM   17  C8  UNL     1      13.830   3.182  -6.548  1.00  0.00     0.037 A 
HETATM   18  C7  UNL     1      13.532   1.966  -7.093  1.00  0.00     0.036 A 
HETATM   19  C5  UNL     1      13.485   0.810  -6.301  1.00  0.00    -0.059 A 
HETATM   20  C4  UNL     1      13.745   0.900  -4.945  1.00  0.00     0.013 A 
HETATM   21  C6  UNL     1      13.158  -0.495  -6.924  1.00  0.00     0.048 C 
HETATM   22  C3  UNL     1      14.048   2.108  -4.368  1.00  0.00    -0.056 A 
HETATM   23  C23 UNL     1      14.086   3.214  -5.161  1.00  0.00     0.036 A 
BRANCH  22  24
HETATM   24  C2  UNL     1      14.323   2.200  -2.928  1.00  0.00     0.034 C 
HETATM   25  C1  UNL     1      15.631   1.484  -2.662  1.00  0.00     0.010 C 
ENDBRANCH  22  24
ENDBRANCH  13  17
ENDBRANCH   1  11
BRANCH   8  26
HETATM   26  N5  UNL     1      12.040   9.141 -11.409  1.00  0.00    -0.190 N 
ATOM     27  H5  UNL     1      13.003   9.190 -11.743  1.00  0.00     0.184 HD
BRANCH  26  28
HETATM   28  C14 UNL     1      11.172  10.127 -11.890  1.00  0.00     0.061 A 
HETATM   29  C15 UNL     1      10.668  11.107 -11.067  1.00  0.00    -0.034 A 
HETATM   30  C16 UNL     1      11.028  11.152  -9.644  1.00  0.00     0.050 C 
HETATM   31  C17 UNL     1       9.801  12.090 -11.549  1.00  0.00     0.015 A 
HETATM   32  C18 UNL     1       9.419  12.112 -12.872  1.00  0.00    -0.061 A 
HETATM   33  C19 UNL     1       8.490  13.163 -13.394  1.00  0.00     0.048 C 
HETATM   34  C20 UNL     1       9.922  11.132 -13.700  1.00  0.00     0.015 A 
HETATM   35  C21 UNL     1      10.780  10.162 -13.212  1.00  0.00    -0.034 A 
HETATM   36  C22 UNL     1      11.318   9.108 -14.110  1.00  0.00     0.050 C 
ENDBRANCH  26  28
ENDBRANCH   8  26
TORSDOF 5
ENDMDL
MODEL 4
REMARK VINA RESULT: -11.162033718      0.373      2.489
REMARK  5 active torsions:
REMARK  status: ('A' for Active; 'I' for Inactive)
REMARK    1  A    between atoms: C2_2  and  C3_3 
REMARK    2  A    between atoms: C8_8  and  N1_9 
REMARK       I    between atoms: N1_9  and  C9_11 
REMARK       I    between atoms: C9_11  and  N2_13 
REMARK    3  A    between atoms: N2_13  and  C10_15 
REMARK    4  A    between atoms: C13_22  and  N5_23 
REMARK    5  A    between atoms: N5_23  and  C14_25 
ROOT
HETATM    1  C10 UNL     1      12.562   6.925  -8.761  1.00  0.00     0.702 A 
HETATM    2  N3  UNL     1      11.409   6.211  -8.794  1.00  0.00    -0.180 N 
ATOM      3  H3  UNL     1      11.250   5.451  -8.131  1.00  0.00     0.185 HD
HETATM    4  C11 UNL     1      10.479   6.522  -9.716  1.00  0.00     0.109 A 
HETATM    5  C12 UNL     1       9.231   5.697  -9.697  1.00  0.00     0.090 C 
HETATM    6  N4  UNL     1      10.666   7.517 -10.598  1.00  0.00    -0.180 N 
ATOM      7  H4  UNL     1       9.943   7.729 -11.285  1.00  0.00     0.185 HD
HETATM    8  C13 UNL     1      11.805   8.237 -10.580  1.00  0.00     0.698 A 
HETATM    9  N6  UNL     1      12.733   7.911  -9.646  1.00  0.00    -0.022 N 
ATOM     10  H6  UNL     1      13.602   8.444  -9.618  1.00  0.00     0.203 HD
ENDROOT
BRANCH   1  11
HETATM   11  N2  UNL     1      13.489   6.673  -7.901  1.00  0.00    -0.140 N 
HETATM   12  C9  UNL     1      13.284   5.568  -6.990  1.00  0.00     0.339 C 
HETATM   13  N1  UNL     1      13.898   4.366  -7.284  1.00  0.00    -0.308 N 
HETATM   14  O1  UNL     1      12.559   5.818  -6.007  1.00  0.00    -0.246 OA
ATOM     15  H1  UNL     1      14.461   4.342  -8.134  1.00  0.00     0.170 HD
ATOM     16  H2  UNL     1      14.339   7.235  -7.865  1.00  0.00     0.189 HD
BRANCH  13  17
HETATM   17  C8  UNL     1      13.836   3.180  -6.552  1.00  0.00     0.037 A 
HETATM   18  C7  UNL     1      13.530   1.970  -7.105  1.00  0.00     0.036 A 
HETATM   19  C5  UNL     1      13.477   0.809  -6.321  1.00  0.00    -0.059 A 
HETATM   20  C4  UNL     1      13.739   0.888  -4.965  1.00  0.00     0.013 A 
HETATM   21  C6  UNL     1      13.141  -0.490  -6.953  1.00  0.00     0.048 C 
HETATM   22  C3  UNL     1      14.050   2.090  -4.379  1.00  0.00    -0.056 A 
HETATM   23  C23 UNL     1      14.093   3.201  -5.165  1.00  0.00     0.036 A 
BRANCH  22  24
HETATM   24  C2  UNL     1      14.327   2.170  -2.940  1.00  0.00     0.034 C 
HETATM   25  C1  UNL     1      15.702   1.581  -2.701  1.00  0.00     0.010 C 
ENDBRANCH  22  24
ENDBRANCH  13  17
ENDBRANCH   1  11
BRANCH   8  26
HETATM   26  N5  UNL     1      12.074   9.189 -11.367  1.00  0.00    -0.190 N 
ATOM     27  H5  UNL     1      13.053   9.288 -11.634  1.00  0.00     0.184 HD
BRANCH  26  28
HETATM   28  C14 UNL     1      11.189  10.123 -11.915  1.00  0.00     0.061 A 
HETATM   29  C15 UNL     1      10.820  10.075 -13.239  1.00  0.00    -0.034 A 
HETATM   30  C16 UNL     1      11.345   9.031 -14.128  1.00  0.00     0.050 C 
HETATM   31  C17 UNL     1       9.938  11.009 -13.786  1.00  0.00     0.015 A 
HETATM   32  C18 UNL     1       9.404  12.018 -13.012  1.00  0.00    -0.061 A 
HETATM   33  C19 UNL     1       8.458  13.021 -13.593  1.00  0.00     0.048 C 
HETATM   34  C20 UNL     1       9.772  12.069 -11.685  1.00  0.00     0.015 A 
HETATM   35  C21 UNL     1      10.647  11.138 -11.154  1.00  0.00    -0.034 A 
HETATM   36  C22 UNL     1      11.039  11.200  -9.723  1.00  0.00     0.050 C 
ENDBRANCH  26  28
ENDBRANCH   8  26
TORSDOF 5
ENDMDL
MODEL 5
REMARK VINA RESULT: -11.021507207      2.319      8.657
REMARK  5 active torsions:
REMARK  status: ('A' for Active; 'I' for Inactive)
REMARK    1  A    between atoms: C2_2  and  C3_3 
REMARK    2  A    between atoms: C8_8  and  N1_9 
REMARK       I    between atoms: N1_9  and  C9_11 
REMARK       I    between atoms: C9_11  and  N2_13 
REMARK    3  A    between atoms: N2_13  and  C10_15 
REMARK    4  A    between atoms: C13_22  and  N5_23 
REMARK    5  A    between atoms: N5_23  and  C14_25 
ROOT
HETATM    1  C10 UNL     1      12.262   7.180  -7.035  1.00  0.00     0.702 A 
HETATM    2  N3  UNL     1      13.073   6.972  -5.968  1.00  0.00    -0.180 N 
ATOM      3  H3  UNL     1      12.999   7.559  -5.137  1.00  0.00     0.185 HD
HETATM    4  C11 UNL     1      13.978   5.976  -6.025  1.00  0.00     0.109 A 
HETATM    5  C12 UNL     1      14.840   5.799  -4.815  1.00  0.00     0.090 C 
HETATM    6  N4  UNL     1      14.095   5.191  -7.108  1.00  0.00    -0.180 N 
ATOM      7  H4  UNL     1      14.790   4.445  -7.121  1.00  0.00     0.185 HD
HETATM    8  C13 UNL     1      13.297   5.384  -8.177  1.00  0.00     0.698 A 
HETATM    9  N6  UNL     1      12.391   6.390  -8.105  1.00  0.00    -0.022 N 
ATOM     10  H6  UNL     1      11.780   6.552  -8.906  1.00  0.00     0.203 HD
ENDROOT
BRANCH   1  11
HETATM   11  N2  UNL     1      11.377   8.118  -7.039  1.00  0.00    -0.140 N 
HETATM   12  C9  UNL     1      11.387   9.052  -8.145  1.00  0.00     0.339 C 
HETATM   13  N1  UNL     1      10.481   8.852  -9.167  1.00  0.00    -0.308 N 
HETATM   14  O1  UNL     1      12.231   9.966  -8.060  1.00  0.00    -0.246 OA
ATOM     15  H1  UNL     1       9.859   8.049  -9.070  1.00  0.00     0.170 HD
ATOM     16  H2  UNL     1      10.693   8.198  -6.288  1.00  0.00     0.189 HD
BRANCH  13  17
HETATM   17  C8  UNL     1      10.317   9.621 -10.319  1.00  0.00     0.037 A 
HETATM   18  C7  UNL     1       9.773  10.873 -10.317  1.00  0.00     0.036 A 
HETATM   19  C5  UNL     1       9.628  11.601 -11.506  1.00  0.00    -0.059 A 
HETATM   20  C4  UNL     1      10.042  11.044 -12.703  1.00  0.00     0.013 A 
HETATM   21  C6  UNL     1       9.032  12.958 -11.469  1.00  0.00     0.048 C 
HETATM   22  C3  UNL     1      10.594   9.788 -12.739  1.00  0.00    -0.056 A 
HETATM   23  C23 UNL     1      10.722   9.104 -11.568  1.00  0.00     0.036 A 
BRANCH  22  24
HETATM   24  C2  UNL     1      11.032   9.200 -14.010  1.00  0.00     0.034 C 
HETATM   25  C1  UNL     1      10.271   9.890 -15.124  1.00  0.00     0.010 C 
ENDBRANCH  22  24
ENDBRANCH  13  17
ENDBRANCH   1  11
BRANCH   8  26
HETATM   26  N5  UNL     1      13.331   4.699  -9.239  1.00  0.00    -0.190 N 
ATOM     27  H5  UNL     1      14.103   4.896  -9.876  1.00  0.00     0.184 HD
BRANCH  26  28
HETATM   28  C14 UNL     1      12.436   3.705  -9.647  1.00  0.00     0.061 A 
HETATM   29  C15 UNL     1      12.427   2.460  -9.061  1.00  0.00    -0.034 A 
HETATM   30  C16 UNL     1      13.362   2.132  -7.978  1.00  0.00     0.050 C 
HETATM   31  C17 UNL     1      11.534   1.467  -9.470  1.00  0.00     0.015 A 
HETATM   32  C18 UNL     1      10.627   1.703 -10.481  1.00  0.00    -0.061 A 
HETATM   33  C19 UNL     1       9.667   0.642 -10.923  1.00  0.00     0.048 C 
HETATM   34  C20 UNL     1      10.633   2.948 -11.070  1.00  0.00     0.015 A 
HETATM   35  C21 UNL     1      11.523   3.924 -10.657  1.00  0.00    -0.034 A 
HETATM   36  C22 UNL     1      11.525   5.265 -11.297  1.00  0.00     0.050 C 
ENDBRANCH  26  28
ENDBRANCH   8  26
TORSDOF 5
ENDMDL
