MODEL 1
REMARK VINA RESULT: -11.779026961      0.000      0.000
REMARK  4 active torsions:
REMARK  status: ('A' for Active; 'I' for Inactive)
REMARK    1  A    between atoms: C8_10  and  S1_11 
REMARK    2  A    between atoms: S1_11  and  N2_14 
REMARK    3  A    between atoms: N2_14  and  N3_16 
REMARK    4  A    between atoms: N3_16  and  C9_18 
ROOT
HETATM    1  N2  UNL     1      12.627   6.509  -9.964  1.00  0.00    -0.222 N 
ATOM      2  H2  UNL     1      13.427   7.141  -9.926  1.00  0.00     0.200 HD
ENDROOT
BRANCH   1   3
HETATM    3  S1  UNL     1      11.047   7.072 -10.398  1.00  0.00     0.279 S 
HETATM    4  O1  UNL     1      10.108   6.468  -9.367  1.00  0.00    -0.199 OA
HETATM    5  O2  UNL     1      10.686   6.432 -11.707  1.00  0.00    -0.199 OA
BRANCH   3   6
HETATM    6  C8  UNL     1      10.953   8.794 -10.417  1.00  0.00     0.115 A 
HETATM    7  C6  UNL     1      11.193   9.639  -9.360  1.00  0.00     0.030 A 
HETATM    8  N1  UNL     1      11.017  10.930  -9.772  1.00  0.00    -0.358 N 
HETATM    9  C7  UNL     1      11.578   9.316  -7.975  1.00  0.00     0.070 C 
HETATM   10  C5  UNL     1      10.672  10.946 -11.057  1.00  0.00     0.044 A 
ATOM     11  H1  UNL     1      11.131  11.755  -9.183  1.00  0.00     0.166 HD
HETATM   12  C4  UNL     1      10.383  11.981 -11.938  1.00  0.00     0.031 A 
HETATM   13  C21 UNL     1      10.628   9.621 -11.477  1.00  0.00     0.016 A 
HETATM   14  C3  UNL     1      10.052  11.653 -13.238  1.00  0.00     0.009 A 
HETATM   15  C2  UNL     1      10.012  10.329 -13.644  1.00  0.00    -0.061 A 
HETATM   16  C1  UNL     1       9.654   9.986 -15.042  1.00  0.00     0.048 C 
HETATM   17  C22 UNL     1      10.297   9.315 -12.771  1.00  0.00     0.022 A 
ENDBRANCH   3   6
ENDBRANCH   1   3
BRANCH   1  18
HETATM   18  N3  UNL     1      12.755   5.149  -9.668  1.00  0.00    -0.290 N 
ATOM     19  H3  UNL     1      12.594   4.464 -10.407  1.00  0.00     0.187 HD
BRANCH  18  20
HETATM   20  C9  UNL     1      13.072   4.735  -8.483  1.00  0.00     0.063 A 
HETATM   21  C10 UNL     1      13.257   5.585  -7.416  1.00  0.00     0.056 A 
HETATM   22  C11 UNL     1      13.592   5.044  -6.193  1.00  0.00     0.008 A 
HETATM   23  C12 UNL     1      13.786   6.001  -5.057  1.00  0.00     0.068 C 
HETATM   24  N4  UNL     1      13.740   3.717  -6.031  1.00  0.00    -0.359 N 
HETATM   25  C13 UNL     1      13.566   2.858  -7.051  1.00  0.00     0.045 A 
ATOM     26  H4  UNL     1      13.990   3.354  -5.112  1.00  0.00     0.166 HD
HETATM   27  C14 UNL     1      13.712   1.494  -6.910  1.00  0.00     0.037 A 
HETATM   28  C20 UNL     1      13.231   3.380  -8.282  1.00  0.00     0.019 A 
HETATM   29  C15 UNL     1      13.541   0.599  -7.935  1.00  0.00    -0.054 A 
HETATM   30  C16 UNL     1      13.714  -0.855  -7.702  1.00  0.00     0.049 C 
HETATM   31  C17 UNL     1      13.204   1.111  -9.166  1.00  0.00    -0.055 A 
HETATM   32  C18 UNL     1      13.013   0.153 -10.295  1.00  0.00     0.049 C 
HETATM   33  C19 UNL     1      13.053   2.472  -9.335  1.00  0.00     0.023 A 
ENDBRANCH  18  20
ENDBRANCH   1  18
TORSDOF 4
ENDMDL
MODEL 2
REMARK VINA RESULT: -11.753585610      1.679      2.494
REMARK  4 active torsions:
REMARK  status: ('A' for Active; 'I' for Inactive)
REMARK    1  A    between atoms: C8_10  and  S1_11 
REMARK    2  A    between atoms: S1_11  and  N2_14 
REMARK    3  A    between atoms: N2_14  and  N3_16 
REMARK    4  A    between atoms: N3_16  and  C9_18 
ROOT
HETATM    1  N2  UNL     1      13.007   7.188  -7.657  1.00  0.00    -0.222 N 
ATOM      2  H2  UNL     1      13.506   7.983  -7.257  1.00  0.00     0.200 HD
ENDROOT
BRANCH   1   3
HETATM    3  S1  UNL     1      11.352   7.316  -8.156  1.00  0.00     0.279 S 
HETATM    4  O1  UNL     1      10.746   8.390  -7.267  1.00  0.00    -0.199 OA
HETATM    5  O2  UNL     1      10.668   6.035  -7.776  1.00  0.00    -0.199 OA
BRANCH   3   6
HETATM    6  C8  UNL     1      11.206   7.712  -9.828  1.00  0.00     0.115 A 
HETATM    7  C6  UNL     1      11.531   6.904 -10.891  1.00  0.00     0.030 A 
HETATM    8  N1  UNL     1      11.273   7.574 -12.055  1.00  0.00    -0.358 N 
HETATM    9  C7  UNL     1      12.074   5.535 -10.893  1.00  0.00     0.070 C 
HETATM   10  C5  UNL     1      10.793   8.783 -11.777  1.00  0.00     0.044 A 
ATOM     11  H1  UNL     1      11.426   7.202 -12.992  1.00  0.00     0.166 HD
HETATM   12  C4  UNL     1      10.382   9.837 -12.584  1.00  0.00     0.031 A 
HETATM   13  C21 UNL     1      10.745   8.888 -10.391  1.00  0.00     0.016 A 
HETATM   14  C3  UNL     1       9.925  10.986 -11.968  1.00  0.00     0.009 A 
HETATM   15  C2  UNL     1       9.881  11.077 -10.586  1.00  0.00    -0.061 A 
HETATM   16  C1  UNL     1       9.390  12.315  -9.934  1.00  0.00     0.048 C 
HETATM   17  C22 UNL     1      10.288  10.036  -9.798  1.00  0.00     0.022 A 
ENDBRANCH   3   6
ENDBRANCH   1   3
BRANCH   1  18
HETATM   18  N3  UNL     1      13.624   5.946  -7.827  1.00  0.00    -0.290 N 
ATOM     19  H3  UNL     1      14.008   5.705  -8.741  1.00  0.00     0.187 HD
BRANCH  18  20
HETATM   20  C9  UNL     1      13.724   5.094  -6.859  1.00  0.00     0.063 A 
HETATM   21  C10 UNL     1      13.911   5.468  -5.547  1.00  0.00     0.056 A 
HETATM   22  C11 UNL     1      14.004   4.483  -4.587  1.00  0.00     0.008 A 
HETATM   23  C12 UNL     1      14.209   4.931  -3.172  1.00  0.00     0.068 C 
HETATM   24  N4  UNL     1      13.916   3.181  -4.909  1.00  0.00    -0.359 N 
HETATM   25  C13 UNL     1      13.733   2.779  -6.180  1.00  0.00     0.045 A 
ATOM     26  H4  UNL     1      13.991   2.480  -4.173  1.00  0.00     0.166 HD
HETATM   27  C14 UNL     1      13.640   1.450  -6.536  1.00  0.00     0.037 A 
HETATM   28  C20 UNL     1      13.638   3.750  -7.154  1.00  0.00     0.019 A 
HETATM   29  C15 UNL     1      13.454   1.017  -7.824  1.00  0.00    -0.054 A 
HETATM   30  C16 UNL     1      13.363  -0.431  -8.126  1.00  0.00     0.049 C 
HETATM   31  C17 UNL     1      13.357   1.979  -8.802  1.00  0.00    -0.055 A 
HETATM   32  C18 UNL     1      13.153   1.528 -10.210  1.00  0.00     0.049 C 
HETATM   33  C19 UNL     1      13.447   3.316  -8.473  1.00  0.00     0.023 A 
ENDBRANCH  18  20
ENDBRANCH   1  18
TORSDOF 4
ENDMDL
MODEL 3
REMARK VINA RESULT: -11.292676127      1.375      3.123
REMARK  4 active torsions:
REMARK  status: ('A' for Active; 'I' for Inactive)
REMARK    1  A    between atoms: C8_10  and  S1_11 
REMARK    2  A    between atoms: S1_11  and  N2_14 
REMARK    3  A    between atoms: N2_14  and  N3_16 
REMARK    4  A    between atoms: N3_16  and  C9_18 
ROOT
HETATM    1  N2  UNL     1      12.592   5.104 -10.679  1.00  0.00    -0.222 N 
ATOM      2  H2  UNL     1      13.029   4.871 -11.570  1.00  0.00     0.200 HD
ENDROOT
BRANCH   1   3
HETATM    3  S1  UNL     1      11.081   5.949 -10.603  1.00  0.00     0.279 S 
HETATM    4  O1  UNL     1      10.302   5.282  -9.482  1.00  0.00    -0.199 OA
HETATM    5  O2  UNL     1      10.330   5.640 -11.866  1.00  0.00    -0.199 OA
BRANCH   3   6
HETATM    6  C8  UNL     1      11.294   7.636 -10.317  1.00  0.00     0.115 A 
HETATM    7  C6  UNL     1      11.813   8.216  -9.184  1.00  0.00     0.030 A 
HETATM    8  N1  UNL     1      11.819   9.573  -9.339  1.00  0.00    -0.358 N 
HETATM    9  C7  UNL     1      12.308   7.578  -7.952  1.00  0.00     0.070 C 
HETATM   10  C5  UNL     1      11.322   9.888 -10.533  1.00  0.00     0.044 A 
ATOM     11  H1  UNL     1      12.153  10.243  -8.646  1.00  0.00     0.166 HD
HETATM   12  C4  UNL     1      11.112  11.105 -11.170  1.00  0.00     0.031 A 
HETATM   13  C21 UNL     1      10.989   8.691 -11.158  1.00  0.00     0.016 A 
HETATM   14  C3  UNL     1      10.565  11.088 -12.438  1.00  0.00     0.009 A 
HETATM   15  C2  UNL     1      10.238   9.889 -13.050  1.00  0.00    -0.061 A 
HETATM   16  C1  UNL     1       9.649   9.879 -14.411  1.00  0.00     0.048 C 
HETATM   17  C22 UNL     1      10.447   8.694 -12.417  1.00  0.00     0.022 A 
ENDBRANCH   3   6
ENDBRANCH   1   3
BRANCH   1  18
HETATM   18  N3  UNL     1      13.183   4.757  -9.461  1.00  0.00    -0.290 N 
ATOM     19  H3  UNL     1      13.584   5.491  -8.877  1.00  0.00     0.187 HD
BRANCH  18  20
HETATM   20  C9  UNL     1      13.237   3.529  -9.053  1.00  0.00     0.063 A 
HETATM   21  C10 UNL     1      13.075   2.452  -9.895  1.00  0.00     0.056 A 
HETATM   22  C11 UNL     1      13.151   1.182  -9.363  1.00  0.00     0.008 A 
HETATM   23  C12 UNL     1      12.969   0.036 -10.311  1.00  0.00     0.068 C 
HETATM   24  N4  UNL     1      13.376   0.985  -8.052  1.00  0.00    -0.359 N 
HETATM   25  C13 UNL     1      13.539   2.013  -7.201  1.00  0.00     0.045 A 
ATOM     26  H4  UNL     1      13.424   0.031  -7.695  1.00  0.00     0.166 HD
HETATM   27  C14 UNL     1      13.771   1.837  -5.853  1.00  0.00     0.037 A 
HETATM   28  C20 UNL     1      13.467   3.291  -7.715  1.00  0.00     0.019 A 
HETATM   29  C15 UNL     1      13.940   2.870  -4.967  1.00  0.00    -0.054 A 
HETATM   30  C16 UNL     1      14.186   2.597  -3.531  1.00  0.00     0.049 C 
HETATM   31  C17 UNL     1      13.870   4.147  -5.471  1.00  0.00    -0.055 A 
HETATM   32  C18 UNL     1      14.052   5.285  -4.523  1.00  0.00     0.049 C 
HETATM   33  C19 UNL     1      13.638   4.352  -6.816  1.00  0.00     0.023 A 
ENDBRANCH  18  20
ENDBRANCH   1  18
TORSDOF 4
ENDMDL
MODEL 4
REMARK VINA RESULT: -11.234092327      1.926      2.660
REMARK  4 active torsions:
REMARK  status: ('A' for Active; 'I' for Inactive)
REMARK    1  A    between atoms: C8_10  and  S1_11 
REMARK    2  A    between atoms: S1_11  and  N2_14 
REMARK    3  A    between atoms: N2_14  and  N3_16 
REMARK    4  A    between atoms: N3_16  and  C9_18 
ROOT
HETATM    1  N2  UNL     1      10.596   7.501  -8.958  1.00  0.00    -0.222 N 
ATOM      2  H2  UNL     1       9.914   7.808  -8.265  1.00  0.00     0.200 HD
ENDROOT
BRANCH   1   3
HETATM    3  S1  UNL     1      11.524   8.637  -9.880  1.00  0.00     0.279 S 
HETATM    4  O1  UNL     1      12.958   8.138  -9.809  1.00  0.00    -0.199 OA
HETATM    5  O2  UNL     1      11.506   9.941  -9.137  1.00  0.00    -0.199 OA
BRANCH   3   6
HETATM    6  C8  UNL     1      10.970   8.758 -11.509  1.00  0.00     0.115 A 
HETATM    7  C6  UNL     1      11.020   7.773 -12.466  1.00  0.00     0.030 A 
HETATM    8  N1  UNL     1      10.484   8.253 -13.628  1.00  0.00    -0.358 N 
HETATM    9  C7  UNL     1      11.543   6.400 -12.367  1.00  0.00     0.070 C 
HETATM   10  C5  UNL     1      10.090   9.512 -13.452  1.00  0.00     0.044 A 
ATOM     11  H1  UNL     1      10.399   7.726 -14.498  1.00  0.00     0.166 HD
HETATM   12  C4  UNL     1       9.495  10.436 -14.302  1.00  0.00     0.031 A 
HETATM   13  C21 UNL     1      10.386   9.845 -12.135  1.00  0.00     0.016 A 
HETATM   14  C3  UNL     1       9.207  11.690 -13.799  1.00  0.00     0.009 A 
HETATM   15  C2  UNL     1       9.506  12.008 -12.484  1.00  0.00    -0.061 A 
HETATM   16  C1  UNL     1       9.195  13.357 -11.952  1.00  0.00     0.048 C 
HETATM   17  C22 UNL     1      10.093  11.094 -11.653  1.00  0.00     0.022 A 
ENDBRANCH   3   6
ENDBRANCH   1   3
BRANCH   1  18
HETATM   18  N3  UNL     1      10.826   6.145  -9.208  1.00  0.00    -0.290 N 
ATOM     19  H3  UNL     1      10.287   5.677  -9.936  1.00  0.00     0.187 HD
BRANCH  18  20
HETATM   20  C9  UNL     1      11.705   5.467  -8.542  1.00  0.00     0.063 A 
HETATM   21  C10 UNL     1      12.396   5.985  -7.470  1.00  0.00     0.056 A 
HETATM   22  C11 UNL     1      13.312   5.181  -6.825  1.00  0.00     0.008 A 
HETATM   23  C12 UNL     1      14.043   5.780  -5.663  1.00  0.00     0.068 C 
HETATM   24  N4  UNL     1      13.537   3.917  -7.225  1.00  0.00    -0.359 N 
HETATM   25  C13 UNL     1      12.881   3.379  -8.268  1.00  0.00     0.045 A 
ATOM     26  H4  UNL     1      14.223   3.352  -6.725  1.00  0.00     0.166 HD
HETATM   27  C14 UNL     1      13.094   2.085  -8.697  1.00  0.00     0.037 A 
HETATM   28  C20 UNL     1      11.960   4.168  -8.926  1.00  0.00     0.019 A 
HETATM   29  C15 UNL     1      12.438   1.516  -9.758  1.00  0.00    -0.054 A 
HETATM   30  C16 UNL     1      12.723   0.117 -10.157  1.00  0.00     0.049 C 
HETATM   31  C17 UNL     1      11.517   2.296 -10.418  1.00  0.00    -0.055 A 
HETATM   32  C18 UNL     1      10.791   1.694 -11.576  1.00  0.00     0.049 C 
HETATM   33  C19 UNL     1      11.285   3.593 -10.010  1.00  0.00     0.023 A 
ENDBRANCH  18  20
ENDBRANCH   1  18
TORSDOF 4
ENDMDL
MODEL 5
REMARK VINA RESULT: -11.154532087      2.327      4.196
REMARK  4 active torsions:
REMARK  status: ('A' for Active; 'I' for Inactive)
REMARK    1  A    between atoms: C8_10  and  S1_11 
REMARK    2  A    between atoms: S1_11  and  N2_14 
REMARK    3  A    between atoms: N2_14  and  N3_16 
REMARK    4  A    between atoms: N3_16  and  C9_18 
ROOT
HETATM    1  N2  UNL     1      12.207   4.643  -7.993  1.00  0.00    -0.222 N 
ATOM      2  H2  UNL     1      11.268   4.257  -8.098  1.00  0.00     0.200 HD
ENDROOT
BRANCH   1   3
HETATM    3  S1  UNL     1      12.573   6.271  -8.459  1.00  0.00     0.279 S 
HETATM    4  O1  UNL     1      14.090   6.363  -8.439  1.00  0.00    -0.199 OA
HETATM    5  O2  UNL     1      12.094   7.172  -7.358  1.00  0.00    -0.199 OA
BRANCH   3   6
HETATM    6  C8  UNL     1      11.929   6.664 -10.009  1.00  0.00     0.115 A 
HETATM    7  C6  UNL     1      11.817   5.820 -11.088  1.00  0.00     0.030 A 
HETATM    8  N1  UNL     1      11.257   6.501 -12.132  1.00  0.00    -0.358 N 
HETATM    9  C7  UNL     1      12.204   4.404 -11.209  1.00  0.00     0.070 C 
HETATM   10  C5  UNL     1      11.004   7.755 -11.762  1.00  0.00     0.044 A 
ATOM     11  H1  UNL     1      11.063   6.109 -13.053  1.00  0.00     0.166 HD
HETATM   12  C4  UNL     1      10.450   8.837 -12.435  1.00  0.00     0.031 A 
HETATM   13  C21 UNL     1      11.417   7.875 -10.440  1.00  0.00     0.016 A 
HETATM   14  C3  UNL     1      10.323  10.030 -11.752  1.00  0.00     0.009 A 
HETATM   15  C2  UNL     1      10.738  10.136 -10.434  1.00  0.00    -0.061 A 
HETATM   16  C1  UNL     1      10.599  11.422  -9.708  1.00  0.00     0.048 C 
HETATM   17  C22 UNL     1      11.283   9.067  -9.778  1.00  0.00     0.022 A 
ENDBRANCH   3   6
ENDBRANCH   1   3
BRANCH   1  18
HETATM   18  N3  UNL     1      13.256   3.883  -7.469  1.00  0.00    -0.290 N 
ATOM     19  H3  UNL     1      13.979   4.349  -6.920  1.00  0.00     0.187 HD
BRANCH  18  20
HETATM   20  C9  UNL     1      13.336   2.605  -7.659  1.00  0.00     0.063 A 
HETATM   21  C10 UNL     1      13.104   2.013  -8.880  1.00  0.00     0.056 A 
HETATM   22  C11 UNL     1      13.215   0.642  -8.979  1.00  0.00     0.008 A 
HETATM   23  C12 UNL     1      12.955   0.036 -10.324  1.00  0.00     0.068 C 
HETATM   24  N4  UNL     1      13.541  -0.113  -7.915  1.00  0.00    -0.359 N 
HETATM   25  C13 UNL     1      13.775   0.432  -6.708  1.00  0.00     0.045 A 
ATOM     26  H4  UNL     1      13.613  -1.124  -8.027  1.00  0.00     0.166 HD
HETATM   27  C14 UNL     1      14.110  -0.321  -5.602  1.00  0.00     0.037 A 
HETATM   28  C20 UNL     1      13.668   1.802  -6.589  1.00  0.00     0.019 A 
HETATM   29  C15 UNL     1      14.352   0.212  -4.362  1.00  0.00    -0.054 A 
HETATM   30  C16 UNL     1      14.709  -0.665  -3.222  1.00  0.00     0.049 C 
HETATM   31  C17 UNL     1      14.249   1.578  -4.235  1.00  0.00    -0.055 A 
HETATM   32  C18 UNL     1      14.509   2.177  -2.893  1.00  0.00     0.049 C 
HETATM   33  C19 UNL     1      13.914   2.354  -5.325  1.00  0.00     0.023 A 
ENDBRANCH  18  20
ENDBRANCH   1  18
TORSDOF 4
ENDMDL
