MODEL 1
REMARK VINA RESULT: -9.294130104      0.000      0.000
REMARK  6 active torsions:
REMARK  status: ('A' for Active; 'I' for Inactive)
REMARK    1  A    between atoms: C7_7  and  N1_8 
REMARK       I    between atoms: N1_8  and  C8_10 
REMARK       I    between atoms: C8_10  and  N2_12 
REMARK    2  A    between atoms: N2_12  and  C9_14 
REMARK    3  A    between atoms: C13_22  and  O2_23 
REMARK    4  A    between atoms: C13_22  and  N5_25 
REMARK    5  A    between atoms: N5_25  and  C14_26 
REMARK    6  A    between atoms: N5_25  and  C17_29 
ROOT
HETATM    1  C9  UNL     1      16.000   2.690  -4.499  1.00  0.00     0.111 A 
HETATM    2  C10 UNL     1      17.145   2.293  -5.195  1.00  0.00     0.080 A 
HETATM    3  C11 UNL     1      17.582   0.987  -5.196  1.00  0.00     0.065 A 
HETATM    4  N3  UNL     1      18.619   0.364  -5.774  1.00  0.00    -0.299 N 
ATOM      5  H3  UNL     1      19.319   0.816  -6.361  1.00  0.00     0.187 HD
HETATM    6  N4  UNL     1      18.600  -0.891  -5.478  1.00  0.00    -0.295 N 
ATOM      7  H4  UNL     1      19.293  -1.563  -5.806  1.00  0.00     0.187 HD
HETATM    8  C12 UNL     1      17.579  -1.204  -4.700  1.00  0.00     0.112 A 
HETATM    9  C13 UNL     1      17.188  -2.455  -4.149  1.00  0.00     0.169 C 
HETATM   10  C21 UNL     1      16.892   0.007  -4.498  1.00  0.00     0.040 A 
HETATM   11  C22 UNL     1      15.776   0.427  -3.828  1.00  0.00     0.106 A 
HETATM   12  N6  UNL     1      15.352   1.730  -3.835  1.00  0.00    -0.351 N 
ATOM     13  H6  UNL     1      14.509   1.975  -3.314  1.00  0.00     0.166 HD
ENDROOT
BRANCH   1  14
HETATM   14  N2  UNL     1      15.670   3.934  -4.530  1.00  0.00    -0.294 N 
HETATM   15  C8  UNL     1      14.592   4.451  -5.348  1.00  0.00     0.326 C 
HETATM   16  N1  UNL     1      14.654   4.317  -6.727  1.00  0.00    -0.309 N 
HETATM   17  O1  UNL     1      13.623   5.017  -4.777  1.00  0.00    -0.247 OA
ATOM     18  H1  UNL     1      15.480   3.834  -7.080  1.00  0.00     0.170 HD
ATOM     19  H2  UNL     1      16.193   4.589  -3.949  1.00  0.00     0.172 HD
BRANCH  16  20
HETATM   20  C7  UNL     1      13.746   4.749  -7.711  1.00  0.00     0.037 A 
HETATM   21  C6  UNL     1      12.865   3.824  -8.298  1.00  0.00     0.036 A 
HETATM   22  C4  UNL     1      11.970   4.142  -9.276  1.00  0.00    -0.059 A 
HETATM   23  C3  UNL     1      11.926   5.446  -9.712  1.00  0.00     0.013 A 
HETATM   24  C5  UNL     1      11.066   3.086  -9.851  1.00  0.00     0.048 C 
HETATM   25  C2  UNL     1      12.757   6.382  -9.179  1.00  0.00    -0.059 A 
HETATM   26  C1  UNL     1      12.735   7.786  -9.629  1.00  0.00     0.048 C 
HETATM   27  C23 UNL     1      13.666   6.016  -8.174  1.00  0.00     0.036 A 
ENDBRANCH  16  20
ENDBRANCH   1  14
BRANCH   9  28
HETATM   28  O2  UNL     1      16.097  -2.356  -3.381  1.00  0.00    -0.344 OA
ATOM     29  H2  UNL     1      15.299  -2.290  -3.892  1.00  0.00     0.219 HD
ENDBRANCH   9  28
BRANCH   9  30
HETATM   30  N5  UNL     1      17.671  -3.767  -4.215  1.00  0.00    -0.348 N 
BRANCH  30  31
HETATM   31  C14 UNL     1      18.362  -4.239  -2.987  1.00  0.00     0.079 C 
HETATM   32  C15 UNL     1      17.347  -4.674  -1.960  1.00  0.00     0.032 C 
HETATM   33  C16 UNL     1      19.429  -3.334  -2.497  1.00  0.00     0.032 C 
ENDBRANCH  30  31
BRANCH  30  34
HETATM   34  C17 UNL     1      17.521  -4.606  -5.330  1.00  0.00     0.024 C 
HETATM   35  C18 UNL     1      16.093  -5.031  -5.523  1.00  0.00     0.037 C 
HETATM   36  C19 UNL     1      18.404  -5.850  -5.163  1.00  0.00     0.037 C 
HETATM   37  C20 UNL     1      17.972  -4.042  -6.667  1.00  0.00     0.037 C 
ENDBRANCH  30  34
ENDBRANCH   9  30
TORSDOF 6
ENDMDL
MODEL 2
REMARK VINA RESULT: -9.281187837      2.385     10.090
REMARK  6 active torsions:
REMARK  status: ('A' for Active; 'I' for Inactive)
REMARK    1  A    between atoms: C7_7  and  N1_8 
REMARK       I    between atoms: N1_8  and  C8_10 
REMARK       I    between atoms: C8_10  and  N2_12 
REMARK    2  A    between atoms: N2_12  and  C9_14 
REMARK    3  A    between atoms: C13_22  and  O2_23 
REMARK    4  A    between atoms: C13_22  and  N5_25 
REMARK    5  A    between atoms: N5_25  and  C14_26 
REMARK    6  A    between atoms: N5_25  and  C17_29 
ROOT
HETATM    1  C9  UNL     1      16.327   4.266  -5.761  1.00  0.00     0.111 A 
HETATM    2  C10 UNL     1      15.400   5.119  -5.155  1.00  0.00     0.080 A 
HETATM    3  C11 UNL     1      14.334   5.649  -5.847  1.00  0.00     0.065 A 
HETATM    4  N3  UNL     1      13.327   6.464  -5.504  1.00  0.00    -0.299 N 
ATOM      5  H3  UNL     1      13.187   6.861  -4.575  1.00  0.00     0.187 HD
HETATM    6  N4  UNL     1      12.562   6.672  -6.521  1.00  0.00    -0.295 N 
ATOM      7  H4  UNL     1      11.731   7.263  -6.496  1.00  0.00     0.187 HD
HETATM    8  C12 UNL     1      12.980   6.033  -7.598  1.00  0.00     0.112 A 
HETATM    9  C13 UNL     1      12.440   5.986  -8.913  1.00  0.00     0.169 C 
HETATM   10  C21 UNL     1      14.141   5.351  -7.188  1.00  0.00     0.040 A 
HETATM   11  C22 UNL     1      15.065   4.514  -7.752  1.00  0.00     0.106 A 
HETATM   12  N6  UNL     1      16.121   3.994  -7.051  1.00  0.00    -0.351 N 
ATOM     13  H6  UNL     1      16.773   3.375  -7.533  1.00  0.00     0.166 HD
ENDROOT
BRANCH   1  14
HETATM   14  N2  UNL     1      17.308   3.830  -5.049  1.00  0.00    -0.294 N 
HETATM   15  C8  UNL     1      17.874   2.505  -5.203  1.00  0.00     0.326 C 
HETATM   16  N1  UNL     1      17.077   1.391  -4.990  1.00  0.00    -0.309 N 
HETATM   17  O1  UNL     1      19.087   2.405  -5.524  1.00  0.00    -0.247 OA
ATOM     18  H1  UNL     1      16.107   1.591  -4.744  1.00  0.00     0.170 HD
ATOM     19  H2  UNL     1      17.706   4.448  -4.342  1.00  0.00     0.172 HD
BRANCH  16  20
HETATM   20  C7  UNL     1      17.407   0.025  -5.063  1.00  0.00     0.037 A 
HETATM   21  C6  UNL     1      18.111  -0.461  -6.180  1.00  0.00     0.036 A 
HETATM   22  C4  UNL     1      18.452  -1.769  -6.352  1.00  0.00    -0.059 A 
HETATM   23  C3  UNL     1      18.088  -2.666  -5.376  1.00  0.00     0.013 A 
HETATM   24  C5  UNL     1      19.203  -2.202  -7.582  1.00  0.00     0.048 C 
HETATM   25  C2  UNL     1      17.405  -2.250  -4.275  1.00  0.00    -0.059 A 
HETATM   26  C1  UNL     1      16.997  -3.189  -3.212  1.00  0.00     0.048 C 
HETATM   27  C23 UNL     1      17.071  -0.894  -4.132  1.00  0.00     0.036 A 
ENDBRANCH  16  20
ENDBRANCH   1  14
BRANCH   9  28
HETATM   28  O2  UNL     1      13.177   5.238  -9.742  1.00  0.00    -0.344 OA
ATOM     29  H2  UNL     1      13.100   4.310  -9.557  1.00  0.00     0.219 HD
ENDBRANCH   9  28
BRANCH   9  30
HETATM   30  N5  UNL     1      11.322   6.537  -9.549  1.00  0.00    -0.348 N 
BRANCH  30  31
HETATM   31  C14 UNL     1      11.334   8.018  -9.660  1.00  0.00     0.079 C 
HETATM   32  C15 UNL     1      12.639   8.479 -10.261  1.00  0.00     0.032 C 
HETATM   33  C16 UNL     1      10.902   8.728  -8.434  1.00  0.00     0.032 C 
ENDBRANCH  30  31
BRANCH  30  34
HETATM   34  C17 UNL     1      10.260   5.780 -10.069  1.00  0.00     0.024 C 
HETATM   35  C18 UNL     1      10.480   4.305  -9.887  1.00  0.00     0.037 C 
HETATM   36  C19 UNL     1      10.088   6.089 -11.562  1.00  0.00     0.037 C 
HETATM   37  C20 UNL     1       8.881   6.069  -9.499  1.00  0.00     0.037 C 
ENDBRANCH  30  34
ENDBRANCH   9  30
TORSDOF 6
ENDMDL
MODEL 3
REMARK VINA RESULT: -9.223781555      0.188      1.535
REMARK  6 active torsions:
REMARK  status: ('A' for Active; 'I' for Inactive)
REMARK    1  A    between atoms: C7_7  and  N1_8 
REMARK       I    between atoms: N1_8  and  C8_10 
REMARK       I    between atoms: C8_10  and  N2_12 
REMARK    2  A    between atoms: N2_12  and  C9_14 
REMARK    3  A    between atoms: C13_22  and  O2_23 
REMARK    4  A    between atoms: C13_22  and  N5_25 
REMARK    5  A    between atoms: N5_25  and  C14_26 
REMARK    6  A    between atoms: N5_25  and  C17_29 
ROOT
HETATM    1  C9  UNL     1      15.977   2.749  -4.682  1.00  0.00     0.111 A 
HETATM    2  C10 UNL     1      17.157   2.363  -5.325  1.00  0.00     0.080 A 
HETATM    3  C11 UNL     1      17.616   1.065  -5.289  1.00  0.00     0.065 A 
HETATM    4  N3  UNL     1      18.685   0.452  -5.816  1.00  0.00    -0.299 N 
ATOM      5  H3  UNL     1      19.401   0.908  -6.382  1.00  0.00     0.187 HD
HETATM    6  N4  UNL     1      18.677  -0.798  -5.501  1.00  0.00    -0.295 N 
ATOM      7  H4  UNL     1      19.394  -1.463  -5.791  1.00  0.00     0.187 HD
HETATM    8  C12 UNL     1      17.631  -1.118  -4.760  1.00  0.00     0.112 A 
HETATM    9  C13 UNL     1      17.240  -2.368  -4.205  1.00  0.00     0.169 C 
HETATM   10  C21 UNL     1      16.915   0.083  -4.604  1.00  0.00     0.040 A 
HETATM   11  C22 UNL     1      15.766   0.493  -3.986  1.00  0.00     0.106 A 
HETATM   12  N6  UNL     1      15.320   1.788  -4.030  1.00  0.00    -0.351 N 
ATOM     13  H6  UNL     1      14.454   2.025  -3.546  1.00  0.00     0.166 HD
ENDROOT
BRANCH   1  14
HETATM   14  N2  UNL     1      15.627   3.987  -4.745  1.00  0.00    -0.294 N 
HETATM   15  C8  UNL     1      14.530   4.462  -5.564  1.00  0.00     0.326 C 
HETATM   16  N1  UNL     1      14.576   4.288  -6.938  1.00  0.00    -0.309 N 
HETATM   17  O1  UNL     1      13.560   5.030  -4.996  1.00  0.00    -0.247 OA
ATOM     18  H1  UNL     1      15.404   3.807  -7.288  1.00  0.00     0.170 HD
ATOM     19  H2  UNL     1      16.148   4.667  -4.192  1.00  0.00     0.172 HD
BRANCH  16  20
HETATM   20  C7  UNL     1      13.648   4.676  -7.922  1.00  0.00     0.037 A 
HETATM   21  C6  UNL     1      13.632   6.007  -8.376  1.00  0.00     0.036 A 
HETATM   22  C4  UNL     1      12.755   6.483  -9.305  1.00  0.00    -0.059 A 
HETATM   23  C3  UNL     1      11.832   5.609  -9.829  1.00  0.00     0.013 A 
HETATM   24  C5  UNL     1      12.807   7.925  -9.729  1.00  0.00     0.048 C 
HETATM   25  C2  UNL     1      11.802   4.310  -9.425  1.00  0.00    -0.059 A 
HETATM   26  C1  UNL     1      10.823   3.350  -9.967  1.00  0.00     0.048 C 
HETATM   27  C23 UNL     1      12.722   3.857  -8.466  1.00  0.00     0.036 A 
ENDBRANCH  16  20
ENDBRANCH   1  14
BRANCH   9  28
HETATM   28  O2  UNL     1      16.118  -2.277  -3.483  1.00  0.00    -0.344 OA
ATOM     29  H2  UNL     1      15.696  -3.119  -3.361  1.00  0.00     0.219 HD
ENDBRANCH   9  28
BRANCH   9  30
HETATM   30  N5  UNL     1      17.748  -3.671  -4.232  1.00  0.00    -0.348 N 
BRANCH  30  31
HETATM   31  C14 UNL     1      18.451  -4.092  -2.992  1.00  0.00     0.079 C 
HETATM   32  C15 UNL     1      17.455  -4.626  -1.991  1.00  0.00     0.032 C 
HETATM   33  C16 UNL     1      19.421  -3.100  -2.470  1.00  0.00     0.032 C 
ENDBRANCH  30  31
BRANCH  30  34
HETATM   34  C17 UNL     1      17.612  -4.548  -5.319  1.00  0.00     0.024 C 
HETATM   35  C18 UNL     1      16.186  -4.977  -5.518  1.00  0.00     0.037 C 
HETATM   36  C19 UNL     1      18.490  -5.787  -5.098  1.00  0.00     0.037 C 
HETATM   37  C20 UNL     1      18.083  -4.030  -6.668  1.00  0.00     0.037 C 
ENDBRANCH  30  34
ENDBRANCH   9  30
TORSDOF 6
ENDMDL
MODEL 4
REMARK VINA RESULT: -9.221672526      2.394     10.100
REMARK  6 active torsions:
REMARK  status: ('A' for Active; 'I' for Inactive)
REMARK    1  A    between atoms: C7_7  and  N1_8 
REMARK       I    between atoms: N1_8  and  C8_10 
REMARK       I    between atoms: C8_10  and  N2_12 
REMARK    2  A    between atoms: N2_12  and  C9_14 
REMARK    3  A    between atoms: C13_22  and  O2_23 
REMARK    4  A    between atoms: C13_22  and  N5_25 
REMARK    5  A    between atoms: N5_25  and  C14_26 
REMARK    6  A    between atoms: N5_25  and  C17_29 
ROOT
HETATM    1  C9  UNL     1      16.298   4.284  -5.748  1.00  0.00     0.111 A 
HETATM    2  C10 UNL     1      15.394   5.157  -5.136  1.00  0.00     0.080 A 
HETATM    3  C11 UNL     1      14.330   5.702  -5.819  1.00  0.00     0.065 A 
HETATM    4  N3  UNL     1      13.342   6.538  -5.468  1.00  0.00    -0.299 N 
ATOM      5  H3  UNL     1      13.221   6.943  -4.541  1.00  0.00     0.187 HD
HETATM    6  N4  UNL     1      12.569   6.755  -6.477  1.00  0.00    -0.295 N 
ATOM      7  H4  UNL     1      11.749   7.361  -6.446  1.00  0.00     0.187 HD
HETATM    8  C12 UNL     1      12.962   6.101  -7.556  1.00  0.00     0.112 A 
HETATM    9  C13 UNL     1      12.405   6.058  -8.863  1.00  0.00     0.169 C 
HETATM   10  C21 UNL     1      14.115   5.401  -7.156  1.00  0.00     0.040 A 
HETATM   11  C22 UNL     1      15.017   4.544  -7.725  1.00  0.00     0.106 A 
HETATM   12  N6  UNL     1      16.071   4.008  -7.034  1.00  0.00    -0.351 N 
ATOM     13  H6  UNL     1      16.706   3.375  -7.521  1.00  0.00     0.166 HD
ENDROOT
BRANCH   1  14
HETATM   14  N2  UNL     1      17.279   3.834  -5.046  1.00  0.00    -0.294 N 
HETATM   15  C8  UNL     1      17.861   2.522  -5.242  1.00  0.00     0.326 C 
HETATM   16  N1  UNL     1      17.076   1.392  -5.074  1.00  0.00    -0.309 N 
HETATM   17  O1  UNL     1      19.078   2.446  -5.559  1.00  0.00    -0.247 OA
ATOM     18  H1  UNL     1      16.103   1.572  -4.828  1.00  0.00     0.170 HD
ATOM     19  H2  UNL     1      17.666   4.431  -4.315  1.00  0.00     0.172 HD
BRANCH  16  20
HETATM   20  C7  UNL     1      17.422   0.034  -5.194  1.00  0.00     0.037 A 
HETATM   21  C6  UNL     1      17.083  -0.863  -4.165  1.00  0.00     0.036 A 
HETATM   22  C4  UNL     1      17.398  -2.190  -4.179  1.00  0.00    -0.059 A 
HETATM   23  C3  UNL     1      18.088  -2.679  -5.263  1.00  0.00     0.013 A 
HETATM   24  C5  UNL     1      16.998  -3.077  -3.031  1.00  0.00     0.048 C 
HETATM   25  C2  UNL     1      18.442  -1.855  -6.286  1.00  0.00    -0.059 A 
HETATM   26  C1  UNL     1      19.185  -2.349  -7.461  1.00  0.00     0.048 C 
HETATM   27  C23 UNL     1      18.100  -0.494  -6.237  1.00  0.00     0.036 A 
ENDBRANCH  16  20
ENDBRANCH   1  14
BRANCH   9  28
HETATM   28  O2  UNL     1      13.118   5.292  -9.697  1.00  0.00    -0.344 OA
ATOM     29  H2  UNL     1      13.234   4.408  -9.368  1.00  0.00     0.219 HD
ENDBRANCH   9  28
BRANCH   9  30
HETATM   30  N5  UNL     1      11.290   6.625  -9.490  1.00  0.00    -0.348 N 
BRANCH  30  31
HETATM   31  C14 UNL     1      11.332   8.104  -9.619  1.00  0.00     0.079 C 
HETATM   32  C15 UNL     1      12.633   8.528 -10.255  1.00  0.00     0.032 C 
HETATM   33  C16 UNL     1      10.946   8.838  -8.391  1.00  0.00     0.032 C 
ENDBRANCH  30  31
BRANCH  30  34
HETATM   34  C17 UNL     1      10.204   5.886  -9.984  1.00  0.00     0.024 C 
HETATM   35  C18 UNL     1      10.404   4.408  -9.807  1.00  0.00     0.037 C 
HETATM   36  C19 UNL     1      10.002   6.198 -11.473  1.00  0.00     0.037 C 
HETATM   37  C20 UNL     1       8.844   6.197  -9.381  1.00  0.00     0.037 C 
ENDBRANCH  30  34
ENDBRANCH   9  30
TORSDOF 6
ENDMDL
MODEL 5
REMARK VINA RESULT: -9.209875720      2.019      9.804
REMARK  6 active torsions:
REMARK  status: ('A' for Active; 'I' for Inactive)
REMARK    1  A    between atoms: C7_7  and  N1_8 
REMARK       I    between atoms: N1_8  and  C8_10 
REMARK       I    between atoms: C8_10  and  N2_12 
REMARK    2  A    between atoms: N2_12  and  C9_14 
REMARK    3  A    between atoms: C13_22  and  O2_23 
REMARK    4  A    between atoms: C13_22  and  N5_25 
REMARK    5  A    between atoms: N5_25  and  C14_26 
REMARK    6  A    between atoms: N5_25  and  C17_29 
ROOT
HETATM    1  C9  UNL     1      16.323   3.614  -5.274  1.00  0.00     0.111 A 
HETATM    2  C10 UNL     1      16.606   3.758  -6.636  1.00  0.00     0.080 A 
HETATM    3  C11 UNL     1      15.690   4.285  -7.519  1.00  0.00     0.065 A 
HETATM    4  N3  UNL     1      15.718   4.529  -8.837  1.00  0.00    -0.299 N 
ATOM      5  H3  UNL     1      16.508   4.335  -9.451  1.00  0.00     0.187 HD
HETATM    6  N4  UNL     1      14.598   5.045  -9.213  1.00  0.00    -0.295 N 
ATOM      7  H4  UNL     1      14.389   5.313 -10.175  1.00  0.00     0.187 HD
HETATM    8  C12 UNL     1      13.751   5.186  -8.209  1.00  0.00     0.112 A 
HETATM    9  C13 UNL     1      12.428   5.706  -8.183  1.00  0.00     0.169 C 
HETATM   10  C21 UNL     1      14.439   4.697  -7.083  1.00  0.00     0.040 A 
HETATM   11  C22 UNL     1      14.194   4.543  -5.746  1.00  0.00     0.106 A 
HETATM   12  N6  UNL     1      15.114   4.018  -4.878  1.00  0.00    -0.351 N 
ATOM     13  H6  UNL     1      14.866   3.932  -3.892  1.00  0.00     0.166 HD
ENDROOT
BRANCH   1  14
HETATM   14  N2  UNL     1      17.225   3.093  -4.518  1.00  0.00    -0.294 N 
HETATM   15  C8  UNL     1      17.845   1.811  -4.787  1.00  0.00     0.326 C 
HETATM   16  N1  UNL     1      17.063   0.668  -4.833  1.00  0.00    -0.309 N 
HETATM   17  O1  UNL     1      19.091   1.774  -4.968  1.00  0.00    -0.247 OA
ATOM     18  H1  UNL     1      16.066   0.818  -4.681  1.00  0.00     0.170 HD
ATOM     19  H2  UNL     1      17.518   3.607  -3.687  1.00  0.00     0.172 HD
BRANCH  16  20
HETATM   20  C7  UNL     1      17.441  -0.668  -5.058  1.00  0.00     0.037 A 
HETATM   21  C6  UNL     1      18.139  -1.005  -6.232  1.00  0.00     0.036 A 
HETATM   22  C4  UNL     1      18.524  -2.273  -6.550  1.00  0.00    -0.059 A 
HETATM   23  C3  UNL     1      18.212  -3.283  -5.670  1.00  0.00     0.013 A 
HETATM   24  C5  UNL     1      19.265  -2.543  -7.831  1.00  0.00     0.048 C 
HETATM   25  C2  UNL     1      17.537  -3.013  -4.520  1.00  0.00    -0.059 A 
HETATM   26  C1  UNL     1      17.186  -4.075  -3.558  1.00  0.00     0.048 C 
HETATM   27  C23 UNL     1      17.157  -1.694  -4.226  1.00  0.00     0.036 A 
ENDBRANCH  16  20
ENDBRANCH   1  14
BRANCH   9  28
HETATM   28  O2  UNL     1      11.884   5.655  -6.961  1.00  0.00    -0.344 OA
ATOM     29  H2  UNL     1      11.084   6.164  -6.899  1.00  0.00     0.219 HD
ENDBRANCH   9  28
BRANCH   9  30
HETATM   30  N5  UNL     1      11.556   6.257  -9.128  1.00  0.00    -0.348 N 
BRANCH  30  31
HETATM   31  C14 UNL     1      11.581   7.741  -9.208  1.00  0.00     0.079 C 
HETATM   32  C15 UNL     1      12.766   8.192 -10.026  1.00  0.00     0.032 C 
HETATM   33  C16 UNL     1      11.394   8.429  -7.909  1.00  0.00     0.032 C 
ENDBRANCH  30  31
BRANCH  30  34
HETATM   34  C17 UNL     1      10.719   5.501  -9.963  1.00  0.00     0.024 C 
HETATM   35  C18 UNL     1      11.029   5.722 -11.416  1.00  0.00     0.037 C 
HETATM   36  C19 UNL     1       9.253   5.865  -9.693  1.00  0.00     0.037 C 
HETATM   37  C20 UNL     1      10.742   3.995  -9.758  1.00  0.00     0.037 C 
ENDBRANCH  30  34
ENDBRANCH   9  30
TORSDOF 6
ENDMDL
