MODEL 1
REMARK VINA RESULT: -4.474174678      0.000      0.000
REMARK  6 active torsions:
REMARK  status: ('A' for Active; 'I' for Inactive)
REMARK    1  A    between atoms: O1_2  and  C2_3 
REMARK    2  A    between atoms: C2_3  and  C3_4 
REMARK       I    between atoms: C3_4  and  N1_6 
REMARK    3  A    between atoms: N1_6  and  C4_8 
REMARK    4  A    between atoms: C6_10  and  C7_11 
REMARK    5  A    between atoms: C8_12  and  C9_13 
REMARK    6  A    between atoms: C9_13  and  C10_14 
ROOT
HETATM    1  C4  UNL     1      -2.452   8.072  30.907  1.00  0.00     0.096 A 
HETATM    2  C5  UNL     1      -1.634   8.102  32.004  1.00  0.00     0.078 A 
HETATM    3  C6  UNL     1      -2.065   7.491  33.112  1.00  0.00     0.095 A 
HETATM    4  N2  UNL     1      -3.260   6.898  33.068  1.00  0.00    -0.318 N 
ATOM      5  H2  UNL     1      -3.741   6.391  33.811  1.00  0.00     0.175 HD
HETATM    6  S1  UNL     1      -3.785   7.185  31.498  1.00  0.00     0.004 SA
ENDROOT
BRANCH   1   7
HETATM    7  N1  UNL     1      -2.262   8.584  29.731  1.00  0.00    -0.318 N 
HETATM    8  C3  UNL     1      -2.865   9.763  29.291  1.00  0.00     0.246 C 
HETATM    9  O2  UNL     1      -3.706   9.749  28.373  1.00  0.00    -0.271 OA
ATOM     10  H1  UNL     1      -1.636   8.096  29.090  1.00  0.00     0.169 HD
BRANCH   8  11
HETATM   11  C2  UNL     1      -2.518  11.059  29.907  1.00  0.00     0.270 C 
BRANCH  11  12
HETATM   12  O1  UNL     1      -1.137  11.120  30.030  1.00  0.00    -0.387 OA
HETATM   13  C1  UNL     1      -0.789  11.754  31.211  1.00  0.00     0.202 C 
ENDBRANCH  11  12
ENDBRANCH   8  11
ENDBRANCH   1   7
BRANCH   3  14
HETATM   14  C7  UNL     1      -1.304   7.437  34.368  1.00  0.00    -0.048 C 
HETATM   15  C8  UNL     1      -0.660   7.403  35.398  1.00  0.00    -0.099 C 
BRANCH  15  16
HETATM   16  C9  UNL     1       0.115   7.387  36.624  1.00  0.00     0.109 C 
BRANCH  16  17
HETATM   17  C10 UNL     1      -0.174   8.706  37.347  1.00  0.00     0.126 C 
HETATM   18 CL1  UNL     1       0.559  10.011  36.393  1.00  0.00    -0.130 Cl
ENDBRANCH  16  17
ENDBRANCH  15  16
ENDBRANCH   3  14
TORSDOF 6
ENDMDL
MODEL 2
REMARK VINA RESULT: -4.257690539      4.307      6.499
REMARK  6 active torsions:
REMARK  status: ('A' for Active; 'I' for Inactive)
REMARK    1  A    between atoms: O1_2  and  C2_3 
REMARK    2  A    between atoms: C2_3  and  C3_4 
REMARK       I    between atoms: C3_4  and  N1_6 
REMARK    3  A    between atoms: N1_6  and  C4_8 
REMARK    4  A    between atoms: C6_10  and  C7_11 
REMARK    5  A    between atoms: C8_12  and  C9_13 
REMARK    6  A    between atoms: C9_13  and  C10_14 
ROOT
HETATM    1  C4  UNL     1       0.002   9.162  36.049  1.00  0.00     0.096 A 
HETATM    2  C5  UNL     1      -0.547   9.194  34.796  1.00  0.00     0.078 A 
HETATM    3  C6  UNL     1      -0.948   8.032  34.270  1.00  0.00     0.095 A 
HETATM    4  N2  UNL     1      -0.784   6.928  35.003  1.00  0.00    -0.318 N 
ATOM      5  H2  UNL     1      -1.030   5.968  34.762  1.00  0.00     0.175 HD
HETATM    6  S1  UNL     1      -0.076   7.496  36.417  1.00  0.00     0.004 SA
ENDROOT
BRANCH   1   7
HETATM    7  N1  UNL     1       0.462  10.140  36.766  1.00  0.00    -0.318 N 
HETATM    8  C3  UNL     1      -0.334  11.166  37.280  1.00  0.00     0.246 C 
HETATM    9  O2  UNL     1      -0.210  12.336  36.877  1.00  0.00    -0.271 OA
ATOM     10  H1  UNL     1       1.462  10.162  36.964  1.00  0.00     0.169 HD
BRANCH   8  11
HETATM   11  C2  UNL     1      -1.343  10.883  38.319  1.00  0.00     0.270 C 
BRANCH  11  12
HETATM   12  O1  UNL     1      -2.600  11.054  37.756  1.00  0.00    -0.387 OA
HETATM   13  C1  UNL     1      -3.244   9.834  37.641  1.00  0.00     0.202 C 
ENDBRANCH  11  12
ENDBRANCH   8  11
ENDBRANCH   1   7
BRANCH   3  14
HETATM   14  C7  UNL     1      -1.555   7.902  32.937  1.00  0.00    -0.048 C 
HETATM   15  C8  UNL     1      -2.043   7.782  31.831  1.00  0.00    -0.099 C 
BRANCH  15  16
HETATM   16  C9  UNL     1      -2.619   7.614  30.510  1.00  0.00     0.109 C 
BRANCH  16  17
HETATM   17  C10 UNL     1      -2.621   8.996  29.850  1.00  0.00     0.126 C 
HETATM   18 CL1  UNL     1      -0.930   9.455  29.568  1.00  0.00    -0.130 Cl
ENDBRANCH  16  17
ENDBRANCH  15  16
ENDBRANCH   3  14
TORSDOF 6
ENDMDL
MODEL 3
REMARK VINA RESULT: -4.210089606      3.089      4.210
REMARK  6 active torsions:
REMARK  status: ('A' for Active; 'I' for Inactive)
REMARK    1  A    between atoms: O1_2  and  C2_3 
REMARK    2  A    between atoms: C2_3  and  C3_4 
REMARK       I    between atoms: C3_4  and  N1_6 
REMARK    3  A    between atoms: N1_6  and  C4_8 
REMARK    4  A    between atoms: C6_10  and  C7_11 
REMARK    5  A    between atoms: C8_12  and  C9_13 
REMARK    6  A    between atoms: C9_13  and  C10_14 
ROOT
HETATM    1  C4  UNL     1      -4.006   7.160  32.404  1.00  0.00     0.096 A 
HETATM    2  C5  UNL     1      -3.286   7.177  33.567  1.00  0.00     0.078 A 
HETATM    3  C6  UNL     1      -2.010   7.571  33.497  1.00  0.00     0.095 A 
HETATM    4  N2  UNL     1      -1.533   7.919  32.299  1.00  0.00    -0.318 N 
ATOM      5  H2  UNL     1      -0.595   8.240  32.063  1.00  0.00     0.175 HD
HETATM    6  S1  UNL     1      -2.847   7.700  31.273  1.00  0.00     0.004 SA
ENDROOT
BRANCH   1   7
HETATM    7  N1  UNL     1      -5.244   6.822  32.214  1.00  0.00    -0.318 N 
HETATM    8  C3  UNL     1      -5.803   6.604  30.953  1.00  0.00     0.246 C 
HETATM    9  O2  UNL     1      -6.679   7.364  30.502  1.00  0.00    -0.271 OA
ATOM     10  H1  UNL     1      -5.842   6.709  33.032  1.00  0.00     0.169 HD
BRANCH   8  11
HETATM   11  C2  UNL     1      -5.367   5.462  30.126  1.00  0.00     0.270 C 
BRANCH  11  12
HETATM   12  O1  UNL     1      -6.496   4.744  29.754  1.00  0.00    -0.387 OA
HETATM   13  C1  UNL     1      -6.197   3.892  28.704  1.00  0.00     0.202 C 
ENDBRANCH  11  12
ENDBRANCH   8  11
ENDBRANCH   1   7
BRANCH   3  14
HETATM   14  C7  UNL     1      -1.109   7.643  34.656  1.00  0.00    -0.048 C 
HETATM   15  C8  UNL     1      -0.365   7.721  35.613  1.00  0.00    -0.099 C 
BRANCH  15  16
HETATM   16  C9  UNL     1       0.507   7.833  36.767  1.00  0.00     0.109 C 
BRANCH  16  17
HETATM   17  C10 UNL     1       0.086   9.100  37.518  1.00  0.00     0.126 C 
HETATM   18 CL1  UNL     1       0.418  10.485  36.459  1.00  0.00    -0.130 Cl
ENDBRANCH  16  17
ENDBRANCH  15  16
ENDBRANCH   3  14
TORSDOF 6
ENDMDL
MODEL 4
REMARK VINA RESULT: -4.129410526      1.669      1.811
REMARK  6 active torsions:
REMARK  status: ('A' for Active; 'I' for Inactive)
REMARK    1  A    between atoms: O1_2  and  C2_3 
REMARK    2  A    between atoms: C2_3  and  C3_4 
REMARK       I    between atoms: C3_4  and  N1_6 
REMARK    3  A    between atoms: N1_6  and  C4_8 
REMARK    4  A    between atoms: C6_10  and  C7_11 
REMARK    5  A    between atoms: C8_12  and  C9_13 
REMARK    6  A    between atoms: C9_13  and  C10_14 
ROOT
HETATM    1  C4  UNL     1      -4.534   7.797  31.740  1.00  0.00     0.096 A 
HETATM    2  C5  UNL     1      -3.470   8.034  32.567  1.00  0.00     0.078 A 
HETATM    3  C6  UNL     1      -3.048   7.023  33.333  1.00  0.00     0.095 A 
HETATM    4  N2  UNL     1      -3.694   5.858  33.235  1.00  0.00    -0.318 N 
ATOM      5  H2  UNL     1      -3.510   4.991  33.739  1.00  0.00     0.175 HD
HETATM    6  S1  UNL     1      -4.882   6.162  32.087  1.00  0.00     0.004 SA
ENDROOT
BRANCH   1   7
HETATM    7  N1  UNL     1      -5.121   8.604  30.912  1.00  0.00    -0.318 N 
HETATM    8  C3  UNL     1      -4.443   9.532  30.118  1.00  0.00     0.246 C 
HETATM    9  O2  UNL     1      -4.580  10.754  30.304  1.00  0.00    -0.271 OA
ATOM     10  H1  UNL     1      -6.137   8.559  30.836  1.00  0.00     0.169 HD
BRANCH   8  11
HETATM   11  C2  UNL     1      -3.546   9.080  29.037  1.00  0.00     0.270 C 
BRANCH  11  12
HETATM   12  O1  UNL     1      -2.415   9.885  29.052  1.00  0.00    -0.387 OA
HETATM   13  C1  UNL     1      -1.370   9.229  29.680  1.00  0.00     0.202 C 
ENDBRANCH  11  12
ENDBRANCH   8  11
ENDBRANCH   1   7
BRANCH   3  14
HETATM   14  C7  UNL     1      -1.920   7.120  34.272  1.00  0.00    -0.048 C 
HETATM   15  C8  UNL     1      -1.001   7.199  35.062  1.00  0.00    -0.099 C 
BRANCH  15  16
HETATM   16  C9  UNL     1       0.085   7.276  36.021  1.00  0.00     0.109 C 
BRANCH  16  17
HETATM   17  C10 UNL     1      -0.256   8.418  36.983  1.00  0.00     0.126 C 
HETATM   18 CL1  UNL     1       0.527   9.887  36.367  1.00  0.00    -0.130 Cl
ENDBRANCH  16  17
ENDBRANCH  15  16
ENDBRANCH   3  14
TORSDOF 6
ENDMDL
MODEL 5
REMARK VINA RESULT: -4.116199411      4.027      6.155
REMARK  6 active torsions:
REMARK  status: ('A' for Active; 'I' for Inactive)
REMARK    1  A    between atoms: O1_2  and  C2_3 
REMARK    2  A    between atoms: C2_3  and  C3_4 
REMARK       I    between atoms: C3_4  and  N1_6 
REMARK    3  A    between atoms: N1_6  and  C4_8 
REMARK    4  A    between atoms: C6_10  and  C7_11 
REMARK    5  A    between atoms: C8_12  and  C9_13 
REMARK    6  A    between atoms: C9_13  and  C10_14 
ROOT
HETATM    1  C4  UNL     1      -1.271   8.883  36.066  1.00  0.00     0.096 A 
HETATM    2  C5  UNL     1      -1.723   8.936  34.776  1.00  0.00     0.078 A 
HETATM    3  C6  UNL     1      -1.449   7.894  33.983  1.00  0.00     0.095 A 
HETATM    4  N2  UNL     1      -0.755   6.881  34.508  1.00  0.00    -0.318 N 
ATOM      5  H2  UNL     1      -0.460   6.017  34.054  1.00  0.00     0.175 HD
HETATM    6  S1  UNL     1      -0.483   7.369  36.093  1.00  0.00     0.004 SA
ENDROOT
BRANCH   1   7
HETATM    7  N1  UNL     1      -1.406   9.755  37.016  1.00  0.00    -0.318 N 
HETATM    8  C3  UNL     1      -0.464  10.746  37.301  1.00  0.00     0.246 C 
HETATM    9  O2  UNL     1       0.178  10.731  38.366  1.00  0.00    -0.271 OA
ATOM     10  H1  UNL     1      -2.249   9.715  37.589  1.00  0.00     0.169 HD
BRANCH   8  11
HETATM   11  C2  UNL     1      -0.209  11.837  36.340  1.00  0.00     0.270 C 
BRANCH  11  12
HETATM   12  O1  UNL     1       0.891  11.484  35.570  1.00  0.00    -0.387 OA
HETATM   13  C1  UNL     1       0.705  11.886  34.258  1.00  0.00     0.202 C 
ENDBRANCH  11  12
ENDBRANCH   8  11
ENDBRANCH   1   7
BRANCH   3  14
HETATM   14  C7  UNL     1      -1.864   7.803  32.576  1.00  0.00    -0.048 C 
HETATM   15  C8  UNL     1      -2.189   7.730  31.408  1.00  0.00    -0.099 C 
BRANCH  15  16
HETATM   16  C9  UNL     1      -2.555   7.630  30.007  1.00  0.00     0.109 C 
BRANCH  16  17
HETATM   17  C10 UNL     1      -2.529   9.053  29.442  1.00  0.00     0.126 C 
HETATM   18 CL1  UNL     1      -0.839   9.595  29.434  1.00  0.00    -0.130 Cl
ENDBRANCH  16  17
ENDBRANCH  15  16
ENDBRANCH   3  14
TORSDOF 6
ENDMDL
