MODEL 1
REMARK VINA RESULT: -4.338975152      0.000      0.000
REMARK  2 active torsions:
REMARK  status: ('A' for Active; 'I' for Inactive)
REMARK    1  A    between atoms: O1_2  and  C2_3 
REMARK    2  A    between atoms: C2_3  and  C3_5 
ROOT
HETATM    1  C3  UNL     1      -1.722   8.658  33.603  1.00  0.00     0.117 A 
HETATM    2  N1  UNL     1      -1.716  10.007  33.751  1.00  0.00    -0.317 N 
ATOM      3  H1  UNL     1      -2.110  10.594  33.015  1.00  0.00     0.169 HD
HETATM    4  C4  UNL     1      -1.201  10.585  34.848  1.00  0.00     0.264 A 
HETATM    5  O3  UNL     1      -1.195  11.834  34.986  1.00  0.00    -0.267 OA
HETATM    6  C5  UNL     1      -0.656   9.822  35.869  1.00  0.00     0.085 A 
HETATM    7 BR1  UNL     1       0.085  10.603  37.440  1.00  0.00    -0.045 Br
HETATM    8  C6  UNL     1      -0.641   8.462  35.762  1.00  0.00    -0.031 A 
HETATM    9  C7  UNL     1      -0.080   7.563  36.803  1.00  0.00     0.050 C 
HETATM   10  C8  UNL     1      -1.185   7.890  34.609  1.00  0.00    -0.022 A 
HETATM   11  C9  UNL     1      -1.195   6.421  34.443  1.00  0.00     0.051 C 
ENDROOT
BRANCH   1  12
HETATM   12  C2  UNL     1      -2.286   8.060  32.407  1.00  0.00     0.310 C 
HETATM   13  O2  UNL     1      -3.453   7.625  32.297  1.00  0.00    -0.258 OA
BRANCH  12  14
HETATM   14  O1  UNL     1      -1.501   7.934  31.246  1.00  0.00    -0.321 OA
HETATM   15  C1  UNL     1      -1.638   8.824  30.151  1.00  0.00     0.213 C 
ENDBRANCH  12  14
ENDBRANCH   1  12
TORSDOF 2
ENDMDL
MODEL 2
REMARK VINA RESULT: -4.332704326      0.642      1.301
REMARK  2 active torsions:
REMARK  status: ('A' for Active; 'I' for Inactive)
REMARK    1  A    between atoms: O1_2  and  C2_3 
REMARK    2  A    between atoms: C2_3  and  C3_5 
ROOT
HETATM    1  C3  UNL     1      -1.600   8.745  33.570  1.00  0.00     0.117 A 
HETATM    2  N1  UNL     1      -1.549  10.093  33.725  1.00  0.00    -0.317 N 
ATOM      3  H1  UNL     1      -1.887  10.697  32.976  1.00  0.00     0.169 HD
HETATM    4  C4  UNL     1      -1.059  10.646  34.847  1.00  0.00     0.264 A 
HETATM    5  O3  UNL     1      -1.012  11.893  34.991  1.00  0.00    -0.267 OA
HETATM    6  C5  UNL     1      -0.590   9.858  35.886  1.00  0.00     0.085 A 
HETATM    7 BR1  UNL     1       0.112  10.604  37.492  1.00  0.00    -0.045 Br
HETATM    8  C6  UNL     1      -0.622   8.500  35.772  1.00  0.00    -0.031 A 
HETATM    9  C7  UNL     1      -0.141   7.575  36.832  1.00  0.00     0.050 C 
HETATM   10  C8  UNL     1      -1.137   7.953  34.594  1.00  0.00    -0.022 A 
HETATM   11  C9  UNL     1      -1.196   6.487  34.420  1.00  0.00     0.051 C 
ENDROOT
BRANCH   1  12
HETATM   12  C2  UNL     1      -2.135   8.175  32.347  1.00  0.00     0.310 C 
HETATM   13  O2  UNL     1      -1.467   7.890  31.329  1.00  0.00    -0.258 OA
BRANCH  12  14
HETATM   14  O1  UNL     1      -3.510   7.899  32.242  1.00  0.00    -0.321 OA
HETATM   15  C1  UNL     1      -3.991   6.607  31.910  1.00  0.00     0.213 C 
ENDBRANCH  12  14
ENDBRANCH   1  12
TORSDOF 2
ENDMDL
MODEL 3
REMARK VINA RESULT: -4.295616534      1.736      2.090
REMARK  2 active torsions:
REMARK  status: ('A' for Active; 'I' for Inactive)
REMARK    1  A    between atoms: O1_2  and  C2_3 
REMARK    2  A    between atoms: C2_3  and  C3_5 
ROOT
HETATM    1  C3  UNL     1      -1.474   9.958  33.024  1.00  0.00     0.117 A 
HETATM    2  N1  UNL     1      -0.791  10.755  33.885  1.00  0.00    -0.317 N 
ATOM      3  H1  UNL     1      -0.705  11.751  33.685  1.00  0.00     0.169 HD
HETATM    4  C4  UNL     1      -0.225  10.255  34.996  1.00  0.00     0.264 A 
HETATM    5  O3  UNL     1       0.407  10.992  35.793  1.00  0.00    -0.267 OA
HETATM    6  C5  UNL     1      -0.320   8.906  35.301  1.00  0.00     0.085 A 
HETATM    7 BR1  UNL     1       0.469   8.160  36.866  1.00  0.00    -0.045 Br
HETATM    8  C6  UNL     1      -0.997   8.070  34.464  1.00  0.00    -0.031 A 
HETATM    9  C7  UNL     1      -1.151   6.612  34.708  1.00  0.00     0.050 C 
HETATM   10  C8  UNL     1      -1.575   8.618  33.317  1.00  0.00    -0.022 A 
HETATM   11  C9  UNL     1      -2.321   7.755  32.376  1.00  0.00     0.051 C 
ENDROOT
BRANCH   1  12
HETATM   12  C2  UNL     1      -2.076  10.524  31.831  1.00  0.00     0.310 C 
HETATM   13  O2  UNL     1      -3.279  10.843  31.710  1.00  0.00    -0.258 OA
BRANCH  12  14
HETATM   14  O1  UNL     1      -1.290  10.755  30.688  1.00  0.00    -0.321 OA
HETATM   15  C1  UNL     1      -1.032   9.733  29.740  1.00  0.00     0.213 C 
ENDBRANCH  12  14
ENDBRANCH   1  12
TORSDOF 2
ENDMDL
MODEL 4
REMARK VINA RESULT: -4.293859929      1.273      1.898
REMARK  2 active torsions:
REMARK  status: ('A' for Active; 'I' for Inactive)
REMARK    1  A    between atoms: O1_2  and  C2_3 
REMARK    2  A    between atoms: C2_3  and  C3_5 
ROOT
HETATM    1  C3  UNL     1      -2.381   8.352  33.990  1.00  0.00     0.117 A 
HETATM    2  N1  UNL     1      -2.698   9.668  34.097  1.00  0.00    -0.317 N 
ATOM      3  H1  UNL     1      -3.458  10.047  33.532  1.00  0.00     0.169 HD
HETATM    4  C4  UNL     1      -2.030  10.478  34.934  1.00  0.00     0.264 A 
HETATM    5  O3  UNL     1      -2.324  11.696  35.034  1.00  0.00    -0.267 OA
HETATM    6  C5  UNL     1      -0.992   9.999  35.717  1.00  0.00     0.085 A 
HETATM    7 BR1  UNL     1      -0.021  11.117  36.915  1.00  0.00    -0.045 Br
HETATM    8  C6  UNL     1      -0.639   8.684  35.640  1.00  0.00    -0.031 A 
HETATM    9  C7  UNL     1       0.458   8.080  36.440  1.00  0.00     0.050 C 
HETATM   10  C8  UNL     1      -1.353   7.864  34.762  1.00  0.00    -0.022 A 
HETATM   11  C9  UNL     1      -1.011   6.431  34.641  1.00  0.00     0.051 C 
ENDROOT
BRANCH   1  12
HETATM   12  C2  UNL     1      -3.120   7.498  33.078  1.00  0.00     0.310 C 
HETATM   13  O2  UNL     1      -2.859   7.338  31.866  1.00  0.00    -0.258 OA
BRANCH  12  14
HETATM   14  O1  UNL     1      -4.230   6.769  33.541  1.00  0.00    -0.321 OA
HETATM   15  C1  UNL     1      -4.413   5.401  33.219  1.00  0.00     0.213 C 
ENDBRANCH  12  14
ENDBRANCH   1  12
TORSDOF 2
ENDMDL
MODEL 5
REMARK VINA RESULT: -4.240874748      3.507      5.571
REMARK  2 active torsions:
REMARK  status: ('A' for Active; 'I' for Inactive)
REMARK    1  A    between atoms: O1_2  and  C2_3 
REMARK    2  A    between atoms: C2_3  and  C3_5 
ROOT
HETATM    1  C3  UNL     1      -2.629   7.803  33.535  1.00  0.00     0.117 A 
HETATM    2  N1  UNL     1      -3.438   6.764  33.866  1.00  0.00    -0.317 N 
ATOM      3  H1  UNL     1      -3.526   6.489  34.844  1.00  0.00     0.169 HD
HETATM    4  C4  UNL     1      -4.125   6.091  32.929  1.00  0.00     0.264 A 
HETATM    5  O3  UNL     1      -4.874   5.130  33.234  1.00  0.00    -0.267 OA
HETATM    6  C5  UNL     1      -4.032   6.435  31.589  1.00  0.00     0.085 A 
HETATM    7 BR1  UNL     1      -4.989   5.505  30.230  1.00  0.00    -0.045 Br
HETATM    8  C6  UNL     1      -3.230   7.471  31.212  1.00  0.00    -0.031 A 
HETATM    9  C7  UNL     1      -3.066   7.912  29.802  1.00  0.00     0.050 C 
HETATM   10  C8  UNL     1      -2.528   8.154  32.210  1.00  0.00    -0.022 A 
HETATM   11  C9  UNL     1      -1.646   9.285  31.855  1.00  0.00     0.051 C 
ENDROOT
BRANCH   1  12
HETATM   12  C2  UNL     1      -1.899   8.513  34.569  1.00  0.00     0.310 C 
HETATM   13  O2  UNL     1      -2.339   9.476  35.233  1.00  0.00    -0.258 OA
BRANCH  12  14
HETATM   14  O1  UNL     1      -0.584   8.130  34.890  1.00  0.00    -0.321 OA
HETATM   15  C1  UNL     1      -0.282   7.417  36.077  1.00  0.00     0.213 C 
ENDBRANCH  12  14
ENDBRANCH   1  12
TORSDOF 2
ENDMDL
