MODEL 1
REMARK VINA RESULT: -4.444850044      0.000      0.000
REMARK  3 active torsions:
REMARK  status: ('A' for Active; 'I' for Inactive)
REMARK    1  A    between atoms: N1_6  and  C4_7 
REMARK    2  A    between atoms: C4_7  and  C5_8 
REMARK       I    between atoms: C5_8  and  N2_10 
REMARK    3  A    between atoms: N2_10  and  C6_12 
ROOT
HETATM    1  C5  UNL     1      -2.790   7.855  33.235  1.00  0.00     0.238 C 
HETATM    2  O2  UNL     1      -3.536   8.151  34.203  1.00  0.00    -0.272 OA
HETATM    3  N2  UNL     1      -3.305   7.009  32.219  1.00  0.00    -0.352 N 
ATOM      4  H2  UNL     1      -2.702   6.768  31.432  1.00  0.00     0.163 HD
ENDROOT
BRANCH   1   5
HETATM    5  C4  UNL     1      -1.423   8.386  33.178  1.00  0.00     0.259 C 
BRANCH   5   6
HETATM    6  N1  UNL     1      -1.049   8.961  34.455  1.00  0.00    -0.244 N 
HETATM    7  C2  UNL     1      -0.532   8.461  35.600  1.00  0.00     0.075 A 
HETATM    8  C1  UNL     1      -0.118   7.118  36.073  1.00  0.00     0.074 C 
HETATM    9  C3  UNL     1      -0.541   9.716  36.172  1.00  0.00     0.169 A 
HETATM   10 BR1  UNL     1      -0.035  10.424  37.866  1.00  0.00    -0.019 Br
HETATM   11  O1  UNL     1      -1.040  10.132  35.033  1.00  0.00    -0.225 OA
ENDBRANCH   5   6
ENDBRANCH   1   5
BRANCH   3  12
HETATM   12  C6  UNL     1      -4.647   6.474  32.253  1.00  0.00     0.022 C 
HETATM   13  C7  UNL     1      -4.802   5.431  33.348  1.00  0.00     0.037 C 
HETATM   14  C8  UNL     1      -4.923   5.773  30.943  1.00  0.00     0.037 C 
HETATM   15  C9  UNL     1      -5.692   7.532  32.480  1.00  0.00     0.037 C 
ENDBRANCH   3  12
TORSDOF 3
ENDMDL
MODEL 2
REMARK VINA RESULT: -4.386515091      0.044      1.121
REMARK  3 active torsions:
REMARK  status: ('A' for Active; 'I' for Inactive)
REMARK    1  A    between atoms: N1_6  and  C4_7 
REMARK    2  A    between atoms: C4_7  and  C5_8 
REMARK       I    between atoms: C5_8  and  N2_10 
REMARK    3  A    between atoms: N2_10  and  C6_12 
ROOT
HETATM    1  C5  UNL     1      -2.800   7.856  33.226  1.00  0.00     0.238 C 
HETATM    2  O2  UNL     1      -3.540   8.115  34.209  1.00  0.00    -0.272 OA
HETATM    3  N2  UNL     1      -3.306   7.015  32.202  1.00  0.00    -0.352 N 
ATOM      4  H2  UNL     1      -2.708   6.804  31.403  1.00  0.00     0.163 HD
ENDROOT
BRANCH   1   5
HETATM    5  C4  UNL     1      -1.448   8.423  33.160  1.00  0.00     0.259 C 
BRANCH   5   6
HETATM    6  N1  UNL     1      -1.070   8.982  34.444  1.00  0.00    -0.244 N 
HETATM    7  C2  UNL     1      -0.550   8.468  35.580  1.00  0.00     0.075 A 
HETATM    8  C1  UNL     1      -0.135   7.118  36.035  1.00  0.00     0.074 C 
HETATM    9  C3  UNL     1      -0.557   9.715  36.169  1.00  0.00     0.169 A 
HETATM   10 BR1  UNL     1      -0.045  10.401  37.870  1.00  0.00    -0.019 Br
HETATM   11  O1  UNL     1      -1.059  10.145  35.037  1.00  0.00    -0.225 OA
ENDBRANCH   5   6
ENDBRANCH   1   5
BRANCH   3  12
HETATM   12  C6  UNL     1      -4.633   6.445  32.244  1.00  0.00     0.022 C 
HETATM   13  C7  UNL     1      -4.972   5.729  30.945  1.00  0.00     0.037 C 
HETATM   14  C8  UNL     1      -5.638   7.563  32.397  1.00  0.00     0.037 C 
HETATM   15  C9  UNL     1      -4.811   5.459  33.366  1.00  0.00     0.037 C 
ENDBRANCH   3  12
TORSDOF 3
ENDMDL
MODEL 3
REMARK VINA RESULT: -4.351688497      1.579      2.208
REMARK  3 active torsions:
REMARK  status: ('A' for Active; 'I' for Inactive)
REMARK    1  A    between atoms: N1_6  and  C4_7 
REMARK    2  A    between atoms: C4_7  and  C5_8 
REMARK       I    between atoms: C5_8  and  N2_10 
REMARK    3  A    between atoms: N2_10  and  C6_12 
ROOT
HETATM    1  C5  UNL     1      -3.110   8.419  31.894  1.00  0.00     0.238 C 
HETATM    2  O2  UNL     1      -3.944   8.887  31.079  1.00  0.00    -0.272 OA
HETATM    3  N2  UNL     1      -3.414   7.194  32.543  1.00  0.00    -0.352 N 
ATOM      4  H2  UNL     1      -2.738   6.812  33.205  1.00  0.00     0.163 HD
ENDROOT
BRANCH   1   5
HETATM    5  C4  UNL     1      -1.859   9.140  32.154  1.00  0.00     0.259 C 
BRANCH   5   6
HETATM    6  N1  UNL     1      -1.332   8.789  33.458  1.00  0.00    -0.244 N 
HETATM    7  C2  UNL     1      -0.708   9.477  34.440  1.00  0.00     0.075 A 
HETATM    8  C1  UNL     1      -0.279  10.883  34.635  1.00  0.00     0.074 C 
HETATM    9  C3  UNL     1      -0.622   8.335  35.209  1.00  0.00     0.169 A 
HETATM   10 BR1  UNL     1       0.086   7.924  36.929  1.00  0.00    -0.019 Br
HETATM   11  O1  UNL     1      -1.231   7.732  34.218  1.00  0.00    -0.225 OA
ENDBRANCH   5   6
ENDBRANCH   1   5
BRANCH   3  12
HETATM   12  C6  UNL     1      -4.639   6.466  32.304  1.00  0.00     0.022 C 
HETATM   13  C7  UNL     1      -5.859   7.348  32.515  1.00  0.00     0.037 C 
HETATM   14  C8  UNL     1      -4.738   5.340  33.308  1.00  0.00     0.037 C 
HETATM   15  C9  UNL     1      -4.721   5.900  30.912  1.00  0.00     0.037 C 
ENDBRANCH   3  12
TORSDOF 3
ENDMDL
MODEL 4
REMARK VINA RESULT: -4.299601610      0.827      1.134
REMARK  3 active torsions:
REMARK  status: ('A' for Active; 'I' for Inactive)
REMARK    1  A    between atoms: N1_6  and  C4_7 
REMARK    2  A    between atoms: C4_7  and  C5_8 
REMARK       I    between atoms: C5_8  and  N2_10 
REMARK    3  A    between atoms: N2_10  and  C6_12 
ROOT
HETATM    1  C5  UNL     1      -2.845   8.311  33.012  1.00  0.00     0.238 C 
HETATM    2  O2  UNL     1      -3.693   9.208  32.771  1.00  0.00    -0.272 OA
HETATM    3  N2  UNL     1      -3.303   6.984  33.215  1.00  0.00    -0.352 N 
ATOM      4  H2  UNL     1      -2.617   6.255  33.409  1.00  0.00     0.163 HD
ENDROOT
BRANCH   1   5
HETATM    5  C4  UNL     1      -1.419   8.654  33.076  1.00  0.00     0.259 C 
BRANCH   5   6
HETATM    6  N1  UNL     1      -1.065   9.102  34.409  1.00  0.00    -0.244 N 
HETATM    7  C2  UNL     1      -0.588   8.489  35.515  1.00  0.00     0.075 A 
HETATM    8  C1  UNL     1      -0.216   7.099  35.874  1.00  0.00     0.074 C 
HETATM    9  C3  UNL     1      -0.585   9.687  36.199  1.00  0.00     0.169 A 
HETATM   10 BR1  UNL     1      -0.107  10.227  37.961  1.00  0.00    -0.019 Br
HETATM   11  O1  UNL     1      -1.045  10.215  35.091  1.00  0.00    -0.225 OA
ENDBRANCH   5   6
ENDBRANCH   1   5
BRANCH   3  12
HETATM   12  C6  UNL     1      -4.701   6.623  33.156  1.00  0.00     0.022 C 
HETATM   13  C7  UNL     1      -5.507   7.345  34.225  1.00  0.00     0.037 C 
HETATM   14  C8  UNL     1      -4.832   5.144  33.439  1.00  0.00     0.037 C 
HETATM   15  C9  UNL     1      -5.330   6.933  31.825  1.00  0.00     0.037 C 
ENDBRANCH   3  12
TORSDOF 3
ENDMDL
MODEL 5
REMARK VINA RESULT: -4.289811470      2.986      5.599
REMARK  3 active torsions:
REMARK  status: ('A' for Active; 'I' for Inactive)
REMARK    1  A    between atoms: N1_6  and  C4_7 
REMARK    2  A    between atoms: C4_7  and  C5_8 
REMARK       I    between atoms: C5_8  and  N2_10 
REMARK    3  A    between atoms: N2_10  and  C6_12 
ROOT
HETATM    1  C5  UNL     1      -1.394  10.037  33.973  1.00  0.00     0.238 C 
HETATM    2  O2  UNL     1      -1.482  11.076  34.674  1.00  0.00    -0.272 OA
HETATM    3  N2  UNL     1      -0.939   8.842  34.590  1.00  0.00    -0.352 N 
ATOM      4  H2  UNL     1      -0.867   7.997  34.023  1.00  0.00     0.163 HD
ENDROOT
BRANCH   1   5
HETATM    5  C4  UNL     1      -1.757  10.081  32.552  1.00  0.00     0.259 C 
BRANCH   5   6
HETATM    6  N1  UNL     1      -2.577   8.938  32.202  1.00  0.00    -0.244 N 
HETATM    7  C2  UNL     1      -2.771   8.227  31.068  1.00  0.00     0.075 A 
HETATM    8  C1  UNL     1      -2.247   8.288  29.682  1.00  0.00     0.074 C 
HETATM    9  C3  UNL     1      -3.669   7.405  31.717  1.00  0.00     0.169 A 
HETATM   10 BR1  UNL     1      -4.727   5.906  31.207  1.00  0.00    -0.019 Br
HETATM   11  O1  UNL     1      -3.432   8.136  32.778  1.00  0.00    -0.225 OA
ENDBRANCH   5   6
ENDBRANCH   1   5
BRANCH   3  12
HETATM   12  C6  UNL     1      -0.576   8.773  35.986  1.00  0.00     0.022 C 
HETATM   13  C7  UNL     1       0.559   9.732  36.313  1.00  0.00     0.037 C 
HETATM   14  C8  UNL     1      -0.069   7.382  36.288  1.00  0.00     0.037 C 
HETATM   15  C9  UNL     1      -1.722   9.095  36.906  1.00  0.00     0.037 C 
ENDBRANCH   3  12
TORSDOF 3
ENDMDL
