MODEL 1
REMARK VINA RESULT: -4.356502763      0.000      0.000
REMARK  3 active torsions:
REMARK  status: ('A' for Active; 'I' for Inactive)
REMARK    1  A    between atoms: C2_2  and  C3_3 
REMARK    2  A    between atoms: C3_3  and  C5_5 
REMARK       I    between atoms: C5_5  and  N1_7 
REMARK    3  A    between atoms: N1_7  and  C6_9 
ROOT
HETATM    1  C6  UNL     1      -1.893   7.923  33.326  1.00  0.00     0.168 A 
HETATM    2  N2  UNL     1      -1.428   6.999  34.175  1.00  0.00    -0.278 N 
ATOM      3  H2  UNL     1      -1.588   6.006  34.007  1.00  0.00     0.189 HD
HETATM    4  N3  UNL     1      -0.783   7.390  35.198  1.00  0.00    -0.286 N 
ATOM      5  H3  UNL     1      -0.418   6.705  35.859  1.00  0.00     0.188 HD
HETATM    6  C7  UNL     1      -0.581   8.678  35.409  1.00  0.00     0.139 A 
HETATM    7 BR1  UNL     1       0.354   9.518  36.867  1.00  0.00    -0.021 Br
HETATM    8  S1  UNL     1      -1.364   9.372  34.060  1.00  0.00    -0.026 SA
ENDROOT
BRANCH   1   9
HETATM    9  N1  UNL     1      -2.578   7.716  32.222  1.00  0.00    -0.306 N 
HETATM   10  C5  UNL     1      -3.933   7.375  32.263  1.00  0.00     0.227 C 
HETATM   11  O1  UNL     1      -4.820   8.241  32.433  1.00  0.00    -0.273 OA
ATOM     12  H1  UNL     1      -2.113   7.806  31.319  1.00  0.00     0.171 HD
BRANCH  10  13
HETATM   13  C3  UNL     1      -4.332   5.956  32.101  1.00  0.00     0.074 C 
HETATM   14  C4  UNL     1      -4.802   5.358  33.408  1.00  0.00     0.020 C 
BRANCH  13  15
HETATM   15  C2  UNL     1      -5.385   5.820  31.023  1.00  0.00     0.009 C 
HETATM   16  C1  UNL     1      -4.832   5.122  29.814  1.00  0.00     0.006 C 
ENDBRANCH  13  15
ENDBRANCH  10  13
ENDBRANCH   1   9
TORSDOF 3
ENDMDL
MODEL 2
REMARK VINA RESULT: -4.355234741      1.191      1.191
REMARK  3 active torsions:
REMARK  status: ('A' for Active; 'I' for Inactive)
REMARK    1  A    between atoms: C2_2  and  C3_3 
REMARK    2  A    between atoms: C3_3  and  C5_5 
REMARK       I    between atoms: C5_5  and  N1_7 
REMARK    3  A    between atoms: N1_7  and  C6_9 
ROOT
HETATM    1  C6  UNL     1      -2.025   8.238  33.040  1.00  0.00     0.168 A 
HETATM    2  N2  UNL     1      -1.536   9.432  33.395  1.00  0.00    -0.278 N 
ATOM      3  H2  UNL     1      -1.731  10.264  32.837  1.00  0.00     0.189 HD
HETATM    4  N3  UNL     1      -0.822   9.504  34.443  1.00  0.00    -0.286 N 
ATOM      5  H3  UNL     1      -0.438  10.402  34.734  1.00  0.00     0.188 HD
HETATM    6  C7  UNL     1      -0.573   8.422  35.159  1.00  0.00     0.139 A 
HETATM    7 BR1  UNL     1       0.468   8.268  36.770  1.00  0.00    -0.021 Br
HETATM    8  S1  UNL     1      -1.416   7.227  34.276  1.00  0.00    -0.026 SA
ENDROOT
BRANCH   1   9
HETATM    9  N1  UNL     1      -2.779   7.964  31.997  1.00  0.00    -0.306 N 
HETATM   10  C5  UNL     1      -4.082   7.483  32.150  1.00  0.00     0.227 C 
HETATM   11  O1  UNL     1      -5.036   8.251  32.406  1.00  0.00    -0.273 OA
ATOM     12  H1  UNL     1      -2.405   8.105  31.059  1.00  0.00     0.171 HD
BRANCH  10  13
HETATM   13  C3  UNL     1      -4.344   6.031  32.006  1.00  0.00     0.074 C 
HETATM   14  C4  UNL     1      -4.711   5.398  33.329  1.00  0.00     0.020 C 
BRANCH  13  15
HETATM   15  C2  UNL     1      -5.412   5.786  30.962  1.00  0.00     0.009 C 
HETATM   16  C1  UNL     1      -4.844   5.078  29.766  1.00  0.00     0.006 C 
ENDBRANCH  13  15
ENDBRANCH  10  13
ENDBRANCH   1   9
TORSDOF 3
ENDMDL
MODEL 3
REMARK VINA RESULT: -4.264517228      4.201      5.837
REMARK  3 active torsions:
REMARK  status: ('A' for Active; 'I' for Inactive)
REMARK    1  A    between atoms: C2_2  and  C3_3 
REMARK    2  A    between atoms: C3_3  and  C5_5 
REMARK       I    between atoms: C5_5  and  N1_7 
REMARK    3  A    between atoms: N1_7  and  C6_9 
ROOT
HETATM    1  C6  UNL     1      -1.505   9.963  33.848  1.00  0.00     0.168 A 
HETATM    2  N2  UNL     1      -1.519   8.637  33.661  1.00  0.00    -0.278 N 
ATOM      3  H2  UNL     1      -1.388   7.997  34.443  1.00  0.00     0.189 HD
HETATM    4  N3  UNL     1      -1.701   8.198  32.483  1.00  0.00    -0.286 N 
ATOM      5  H3  UNL     1      -1.716   7.192  32.314  1.00  0.00     0.188 HD
HETATM    6  C7  UNL     1      -1.869   9.034  31.475  1.00  0.00     0.139 A 
HETATM    7 BR1  UNL     1      -2.159   8.624  29.616  1.00  0.00    -0.021 Br
HETATM    8  S1  UNL     1      -1.762  10.545  32.263  1.00  0.00    -0.026 SA
ENDROOT
BRANCH   1   9
HETATM    9  N1  UNL     1      -1.332  10.604  34.985  1.00  0.00    -0.306 N 
HETATM   10  C5  UNL     1      -0.133  10.507  35.697  1.00  0.00     0.227 C 
HETATM   11  O1  UNL     1       0.873  11.179  35.376  1.00  0.00    -0.273 OA
ATOM     12  H1  UNL     1      -2.086  11.182  35.353  1.00  0.00     0.171 HD
BRANCH  10  13
HETATM   13  C3  UNL     1      -0.047   9.588  36.857  1.00  0.00     0.074 C 
HETATM   14  C4  UNL     1      -1.417   9.225  37.382  1.00  0.00     0.020 C 
BRANCH  13  15
HETATM   15  C2  UNL     1       0.751   8.353  36.498  1.00  0.00     0.009 C 
HETATM   16  C1  UNL     1      -0.116   7.128  36.515  1.00  0.00     0.006 C 
ENDBRANCH  13  15
ENDBRANCH  10  13
ENDBRANCH   1   9
TORSDOF 3
ENDMDL
MODEL 4
REMARK VINA RESULT: -4.249239753      1.536      1.929
REMARK  3 active torsions:
REMARK  status: ('A' for Active; 'I' for Inactive)
REMARK    1  A    between atoms: C2_2  and  C3_3 
REMARK    2  A    between atoms: C3_3  and  C5_5 
REMARK       I    between atoms: C5_5  and  N1_7 
REMARK    3  A    between atoms: N1_7  and  C6_9 
ROOT
HETATM    1  C6  UNL     1      -2.960   7.700  33.738  1.00  0.00     0.168 A 
HETATM    2  N2  UNL     1      -2.040   6.742  33.902  1.00  0.00    -0.278 N 
ATOM      3  H2  UNL     1      -2.119   5.850  33.412  1.00  0.00     0.189 HD
HETATM    4  N3  UNL     1      -1.065   6.970  34.684  1.00  0.00    -0.286 N 
ATOM      5  H3  UNL     1      -0.351   6.257  34.826  1.00  0.00     0.188 HD
HETATM    6  C7  UNL     1      -0.970   8.127  35.315  1.00  0.00     0.139 A 
HETATM    7 BR1  UNL     1       0.394   8.712  36.540  1.00  0.00    -0.021 Br
HETATM    8  S1  UNL     1      -2.364   8.938  34.753  1.00  0.00    -0.026 SA
ENDROOT
BRANCH   1   9
HETATM    9  N1  UNL     1      -4.033   7.651  32.977  1.00  0.00    -0.306 N 
HETATM   10  C5  UNL     1      -4.393   6.479  32.307  1.00  0.00     0.227 C 
HETATM   11  O1  UNL     1      -4.991   5.549  32.893  1.00  0.00    -0.273 OA
ATOM     12  H1  UNL     1      -4.611   8.484  32.873  1.00  0.00     0.171 HD
BRANCH  10  13
HETATM   13  C3  UNL     1      -4.061   6.329  30.870  1.00  0.00     0.074 C 
HETATM   14  C4  UNL     1      -5.084   5.482  30.148  1.00  0.00     0.020 C 
BRANCH  13  15
HETATM   15  C2  UNL     1      -3.909   7.686  30.217  1.00  0.00     0.009 C 
HETATM   16  C1  UNL     1      -2.504   7.896  29.731  1.00  0.00     0.006 C 
ENDBRANCH  13  15
ENDBRANCH  10  13
ENDBRANCH   1   9
TORSDOF 3
ENDMDL
MODEL 5
REMARK VINA RESULT: -4.247707804      3.436      5.906
REMARK  3 active torsions:
REMARK  status: ('A' for Active; 'I' for Inactive)
REMARK    1  A    between atoms: C2_2  and  C3_3 
REMARK    2  A    between atoms: C3_3  and  C5_5 
REMARK       I    between atoms: C5_5  and  N1_7 
REMARK    3  A    between atoms: N1_7  and  C6_9 
ROOT
HETATM    1  C6  UNL     1      -2.836   8.362  33.660  1.00  0.00     0.168 A 
HETATM    2  N2  UNL     1      -2.180   8.260  32.497  1.00  0.00    -0.278 N 
ATOM      3  H2  UNL     1      -1.293   8.741  32.352  1.00  0.00     0.189 HD
HETATM    4  N3  UNL     1      -2.693   7.548  31.578  1.00  0.00    -0.286 N 
ATOM      5  H3  UNL     1      -2.213   7.454  30.683  1.00  0.00     0.188 HD
HETATM    6  C7  UNL     1      -3.843   6.928  31.773  1.00  0.00     0.139 A 
HETATM    7 BR1  UNL     1      -4.817   5.803  30.552  1.00  0.00    -0.021 Br
HETATM    8  S1  UNL     1      -4.214   7.394  33.373  1.00  0.00    -0.026 SA
ENDROOT
BRANCH   1   9
HETATM    9  N1  UNL     1      -2.469   9.047  34.722  1.00  0.00    -0.306 N 
HETATM   10  C5  UNL     1      -1.129   9.115  35.114  1.00  0.00     0.227 C 
HETATM   11  O1  UNL     1      -0.325   9.897  34.559  1.00  0.00    -0.273 OA
ATOM     12  H1  UNL     1      -3.176   9.537  35.270  1.00  0.00     0.171 HD
BRANCH  10  13
HETATM   13  C3  UNL     1      -0.646   8.243  36.210  1.00  0.00     0.074 C 
HETATM   14  C4  UNL     1      -0.256   6.874  35.702  1.00  0.00     0.020 C 
BRANCH  13  15
HETATM   15  C2  UNL     1       0.498   8.903  36.949  1.00  0.00     0.009 C 
HETATM   16  C1  UNL     1      -0.009   9.767  38.067  1.00  0.00     0.006 C 
ENDBRANCH  13  15
ENDBRANCH  10  13
ENDBRANCH   1   9
TORSDOF 3
ENDMDL
