MODEL 1
REMARK VINA RESULT: -7.421446230      0.000      0.000
REMARK  5 active torsions:
REMARK  status: ('A' for Active; 'I' for Inactive)
REMARK    1  A    between atoms: N1_1  and  C1_4 
REMARK    2  A    between atoms: C2_7  and  C3_8 
REMARK    3  A    between atoms: C4_10  and  C5_11 
REMARK    4  A    between atoms: N3_14  and  C7_16 
REMARK    5  A    between atoms: C7_16  and  C8_17 
ROOT
HETATM    1  C1  UNL     1      16.183   0.677  48.895  1.00  0.00     0.677 A 
HETATM    2  N2  UNL     1      14.851   0.768  48.854  1.00  0.00    -0.194 N 
ATOM      3  H2  UNL     1      14.380   1.311  48.131  1.00  0.00     0.184 HD
HETATM    4  C2  UNL     1      14.159   0.122  49.796  1.00  0.00     0.057 A 
HETATM    5  C4  UNL     1      14.825  -0.615  50.774  1.00  0.00     0.070 A 
HETATM    6  C6  UNL     1      16.205  -0.698  50.801  1.00  0.00     0.136 A 
HETATM    7  N3  UNL     1      16.869  -1.331  51.659  1.00  0.00    -0.350 N 
ATOM      8  H3  UNL     1      17.873  -1.259  51.491  1.00  0.00     0.166 HD
HETATM    9  N4  UNL     1      16.863  -0.008  49.801  1.00  0.00    -0.176 N 
ATOM     10  H4  UNL     1      17.882  -0.026  49.761  1.00  0.00     0.186 HD
ENDROOT
BRANCH   5  11
HETATM   11  C5  UNL     1      13.978  -1.274  51.748  1.00  0.00     0.275 C 
HETATM   12  O1  UNL     1      13.536  -0.743  52.777  1.00  0.00    -0.301 OA
ENDBRANCH   5  11
BRANCH   7  13
HETATM   13  C7  UNL     1      16.584  -2.105  52.782  1.00  0.00     0.102 C 
BRANCH  13  14
HETATM   14  C8  UNL     1      16.867  -3.563  52.576  1.00  0.00    -0.003 A 
HETATM   15  C9  UNL     1      17.150  -4.002  51.309  1.00  0.00     0.015 A 
HETATM   16  C10 UNL     1      17.424  -5.354  51.058  1.00  0.00     0.020 A 
HETATM   17  C11 UNL     1      17.400  -6.235  52.116  1.00  0.00     0.012 A 
HETATM   18 BR1  UNL     1      17.772  -8.103  51.805  1.00  0.00    -0.051 Br
HETATM   19  C12 UNL     1      17.117  -5.803  53.390  1.00  0.00     0.039 A 
HETATM   20  C13 UNL     1      16.848  -4.453  53.614  1.00  0.00     0.023 A 
HETATM   21 BR2  UNL     1      16.448  -3.806  55.371  1.00  0.00    -0.050 Br
ENDBRANCH  13  14
ENDBRANCH   7  13
BRANCH   4  22
HETATM   22  C3  UNL     1      12.665   0.165  49.828  1.00  0.00     0.173 C 
HETATM   23 CL1  UNL     1      11.934  -0.419  48.330  1.00  0.00    -0.124 Cl
ENDBRANCH   4  22
BRANCH   1  24
HETATM   24  N1  UNL     1      16.832   1.316  47.965  1.00  0.00    -0.234 N 
ATOM     25  H12 UNL     1      16.307   1.819  47.249  1.00  0.00     0.174 HD
ATOM     26  H11 UNL     1      17.850   1.273  48.015  1.00  0.00     0.174 HD
ENDBRANCH   1  24
TORSDOF 5
ENDMDL
MODEL 2
REMARK VINA RESULT: -6.939908304      4.504      6.497
REMARK  5 active torsions:
REMARK  status: ('A' for Active; 'I' for Inactive)
REMARK    1  A    between atoms: N1_1  and  C1_4 
REMARK    2  A    between atoms: C2_7  and  C3_8 
REMARK    3  A    between atoms: C4_10  and  C5_11 
REMARK    4  A    between atoms: N3_14  and  C7_16 
REMARK    5  A    between atoms: C7_16  and  C8_17 
ROOT
HETATM    1  C1  UNL     1      12.858  -0.432  49.150  1.00  0.00     0.677 A 
HETATM    2  N2  UNL     1      14.178  -0.632  49.200  1.00  0.00    -0.194 N 
ATOM      3  H2  UNL     1      14.748  -0.612  48.355  1.00  0.00     0.184 HD
HETATM    4  C2  UNL     1      14.723  -0.856  50.398  1.00  0.00     0.057 A 
HETATM    5  C4  UNL     1      13.924  -0.876  51.540  1.00  0.00     0.070 A 
HETATM    6  C6  UNL     1      12.558  -0.668  51.469  1.00  0.00     0.136 A 
HETATM    7  N3  UNL     1      11.778  -0.687  52.453  1.00  0.00    -0.350 N 
ATOM      8  H3  UNL     1      10.812  -0.510  52.176  1.00  0.00     0.166 HD
HETATM    9  N4  UNL     1      12.055  -0.442  50.203  1.00  0.00    -0.176 N 
ATOM     10  H4  UNL     1      11.055  -0.280  50.078  1.00  0.00     0.186 HD
ENDROOT
BRANCH   5  11
HETATM   11  C5  UNL     1      14.617  -1.132  52.787  1.00  0.00     0.275 C 
HETATM   12  O1  UNL     1      14.688  -2.237  53.344  1.00  0.00    -0.301 OA
ENDBRANCH   5  11
BRANCH   7  13
HETATM   13  C7  UNL     1      11.895  -0.889  53.827  1.00  0.00     0.102 C 
BRANCH  13  14
HETATM   14  C8  UNL     1      10.585  -1.196  54.488  1.00  0.00    -0.003 A 
HETATM   15  C9  UNL     1       9.619  -0.223  54.512  1.00  0.00     0.015 A 
HETATM   16  C10 UNL     1       8.375  -0.454  55.114  1.00  0.00     0.020 A 
HETATM   17  C11 UNL     1       8.143  -1.686  55.685  1.00  0.00     0.012 A 
HETATM   18 BR1  UNL     1       6.440  -2.039  56.523  1.00  0.00    -0.051 Br
HETATM   19  C12 UNL     1       9.105  -2.667  55.666  1.00  0.00     0.039 A 
HETATM   20  C13 UNL     1      10.335  -2.412  55.060  1.00  0.00     0.023 A 
HETATM   21 BR2  UNL     1      11.705  -3.749  55.010  1.00  0.00    -0.050 Br
ENDBRANCH  13  14
ENDBRANCH   7  13
BRANCH   4  22
HETATM   22  C3  UNL     1      16.192  -1.087  50.551  1.00  0.00     0.173 C 
HETATM   23 CL1  UNL     1      17.141  -0.290  49.293  1.00  0.00    -0.124 Cl
ENDBRANCH   4  22
BRANCH   1  24
HETATM   24  N1  UNL     1      12.353  -0.215  47.970  1.00  0.00    -0.234 N 
ATOM     25  H12 UNL     1      12.917   0.266  47.269  1.00  0.00     0.174 HD
ATOM     26  H11 UNL     1      11.401  -0.549  47.818  1.00  0.00     0.174 HD
ENDBRANCH   1  24
TORSDOF 5
ENDMDL
MODEL 3
REMARK VINA RESULT: -6.822183616      1.702      3.206
REMARK  5 active torsions:
REMARK  status: ('A' for Active; 'I' for Inactive)
REMARK    1  A    between atoms: N1_1  and  C1_4 
REMARK    2  A    between atoms: C2_7  and  C3_8 
REMARK    3  A    between atoms: C4_10  and  C5_11 
REMARK    4  A    between atoms: N3_14  and  C7_16 
REMARK    5  A    between atoms: C7_16  and  C8_17 
ROOT
HETATM    1  C1  UNL     1      16.300   0.807  48.961  1.00  0.00     0.677 A 
HETATM    2  N2  UNL     1      15.002   0.587  48.734  1.00  0.00    -0.194 N 
ATOM      3  H2  UNL     1      14.467   1.184  48.103  1.00  0.00     0.184 HD
HETATM    4  C2  UNL     1      14.431  -0.443  49.363  1.00  0.00     0.057 A 
HETATM    5  C4  UNL     1      15.183  -1.246  50.220  1.00  0.00     0.070 A 
HETATM    6  C6  UNL     1      16.527  -1.003  50.443  1.00  0.00     0.136 A 
HETATM    7  N3  UNL     1      17.259  -1.676  51.211  1.00  0.00    -0.350 N 
ATOM      8  H3  UNL     1      18.216  -1.323  51.227  1.00  0.00     0.166 HD
HETATM    9  N4  UNL     1      17.058   0.076  49.764  1.00  0.00    -0.176 N 
ATOM     10  H4  UNL     1      18.044   0.312  49.882  1.00  0.00     0.186 HD
ENDROOT
BRANCH   5  11
HETATM   11  C5  UNL     1      14.465  -2.333  50.852  1.00  0.00     0.275 C 
HETATM   12  O1  UNL     1      13.713  -2.212  51.831  1.00  0.00    -0.301 OA
ENDBRANCH   5  11
BRANCH   7  13
HETATM   13  C7  UNL     1      17.097  -2.779  52.046  1.00  0.00     0.102 C 
BRANCH  13  14
HETATM   14  C8  UNL     1      16.770  -2.401  53.459  1.00  0.00    -0.003 A 
HETATM   15  C9  UNL     1      16.584  -1.076  53.757  1.00  0.00     0.015 A 
HETATM   16  C10 UNL     1      16.275  -0.664  55.061  1.00  0.00     0.020 A 
HETATM   17  C11 UNL     1      16.163  -1.626  56.041  1.00  0.00     0.012 A 
HETATM   18 BR1  UNL     1      15.738  -1.094  57.848  1.00  0.00    -0.051 Br
HETATM   19  C12 UNL     1      16.347  -2.956  55.752  1.00  0.00     0.039 A 
HETATM   20  C13 UNL     1      16.653  -3.340  54.446  1.00  0.00     0.023 A 
HETATM   21 BR2  UNL     1      16.919  -5.182  53.997  1.00  0.00    -0.050 Br
ENDBRANCH  13  14
ENDBRANCH   7  13
BRANCH   4  22
HETATM   22  C3  UNL     1      12.985  -0.766  49.168  1.00  0.00     0.173 C 
HETATM   23 CL1  UNL     1      12.267   0.112  47.814  1.00  0.00    -0.124 Cl
ENDBRANCH   4  22
BRANCH   1  24
HETATM   24  N1  UNL     1      16.831   1.817  48.335  1.00  0.00    -0.234 N 
ATOM     25  H12 UNL     1      16.889   2.720  48.808  1.00  0.00     0.174 HD
ATOM     26  H11 UNL     1      17.163   1.637  47.388  1.00  0.00     0.174 HD
ENDBRANCH   1  24
TORSDOF 5
ENDMDL
MODEL 4
REMARK VINA RESULT: -6.648645793      4.255      5.907
REMARK  5 active torsions:
REMARK  status: ('A' for Active; 'I' for Inactive)
REMARK    1  A    between atoms: N1_1  and  C1_4 
REMARK    2  A    between atoms: C2_7  and  C3_8 
REMARK    3  A    between atoms: C4_10  and  C5_11 
REMARK    4  A    between atoms: N3_14  and  C7_16 
REMARK    5  A    between atoms: C7_16  and  C8_17 
ROOT
HETATM    1  C1  UNL     1      16.541  -1.507  52.588  1.00  0.00     0.677 A 
HETATM    2  N2  UNL     1      16.545  -1.120  51.309  1.00  0.00    -0.194 N 
ATOM      3  H2  UNL     1      17.415  -1.043  50.783  1.00  0.00     0.184 HD
HETATM    4  C2  UNL     1      15.368  -0.840  50.746  1.00  0.00     0.057 A 
HETATM    5  C4  UNL     1      14.191  -0.955  51.485  1.00  0.00     0.070 A 
HETATM    6  C6  UNL     1      14.206  -1.356  52.808  1.00  0.00     0.136 A 
HETATM    7  N3  UNL     1      13.188  -1.467  53.535  1.00  0.00    -0.350 N 
ATOM      8  H3  UNL     1      13.426  -1.777  54.478  1.00  0.00     0.166 HD
HETATM    9  N4  UNL     1      15.454  -1.631  53.334  1.00  0.00    -0.176 N 
ATOM     10  H4  UNL     1      15.538  -1.933  54.304  1.00  0.00     0.186 HD
ENDROOT
BRANCH   5  11
HETATM   11  C5  UNL     1      12.971  -0.623  50.777  1.00  0.00     0.275 C 
HETATM   12  O1  UNL     1      12.435   0.495  50.774  1.00  0.00    -0.301 OA
ENDBRANCH   5  11
BRANCH   7  13
HETATM   13  C7  UNL     1      11.816  -1.274  53.384  1.00  0.00     0.102 C 
BRANCH  13  14
HETATM   14  C8  UNL     1      10.998  -2.164  54.270  1.00  0.00    -0.003 A 
HETATM   15  C9  UNL     1      11.425  -3.449  54.482  1.00  0.00     0.015 A 
HETATM   16  C10 UNL     1      10.701  -4.325  55.302  1.00  0.00     0.020 A 
HETATM   17  C11 UNL     1       9.544  -3.865  55.892  1.00  0.00     0.012 A 
HETATM   18 BR1  UNL     1       8.523  -5.045  57.028  1.00  0.00    -0.051 Br
HETATM   19  C12 UNL     1       9.109  -2.578  55.685  1.00  0.00     0.039 A 
HETATM   20  C13 UNL     1       9.848  -1.726  54.865  1.00  0.00     0.023 A 
HETATM   21 BR2  UNL     1       9.278   0.075  54.547  1.00  0.00    -0.050 Br
ENDBRANCH  13  14
ENDBRANCH   7  13
BRANCH   4  22
HETATM   22  C3  UNL     1      15.275  -0.402  49.319  1.00  0.00     0.173 C 
HETATM   23 CL1  UNL     1      16.432   0.871  48.921  1.00  0.00    -0.124 Cl
ENDBRANCH   4  22
BRANCH   1  24
HETATM   24  N1  UNL     1      17.702  -1.775  53.112  1.00  0.00    -0.234 N 
ATOM     25  H12 UNL     1      18.252  -1.015  53.515  1.00  0.00     0.174 HD
ATOM     26  H11 UNL     1      17.994  -2.751  53.087  1.00  0.00     0.174 HD
ENDBRANCH   1  24
TORSDOF 5
ENDMDL
MODEL 5
REMARK VINA RESULT: -6.642681824      1.150      1.199
REMARK  5 active torsions:
REMARK  status: ('A' for Active; 'I' for Inactive)
REMARK    1  A    between atoms: N1_1  and  C1_4 
REMARK    2  A    between atoms: C2_7  and  C3_8 
REMARK    3  A    between atoms: C4_10  and  C5_11 
REMARK    4  A    between atoms: N3_14  and  C7_16 
REMARK    5  A    between atoms: C7_16  and  C8_17 
ROOT
HETATM    1  C1  UNL     1      16.316  -0.099  49.579  1.00  0.00     0.677 A 
HETATM    2  N2  UNL     1      15.000  -0.082  49.354  1.00  0.00    -0.194 N 
ATOM      3  H2  UNL     1      14.600   0.470  48.595  1.00  0.00     0.184 HD
HETATM    4  C2  UNL     1      14.227  -0.815  50.158  1.00  0.00     0.057 A 
HETATM    5  C4  UNL     1      14.796  -1.564  51.188  1.00  0.00     0.070 A 
HETATM    6  C6  UNL     1      16.161  -1.569  51.407  1.00  0.00     0.136 A 
HETATM    7  N3  UNL     1      16.738  -2.206  52.322  1.00  0.00    -0.350 N 
ATOM      8  H3  UNL     1      17.749  -2.068  52.302  1.00  0.00     0.166 HD
HETATM    9  N4  UNL     1      16.906  -0.790  50.542  1.00  0.00    -0.176 N 
ATOM     10  H4  UNL     1      17.920  -0.748  50.647  1.00  0.00     0.186 HD
ENDROOT
BRANCH   5  11
HETATM   11  C5  UNL     1      13.866  -2.320  52.001  1.00  0.00     0.275 C 
HETATM   12  O1  UNL     1      13.644  -3.534  51.881  1.00  0.00    -0.301 OA
ENDBRANCH   5  11
BRANCH   7  13
HETATM   13  C7  UNL     1      16.350  -3.053  53.358  1.00  0.00     0.102 C 
BRANCH  13  14
HETATM   14  C8  UNL     1      16.778  -4.474  53.146  1.00  0.00    -0.003 A 
HETATM   15  C9  UNL     1      17.201  -4.851  51.897  1.00  0.00     0.015 A 
HETATM   16  C10 UNL     1      17.614  -6.165  51.640  1.00  0.00     0.020 A 
HETATM   17  C11 UNL     1      17.585  -7.075  52.675  1.00  0.00     0.012 A 
HETATM   18 BR1  UNL     1      18.149  -8.894  52.356  1.00  0.00    -0.051 Br
HETATM   19  C12 UNL     1      17.163  -6.706  53.929  1.00  0.00     0.039 A 
HETATM   20  C13 UNL     1      16.757  -5.391  54.159  1.00  0.00     0.023 A 
HETATM   21 BR2  UNL     1      16.161  -4.832  55.891  1.00  0.00    -0.050 Br
ENDBRANCH  13  14
ENDBRANCH   7  13
BRANCH   4  22
HETATM   22  C3  UNL     1      12.743  -0.860  49.979  1.00  0.00     0.173 C 
HETATM   23 CL1  UNL     1      12.237  -0.364  48.361  1.00  0.00    -0.124 Cl
ENDBRANCH   4  22
BRANCH   1  24
HETATM   24  N1  UNL     1      17.047   0.625  48.781  1.00  0.00    -0.234 N 
ATOM     25  H12 UNL     1      16.842   0.620  47.781  1.00  0.00     0.174 HD
ATOM     26  H11 UNL     1      17.794   1.163  49.217  1.00  0.00     0.174 HD
ENDBRANCH   1  24
TORSDOF 5
ENDMDL
