MODEL 1
REMARK VINA RESULT: -8.125461131      0.000      0.000
REMARK  6 active torsions:
REMARK  status: ('A' for Active; 'I' for Inactive)
REMARK    1  A    between atoms: N1_1  and  C1_5 
REMARK    2  A    between atoms: C1_5  and  C2_6 
REMARK    3  A    between atoms: C2_6  and  C3_7 
REMARK    4  A    between atoms: C6_10  and  N2_11 
REMARK       I    between atoms: N2_11  and  C7_13 
REMARK    5  A    between atoms: C7_13  and  C8_15 
REMARK    6  A    between atoms: C18_25  and  C19_26 
ROOT
HETATM    1  C3  UNL     1      12.622  -1.088  52.951  1.00  0.00    -0.002 C 
HETATM    2  C4  UNL     1      13.836  -1.027  53.791  1.00  0.00     0.007 C 
HETATM    3  C5  UNL     1      15.081  -1.635  53.312  1.00  0.00     0.026 C 
HETATM    4  C6  UNL     1      15.140  -2.403  52.063  1.00  0.00     0.097 C 
HETATM    5  C18 UNL     1      13.912  -2.275  51.212  1.00  0.00     0.116 C 
HETATM    6  C20 UNL     1      12.652  -2.209  52.004  1.00  0.00     0.021 C 
ENDROOT
BRANCH   4   7
HETATM    7  N2  UNL     1      15.426  -3.807  52.362  1.00  0.00    -0.355 N 
HETATM    8  C7  UNL     1      16.700  -4.375  52.335  1.00  0.00     0.226 C 
HETATM    9  O1  UNL     1      17.687  -3.666  52.033  1.00  0.00    -0.273 OA
ATOM     10  H2  UNL     1      14.641  -4.411  52.607  1.00  0.00     0.162 HD
BRANCH   8  11
HETATM   11  C8  UNL     1      16.917  -5.803  52.662  1.00  0.00     0.042 C 
HETATM   12  C9  UNL     1      16.338  -6.159  54.023  1.00  0.00     0.024 C 
HETATM   13  C10 UNL     1      16.405  -7.638  54.215  1.00  0.00    -0.013 C 
HETATM   14  C11 UNL     1      15.616  -8.389  53.159  1.00  0.00     0.009 C 
HETATM   15  C15 UNL     1      17.816  -8.122  54.181  1.00  0.00     0.009 C 
HETATM   16  C12 UNL     1      16.267  -8.076  51.831  1.00  0.00    -0.013 C 
HETATM   17  C13 UNL     1      17.721  -8.496  51.778  1.00  0.00     0.009 C 
HETATM   18  C17 UNL     1      16.189  -6.607  51.593  1.00  0.00     0.024 C 
HETATM   19  C14 UNL     1      18.446  -7.717  52.869  1.00  0.00    -0.013 C 
HETATM   20  C16 UNL     1      18.353  -6.224  52.634  1.00  0.00     0.024 C 
ENDBRANCH   8  11
ENDBRANCH   4   7
BRANCH   5  21
HETATM   21  C19 UNL     1      13.995  -1.206  50.153  1.00  0.00     0.393 C 
HETATM   22  F1  UNL     1      12.775  -1.079  49.518  1.00  0.00    -0.171 F 
HETATM   23  F2  UNL     1      14.371   0.030  50.610  1.00  0.00    -0.171 F 
HETATM   24  F3  UNL     1      14.983  -1.556  49.215  1.00  0.00    -0.171 F 
ENDBRANCH   5  21
BRANCH   1  25
HETATM   25  C2  UNL     1      11.329  -1.008  53.734  1.00  0.00     0.011 C 
HETATM   26  C21 UNL     1      10.115  -1.038  52.835  1.00  0.00     0.015 C 
HETATM   27  C22 UNL     1       8.831  -0.860  53.643  1.00  0.00     0.028 C 
HETATM   28  C23 UNL     1       8.883   0.266  54.608  1.00  0.00     0.232 C 
HETATM   29  N3  UNL     1      10.092   0.355  55.352  1.00  0.00    -0.074 N 
HETATM   30  C24 UNL     1      11.286   0.305  54.540  1.00  0.00     0.243 C 
ATOM     31  H32 UNL     1      10.091   1.189  55.938  1.00  0.00     0.277 HD
ATOM     32  H31 UNL     1      10.120  -0.364  56.075  1.00  0.00     0.277 HD
BRANCH  25  33
HETATM   33  C1  UNL     1      11.183  -2.084  54.768  1.00  0.00     0.241 C 
BRANCH  33  34
HETATM   34  N1  UNL     1      10.573  -3.292  54.366  1.00  0.00    -0.079 N 
ATOM     35  H13 UNL     1       9.627  -3.100  54.036  1.00  0.00     0.274 HD
ATOM     36  H12 UNL     1      11.011  -3.622  53.507  1.00  0.00     0.274 HD
ATOM     37  H11 UNL     1      10.546  -4.052  55.046  1.00  0.00     0.274 HD
ENDBRANCH  33  34
ENDBRANCH  25  33
ENDBRANCH   1  25
TORSDOF 6
ENDMDL
MODEL 2
REMARK VINA RESULT: -8.119234253      0.420      1.426
REMARK  6 active torsions:
REMARK  status: ('A' for Active; 'I' for Inactive)
REMARK    1  A    between atoms: N1_1  and  C1_5 
REMARK    2  A    between atoms: C1_5  and  C2_6 
REMARK    3  A    between atoms: C2_6  and  C3_7 
REMARK    4  A    between atoms: C6_10  and  N2_11 
REMARK       I    between atoms: N2_11  and  C7_13 
REMARK    5  A    between atoms: C7_13  and  C8_15 
REMARK    6  A    between atoms: C18_25  and  C19_26 
ROOT
HETATM    1  C3  UNL     1      12.602  -1.157  53.036  1.00  0.00    -0.002 C 
HETATM    2  C4  UNL     1      13.797  -1.053  53.900  1.00  0.00     0.007 C 
HETATM    3  C5  UNL     1      15.053  -1.680  53.479  1.00  0.00     0.026 C 
HETATM    4  C6  UNL     1      15.142  -2.506  52.269  1.00  0.00     0.097 C 
HETATM    5  C18 UNL     1      13.934  -2.422  51.385  1.00  0.00     0.116 C 
HETATM    6  C20 UNL     1      12.656  -2.322  52.144  1.00  0.00     0.021 C 
ENDROOT
BRANCH   4   7
HETATM    7  N2  UNL     1      15.423  -3.894  52.642  1.00  0.00    -0.355 N 
HETATM    8  C7  UNL     1      16.293  -4.735  51.946  1.00  0.00     0.226 C 
HETATM    9  O1  UNL     1      16.885  -4.309  50.930  1.00  0.00    -0.273 OA
ATOM     10  H2  UNL     1      14.951  -4.272  53.464  1.00  0.00     0.162 HD
BRANCH   8  11
HETATM   11  C8  UNL     1      16.538  -6.127  52.388  1.00  0.00     0.042 C 
HETATM   12  C9  UNL     1      16.112  -7.133  51.330  1.00  0.00     0.024 C 
HETATM   13  C10 UNL     1      16.562  -8.498  51.738  1.00  0.00    -0.013 C 
HETATM   14  C11 UNL     1      18.069  -8.584  51.887  1.00  0.00     0.009 C 
HETATM   15  C15 UNL     1      15.936  -8.906  53.031  1.00  0.00     0.009 C 
HETATM   16  C12 UNL     1      18.447  -7.632  52.999  1.00  0.00    -0.013 C 
HETATM   17  C13 UNL     1      17.783  -7.977  54.315  1.00  0.00     0.009 C 
HETATM   18  C17 UNL     1      18.040  -6.252  52.609  1.00  0.00     0.024 C 
HETATM   19  C14 UNL     1      16.279  -7.883  54.089  1.00  0.00    -0.013 C 
HETATM   20  C16 UNL     1      15.869  -6.485  53.679  1.00  0.00     0.024 C 
ENDBRANCH   8  11
ENDBRANCH   4   7
BRANCH   5  21
HETATM   21  C19 UNL     1      14.040  -1.404  50.279  1.00  0.00     0.393 C 
HETATM   22  F1  UNL     1      12.849  -1.343  49.582  1.00  0.00    -0.171 F 
HETATM   23  F2  UNL     1      14.360  -0.137  50.690  1.00  0.00    -0.171 F 
HETATM   24  F3  UNL     1      15.081  -1.771  49.407  1.00  0.00    -0.171 F 
ENDBRANCH   5  21
BRANCH   1  25
HETATM   25  C2  UNL     1      11.291  -1.043  53.784  1.00  0.00     0.011 C 
HETATM   26  C21 UNL     1      10.100  -1.077  52.857  1.00  0.00     0.015 C 
HETATM   27  C22 UNL     1       8.799  -0.864  53.627  1.00  0.00     0.028 C 
HETATM   28  C23 UNL     1       8.843   0.281  54.570  1.00  0.00     0.232 C 
HETATM   29  N3  UNL     1      10.033   0.370  55.342  1.00  0.00    -0.074 N 
HETATM   30  C24 UNL     1      11.246   0.288  54.561  1.00  0.00     0.243 C 
ATOM     31  H32 UNL     1      10.030   1.217  55.910  1.00  0.00     0.277 HD
ATOM     32  H31 UNL     1      10.034  -0.333  56.081  1.00  0.00     0.277 HD
BRANCH  25  33
HETATM   33  C1  UNL     1      11.106  -2.095  54.838  1.00  0.00     0.241 C 
BRANCH  33  34
HETATM   34  N1  UNL     1      10.559  -3.331  54.430  1.00  0.00    -0.079 N 
ATOM     35  H13 UNL     1       9.812  -3.165  53.755  1.00  0.00     0.274 HD
ATOM     36  H12 UNL     1      11.235  -3.824  53.849  1.00  0.00     0.274 HD
ATOM     37  H11 UNL     1      10.220  -3.957  55.161  1.00  0.00     0.274 HD
ENDBRANCH  33  34
ENDBRANCH  25  33
ENDBRANCH   1  25
TORSDOF 6
ENDMDL
MODEL 3
REMARK VINA RESULT: -8.066337479      0.221      1.266
REMARK  6 active torsions:
REMARK  status: ('A' for Active; 'I' for Inactive)
REMARK    1  A    between atoms: N1_1  and  C1_5 
REMARK    2  A    between atoms: C1_5  and  C2_6 
REMARK    3  A    between atoms: C2_6  and  C3_7 
REMARK    4  A    between atoms: C6_10  and  N2_11 
REMARK       I    between atoms: N2_11  and  C7_13 
REMARK    5  A    between atoms: C7_13  and  C8_15 
REMARK    6  A    between atoms: C18_25  and  C19_26 
ROOT
HETATM    1  C3  UNL     1      12.576  -1.028  52.903  1.00  0.00    -0.002 C 
HETATM    2  C4  UNL     1      13.804  -1.038  53.726  1.00  0.00     0.007 C 
HETATM    3  C5  UNL     1      15.027  -1.647  53.195  1.00  0.00     0.026 C 
HETATM    4  C6  UNL     1      15.050  -2.350  51.907  1.00  0.00     0.097 C 
HETATM    5  C18 UNL     1      13.812  -2.150  51.084  1.00  0.00     0.116 C 
HETATM    6  C20 UNL     1      12.566  -2.098  51.899  1.00  0.00     0.021 C 
ENDROOT
BRANCH   4   7
HETATM    7  N2  UNL     1      15.307  -3.774  52.129  1.00  0.00    -0.355 N 
HETATM    8  C7  UNL     1      16.579  -4.348  52.165  1.00  0.00     0.226 C 
HETATM    9  O1  UNL     1      17.588  -3.627  51.996  1.00  0.00    -0.273 OA
ATOM     10  H2  UNL     1      14.504  -4.388  52.265  1.00  0.00     0.162 HD
BRANCH   8  11
HETATM   11  C8  UNL     1      16.765  -5.797  52.406  1.00  0.00     0.042 C 
HETATM   12  C9  UNL     1      18.229  -6.141  52.639  1.00  0.00     0.024 C 
HETATM   13  C10 UNL     1      18.336  -7.566  53.072  1.00  0.00    -0.013 C 
HETATM   14  C11 UNL     1      17.580  -7.833  54.360  1.00  0.00     0.009 C 
HETATM   15  C15 UNL     1      17.815  -8.488  52.020  1.00  0.00     0.009 C 
HETATM   16  C12 UNL     1      16.123  -7.558  54.069  1.00  0.00    -0.013 C 
HETATM   17  C13 UNL     1      15.572  -8.433  52.962  1.00  0.00     0.009 C 
HETATM   18  C17 UNL     1      15.975  -6.131  53.664  1.00  0.00     0.024 C 
HETATM   19  C14 UNL     1      16.382  -8.123  51.710  1.00  0.00    -0.013 C 
HETATM   20  C16 UNL     1      16.243  -6.670  51.308  1.00  0.00     0.024 C 
ENDBRANCH   8  11
ENDBRANCH   4   7
BRANCH   5  21
HETATM   21  C19 UNL     1      13.904  -1.029  50.082  1.00  0.00     0.393 C 
HETATM   22  F1  UNL     1      12.653  -0.764  49.559  1.00  0.00    -0.171 F 
HETATM   23  F2  UNL     1      14.421   0.142  50.571  1.00  0.00    -0.171 F 
HETATM   24  F3  UNL     1      14.781  -1.401  49.046  1.00  0.00    -0.171 F 
ENDBRANCH   5  21
BRANCH   1  25
HETATM   25  C2  UNL     1      11.297  -0.960  53.710  1.00  0.00     0.011 C 
HETATM   26  C21 UNL     1      10.067  -0.994  52.834  1.00  0.00     0.015 C 
HETATM   27  C22 UNL     1       8.797  -0.828  53.665  1.00  0.00     0.028 C 
HETATM   28  C23 UNL     1       8.860   0.293  54.636  1.00  0.00     0.232 C 
HETATM   29  N3  UNL     1      10.080   0.386  55.357  1.00  0.00    -0.074 N 
HETATM   30  C24 UNL     1      11.260   0.349  54.524  1.00  0.00     0.243 C 
ATOM     31  H32 UNL     1      10.085   1.218  55.948  1.00  0.00     0.277 HD
ATOM     32  H31 UNL     1      10.127  -0.336  56.077  1.00  0.00     0.277 HD
BRANCH  25  33
HETATM   33  C1  UNL     1      11.178  -2.043  54.742  1.00  0.00     0.241 C 
BRANCH  33  34
HETATM   34  N1  UNL     1      10.555  -3.247  54.349  1.00  0.00    -0.079 N 
ATOM     35  H13 UNL     1      11.130  -3.713  53.647  1.00  0.00     0.274 HD
ATOM     36  H12 UNL     1      10.606  -3.919  55.114  1.00  0.00     0.274 HD
ATOM     37  H11 UNL     1       9.593  -3.189  54.014  1.00  0.00     0.274 HD
ENDBRANCH  33  34
ENDBRANCH  25  33
ENDBRANCH   1  25
TORSDOF 6
ENDMDL
MODEL 4
REMARK VINA RESULT: -8.060934024      3.531      5.805
REMARK  6 active torsions:
REMARK  status: ('A' for Active; 'I' for Inactive)
REMARK    1  A    between atoms: N1_1  and  C1_5 
REMARK    2  A    between atoms: C1_5  and  C2_6 
REMARK    3  A    between atoms: C2_6  and  C3_7 
REMARK    4  A    between atoms: C6_10  and  N2_11 
REMARK       I    between atoms: N2_11  and  C7_13 
REMARK    5  A    between atoms: C7_13  and  C8_15 
REMARK    6  A    between atoms: C18_25  and  C19_26 
ROOT
HETATM    1  C3  UNL     1       9.992  -3.210  56.111  1.00  0.00    -0.002 C 
HETATM    2  C4  UNL     1      11.115  -2.505  56.761  1.00  0.00     0.007 C 
HETATM    3  C5  UNL     1      11.922  -1.556  55.988  1.00  0.00     0.026 C 
HETATM    4  C6  UNL     1      11.720  -1.357  54.548  1.00  0.00     0.097 C 
HETATM    5  C18 UNL     1      10.467  -1.989  54.017  1.00  0.00     0.116 C 
HETATM    6  C20 UNL     1      10.154  -3.299  54.655  1.00  0.00     0.021 C 
ENDROOT
BRANCH   4   7
HETATM    7  N2  UNL     1      12.896  -1.831  53.816  1.00  0.00    -0.355 N 
HETATM    8  C7  UNL     1      13.348  -1.284  52.615  1.00  0.00     0.226 C 
HETATM    9  O1  UNL     1      12.728  -0.327  52.098  1.00  0.00    -0.273 OA
ATOM     10  H2  UNL     1      13.420  -2.612  54.211  1.00  0.00     0.162 HD
BRANCH   8  11
HETATM   11  C8  UNL     1      14.556  -1.806  51.935  1.00  0.00     0.042 C 
HETATM   12  C9  UNL     1      14.540  -1.489  50.447  1.00  0.00     0.024 C 
HETATM   13  C10 UNL     1      15.860  -1.858  49.852  1.00  0.00    -0.013 C 
HETATM   14  C11 UNL     1      17.007  -1.092  50.483  1.00  0.00     0.009 C 
HETATM   15  C15 UNL     1      16.129  -3.319  50.002  1.00  0.00     0.009 C 
HETATM   16  C12 UNL     1      17.042  -1.492  51.940  1.00  0.00    -0.013 C 
HETATM   17  C13 UNL     1      17.251  -2.979  52.134  1.00  0.00     0.009 C 
HETATM   18  C17 UNL     1      15.749  -1.108  52.574  1.00  0.00     0.024 C 
HETATM   19  C14 UNL     1      16.075  -3.682  51.468  1.00  0.00    -0.013 C 
HETATM   20  C16 UNL     1      14.761  -3.280  52.103  1.00  0.00     0.024 C 
ENDBRANCH   8  11
ENDBRANCH   4   7
BRANCH   5  21
HETATM   21  C19 UNL     1       9.278  -1.066  53.960  1.00  0.00     0.393 C 
HETATM   22  F1  UNL     1       8.900  -0.868  52.646  1.00  0.00    -0.171 F 
HETATM   23  F2  UNL     1       8.181  -1.494  54.661  1.00  0.00    -0.171 F 
HETATM   24  F3  UNL     1       9.618   0.167  54.547  1.00  0.00    -0.171 F 
ENDBRANCH   5  21
BRANCH   1  25
HETATM   25  C2  UNL     1       9.645  -4.537  56.751  1.00  0.00     0.011 C 
HETATM   26  C21 UNL     1      10.381  -4.751  58.053  1.00  0.00     0.015 C 
HETATM   27  C22 UNL     1      10.086  -6.135  58.627  1.00  0.00     0.028 C 
HETATM   28  C23 UNL     1      10.208  -7.233  57.636  1.00  0.00     0.232 C 
HETATM   29  N3  UNL     1       9.623  -6.958  56.370  1.00  0.00    -0.074 N 
HETATM   30  C24 UNL     1      10.022  -5.691  55.801  1.00  0.00     0.243 C 
ATOM     31  H32 UNL     1       9.808  -7.718  55.717  1.00  0.00     0.277 HD
ATOM     32  H31 UNL     1       8.606  -7.021  56.425  1.00  0.00     0.277 HD
BRANCH  25  33
HETATM   33  C1  UNL     1       8.177  -4.721  56.997  1.00  0.00     0.241 C 
BRANCH  33  34
HETATM   34  N1  UNL     1       7.309  -4.546  55.898  1.00  0.00    -0.079 N 
ATOM     35  H13 UNL     1       6.704  -3.742  56.069  1.00  0.00     0.274 HD
ATOM     36  H12 UNL     1       7.843  -4.215  55.095  1.00  0.00     0.274 HD
ATOM     37  H11 UNL     1       6.739  -5.345  55.619  1.00  0.00     0.274 HD
ENDBRANCH  33  34
ENDBRANCH  25  33
ENDBRANCH   1  25
TORSDOF 6
ENDMDL
MODEL 5
REMARK VINA RESULT: -7.985877964      3.524      5.392
REMARK  6 active torsions:
REMARK  status: ('A' for Active; 'I' for Inactive)
REMARK    1  A    between atoms: N1_1  and  C1_5 
REMARK    2  A    between atoms: C1_5  and  C2_6 
REMARK    3  A    between atoms: C2_6  and  C3_7 
REMARK    4  A    between atoms: C6_10  and  N2_11 
REMARK       I    between atoms: N2_11  and  C7_13 
REMARK    5  A    between atoms: C7_13  and  C8_15 
REMARK    6  A    between atoms: C18_25  and  C19_26 
ROOT
HETATM    1  C3  UNL     1       9.792  -3.479  56.332  1.00  0.00    -0.002 C 
HETATM    2  C4  UNL     1      10.844  -2.909  57.199  1.00  0.00     0.007 C 
HETATM    3  C5  UNL     1      11.856  -2.019  56.622  1.00  0.00     0.026 C 
HETATM    4  C6  UNL     1      11.928  -1.756  55.180  1.00  0.00     0.097 C 
HETATM    5  C18 UNL     1      10.736  -2.244  54.413  1.00  0.00     0.116 C 
HETATM    6  C20 UNL     1      10.198  -3.537  54.923  1.00  0.00     0.021 C 
ENDROOT
BRANCH   4   7
HETATM    7  N2  UNL     1      13.166  -2.319  54.639  1.00  0.00    -0.355 N 
HETATM    8  C7  UNL     1      13.933  -1.718  53.640  1.00  0.00     0.226 C 
HETATM    9  O1  UNL     1      13.564  -0.627  53.148  1.00  0.00    -0.273 OA
ATOM     10  H2  UNL     1      13.490  -3.209  55.016  1.00  0.00     0.162 HD
BRANCH   8  11
HETATM   11  C8  UNL     1      15.184  -2.339  53.148  1.00  0.00     0.042 C 
HETATM   12  C9  UNL     1      15.927  -3.059  54.263  1.00  0.00     0.024 C 
HETATM   13  C10 UNL     1      17.065  -3.830  53.679  1.00  0.00    -0.013 C 
HETATM   14  C11 UNL     1      16.599  -4.870  52.677  1.00  0.00     0.009 C 
HETATM   15  C15 UNL     1      18.036  -2.923  52.998  1.00  0.00     0.009 C 
HETATM   16  C12 UNL     1      15.938  -4.115  51.548  1.00  0.00    -0.013 C 
HETATM   17  C13 UNL     1      16.875  -3.137  50.870  1.00  0.00     0.009 C 
HETATM   18  C17 UNL     1      14.775  -3.358  52.092  1.00  0.00     0.024 C 
HETATM   19  C14 UNL     1      17.311  -2.135  51.932  1.00  0.00    -0.013 C 
HETATM   20  C16 UNL     1      16.127  -1.377  52.494  1.00  0.00     0.024 C 
ENDBRANCH   8  11
ENDBRANCH   4   7
BRANCH   5  21
HETATM   21  C19 UNL     1       9.664  -1.208  54.198  1.00  0.00     0.393 C 
HETATM   22  F1  UNL     1       9.474  -1.003  52.845  1.00  0.00    -0.171 F 
HETATM   23  F2  UNL     1       8.451  -1.507  54.760  1.00  0.00    -0.171 F 
HETATM   24  F3  UNL     1      10.054  -0.002  54.810  1.00  0.00    -0.171 F 
ENDBRANCH   5  21
BRANCH   1  25
HETATM   25  C2  UNL     1       9.219  -4.786  56.838  1.00  0.00     0.011 C 
HETATM   26  C21 UNL     1       9.871  -5.233  58.125  1.00  0.00     0.015 C 
HETATM   27  C22 UNL     1       9.342  -6.598  58.561  1.00  0.00     0.028 C 
HETATM   28  C23 UNL     1       9.318  -7.606  57.472  1.00  0.00     0.232 C 
HETATM   29  N3  UNL     1       8.823  -7.126  56.229  1.00  0.00    -0.074 N 
HETATM   30  C24 UNL     1       9.436  -5.894  55.789  1.00  0.00     0.243 C 
ATOM     31  H32 UNL     1       8.904  -7.844  55.510  1.00  0.00     0.277 HD
ATOM     32  H31 UNL     1       7.808  -7.030  56.262  1.00  0.00     0.277 HD
BRANCH  25  33
HETATM   33  C1  UNL     1       7.733  -4.752  57.043  1.00  0.00     0.241 C 
BRANCH  33  34
HETATM   34  N1  UNL     1       6.948  -4.211  56.002  1.00  0.00    -0.079 N 
ATOM     35  H13 UNL     1       7.559  -3.819  55.285  1.00  0.00     0.274 HD
ATOM     36  H12 UNL     1       6.507  -4.970  55.483  1.00  0.00     0.274 HD
ATOM     37  H11 UNL     1       6.241  -3.521  56.259  1.00  0.00     0.274 HD
ENDBRANCH  33  34
ENDBRANCH  25  33
ENDBRANCH   1  25
TORSDOF 6
ENDMDL
