MODEL 1
REMARK VINA RESULT: -7.150269540      0.000      0.000
REMARK  5 active torsions:
REMARK  status: ('A' for Active; 'I' for Inactive)
REMARK    1  A    between atoms: O1_2  and  C2_3 
REMARK    2  A    between atoms: C2_3  and  N2_7 
REMARK    3  A    between atoms: N2_7  and  C3_9 
REMARK    4  A    between atoms: C3_9  and  C4_10 
REMARK    5  A    between atoms: C4_10  and  C5_11 
ROOT
HETATM    1  C4  UNL     1      16.574  -4.700  51.871  1.00  0.00     0.079 A 
HETATM    2  C8  UNL     1      15.294  -4.025  52.170  1.00  0.00     0.010 A 
HETATM    3  C9  UNL     1      14.898  -2.920  51.553  1.00  0.00     0.012 A 
HETATM    4  C10 UNL     1      13.688  -2.347  51.886  1.00  0.00     0.053 A 
HETATM    5 CL1  UNL     1      12.680  -3.070  53.118  1.00  0.00    -0.083 Cl
HETATM    6  C11 UNL     1      13.249  -1.203  51.265  1.00  0.00    -0.020 A 
HETATM    7  C12 UNL     1      11.939  -0.599  51.639  1.00  0.00     0.051 C 
HETATM    8  C13 UNL     1      13.994  -0.579  50.284  1.00  0.00     0.042 A 
HETATM    9 BR1  UNL     1      13.411   1.008  49.403  1.00  0.00    -0.049 Br
HETATM   10  C14 UNL     1      15.208  -1.166  49.959  1.00  0.00     0.079 A 
HETATM   11 CL2  UNL     1      16.159  -0.365  48.703  1.00  0.00    -0.080 Cl
HETATM   12  C15 UNL     1      15.651  -2.304  50.573  1.00  0.00     0.070 A 
HETATM   13  N3  UNL     1      16.793  -2.785  50.207  1.00  0.00    -0.324 N 
ATOM     14  H3  UNL     1      17.331  -2.312  49.481  1.00  0.00     0.169 HD
HETATM   15  C16 UNL     1      17.305  -3.962  50.802  1.00  0.00     0.236 A 
HETATM   16  O2  UNL     1      18.419  -4.407  50.420  1.00  0.00    -0.272 OA
ENDROOT
BRANCH   1  17
HETATM   17  C3  UNL     1      16.307  -6.091  51.409  1.00  0.00     0.147 C 
BRANCH  17  18
HETATM   18  N2  UNL     1      17.483  -6.908  51.255  1.00  0.00    -0.355 N 
ATOM     19  H2  UNL     1      18.354  -6.526  50.887  1.00  0.00     0.163 HD
BRANCH  18  20
HETATM   20  C2  UNL     1      17.370  -8.273  51.641  1.00  0.00     0.212 C 
HETATM   21  N1  UNL     1      17.634  -9.164  50.746  1.00  0.00    -0.366 N 
ATOM     22  H12 UNL     1      17.554 -10.142  51.023  1.00  0.00     0.159 HD
ATOM     23  H11 UNL     1      17.907  -8.843  49.817  1.00  0.00     0.159 HD
BRANCH  20  24
HETATM   24  O1  UNL     1      17.004  -8.704  52.888  1.00  0.00    -0.328 OA
HETATM   25  C1  UNL     1      15.754  -9.291  53.193  1.00  0.00     0.213 C 
ENDBRANCH  20  24
ENDBRANCH  18  20
ENDBRANCH  17  18
ENDBRANCH   1  17
BRANCH   1  26
HETATM   26  C5  UNL     1      17.452  -4.810  53.125  1.00  0.00     0.001 C 
HETATM   27  C6  UNL     1      16.673  -5.401  54.252  1.00  0.00     0.011 C 
HETATM   28  C7  UNL     1      18.063  -3.475  53.467  1.00  0.00     0.011 C 
ENDBRANCH   1  26
TORSDOF 5
ENDMDL
MODEL 2
REMARK VINA RESULT: -7.056770301      1.308      1.432
REMARK  5 active torsions:
REMARK  status: ('A' for Active; 'I' for Inactive)
REMARK    1  A    between atoms: O1_2  and  C2_3 
REMARK    2  A    between atoms: C2_3  and  N2_7 
REMARK    3  A    between atoms: N2_7  and  C3_9 
REMARK    4  A    between atoms: C3_9  and  C4_10 
REMARK    5  A    between atoms: C4_10  and  C5_11 
ROOT
HETATM    1  C4  UNL     1      16.387  -4.058  53.452  1.00  0.00     0.079 A 
HETATM    2  C8  UNL     1      15.096  -3.392  53.181  1.00  0.00     0.010 A 
HETATM    3  C9  UNL     1      14.937  -2.484  52.227  1.00  0.00     0.012 A 
HETATM    4  C10 UNL     1      13.700  -1.905  52.033  1.00  0.00     0.053 A 
HETATM    5 CL1  UNL     1      12.346  -2.361  53.040  1.00  0.00    -0.083 Cl
HETATM    6  C11 UNL     1      13.502  -0.963  51.053  1.00  0.00    -0.020 A 
HETATM    7  C12 UNL     1      12.158  -0.350  50.860  1.00  0.00     0.051 C 
HETATM    8  C13 UNL     1      14.526  -0.556  50.222  1.00  0.00     0.042 A 
HETATM    9 BR1  UNL     1      14.283   0.748  48.853  1.00  0.00    -0.049 Br
HETATM   10  C14 UNL     1      15.764  -1.146  50.427  1.00  0.00     0.079 A 
HETATM   11 CL2  UNL     1      17.073  -0.623  49.362  1.00  0.00    -0.080 Cl
HETATM   12  C15 UNL     1      15.968  -2.084  51.401  1.00  0.00     0.070 A 
HETATM   13  N3  UNL     1      17.154  -2.585  51.522  1.00  0.00    -0.324 N 
ATOM     14  H3  UNL     1      17.899  -2.273  50.899  1.00  0.00     0.169 HD
HETATM   15  C16 UNL     1      17.427  -3.562  52.508  1.00  0.00     0.236 A 
HETATM   16  O2  UNL     1      18.591  -4.033  52.596  1.00  0.00    -0.272 OA
ENDROOT
BRANCH   1  17
HETATM   17  C3  UNL     1      16.233  -5.530  53.279  1.00  0.00     0.147 C 
BRANCH  17  18
HETATM   18  N2  UNL     1      16.328  -5.986  51.917  1.00  0.00    -0.355 N 
ATOM     19  H2  UNL     1      16.524  -5.343  51.150  1.00  0.00     0.163 HD
BRANCH  18  20
HETATM   20  C2  UNL     1      16.138  -7.379  51.692  1.00  0.00     0.212 C 
HETATM   21  N1  UNL     1      16.864  -7.935  50.782  1.00  0.00    -0.366 N 
ATOM     22  H12 UNL     1      16.728  -8.933  50.621  1.00  0.00     0.159 HD
ATOM     23  H11 UNL     1      17.530  -7.350  50.277  1.00  0.00     0.159 HD
BRANCH  20  24
HETATM   24  O1  UNL     1      15.244  -8.165  52.370  1.00  0.00    -0.328 OA
HETATM   25  C1  UNL     1      15.609  -9.236  53.218  1.00  0.00     0.213 C 
ENDBRANCH  20  24
ENDBRANCH  18  20
ENDBRANCH  17  18
ENDBRANCH   1  17
BRANCH   1  26
HETATM   26  C5  UNL     1      16.840  -3.827  54.900  1.00  0.00     0.001 C 
HETATM   27  C6  UNL     1      15.993  -4.619  55.840  1.00  0.00     0.011 C 
HETATM   28  C7  UNL     1      16.860  -2.354  55.223  1.00  0.00     0.011 C 
ENDBRANCH   1  26
TORSDOF 5
ENDMDL
MODEL 3
REMARK VINA RESULT: -6.987490860      4.918      6.327
REMARK  5 active torsions:
REMARK  status: ('A' for Active; 'I' for Inactive)
REMARK    1  A    between atoms: O1_2  and  C2_3 
REMARK    2  A    between atoms: C2_3  and  N2_7 
REMARK    3  A    between atoms: N2_7  and  C3_9 
REMARK    4  A    between atoms: C3_9  and  C4_10 
REMARK    5  A    between atoms: C4_10  and  C5_11 
ROOT
HETATM    1  C4  UNL     1      11.402  -1.621  53.890  1.00  0.00     0.079 A 
HETATM    2  C8  UNL     1      11.575  -1.205  52.483  1.00  0.00     0.010 A 
HETATM    3  C9  UNL     1      12.763  -1.069  51.910  1.00  0.00     0.012 A 
HETATM    4  C10 UNL     1      12.846  -0.677  50.590  1.00  0.00     0.053 A 
HETATM    5 CL1  UNL     1      11.392  -0.357  49.674  1.00  0.00    -0.083 Cl
HETATM    6  C11 UNL     1      14.061  -0.528  49.967  1.00  0.00    -0.020 A 
HETATM    7  C12 UNL     1      14.128  -0.103  48.540  1.00  0.00     0.051 C 
HETATM    8  C13 UNL     1      15.249  -0.764  50.631  1.00  0.00     0.042 A 
HETATM    9 BR1  UNL     1      16.951  -0.566  49.794  1.00  0.00    -0.049 Br
HETATM   10  C14 UNL     1      15.152  -1.157  51.957  1.00  0.00     0.079 A 
HETATM   11 CL2  UNL     1      16.674  -1.457  52.803  1.00  0.00    -0.080 Cl
HETATM   12  C15 UNL     1      13.946  -1.307  52.582  1.00  0.00     0.070 A 
HETATM   13  N3  UNL     1      13.947  -1.680  53.820  1.00  0.00    -0.324 N 
ATOM     14  H3  UNL     1      14.833  -1.850  54.296  1.00  0.00     0.169 HD
HETATM   15  C16 UNL     1      12.731  -1.856  54.522  1.00  0.00     0.236 A 
HETATM   16  O2  UNL     1      12.767  -2.224  55.725  1.00  0.00    -0.272 OA
ENDROOT
BRANCH   1  17
HETATM   17  C3  UNL     1      10.607  -2.879  53.943  1.00  0.00     0.147 C 
BRANCH  17  18
HETATM   18  N2  UNL     1      10.138  -3.238  55.256  1.00  0.00    -0.355 N 
ATOM     19  H2  UNL     1       9.743  -2.545  55.889  1.00  0.00     0.163 HD
BRANCH  18  20
HETATM   20  C2  UNL     1      10.253  -4.608  55.626  1.00  0.00     0.212 C 
HETATM   21  N1  UNL     1      11.440  -5.116  55.647  1.00  0.00    -0.366 N 
ATOM     22  H12 UNL     1      11.522  -6.098  55.913  1.00  0.00     0.159 HD
ATOM     23  H11 UNL     1      12.223  -4.513  55.398  1.00  0.00     0.159 HD
BRANCH  20  24
HETATM   24  O1  UNL     1       9.201  -5.418  55.960  1.00  0.00    -0.328 OA
HETATM   25  C1  UNL     1       7.985  -4.956  56.515  1.00  0.00     0.213 C 
ENDBRANCH  20  24
ENDBRANCH  18  20
ENDBRANCH  17  18
ENDBRANCH   1  17
BRANCH   1  26
HETATM   26  C5  UNL     1      10.621  -0.569  54.690  1.00  0.00     0.001 C 
HETATM   27  C6  UNL     1       9.286  -0.332  54.067  1.00  0.00     0.011 C 
HETATM   28  C7  UNL     1      11.432   0.692  54.845  1.00  0.00     0.011 C 
ENDBRANCH   1  26
TORSDOF 5
ENDMDL
MODEL 4
REMARK VINA RESULT: -6.985780813      1.945      2.748
REMARK  5 active torsions:
REMARK  status: ('A' for Active; 'I' for Inactive)
REMARK    1  A    between atoms: O1_2  and  C2_3 
REMARK    2  A    between atoms: C2_3  and  N2_7 
REMARK    3  A    between atoms: N2_7  and  C3_9 
REMARK    4  A    between atoms: C3_9  and  C4_10 
REMARK    5  A    between atoms: C4_10  and  C5_11 
ROOT
HETATM    1  C4  UNL     1      16.431  -2.975  54.123  1.00  0.00     0.079 A 
HETATM    2  C8  UNL     1      15.103  -2.562  53.624  1.00  0.00     0.010 A 
HETATM    3  C9  UNL     1      14.935  -1.840  52.526  1.00  0.00     0.012 A 
HETATM    4  C10 UNL     1      13.662  -1.493  52.122  1.00  0.00     0.053 A 
HETATM    5 CL1  UNL     1      12.274  -2.000  53.054  1.00  0.00    -0.083 Cl
HETATM    6  C11 UNL     1      13.455  -0.746  50.987  1.00  0.00    -0.020 A 
HETATM    7  C12 UNL     1      12.072  -0.382  50.568  1.00  0.00     0.051 C 
HETATM    8  C13 UNL     1      14.506  -0.313  50.203  1.00  0.00     0.042 A 
HETATM    9 BR1  UNL     1      14.251   0.724  48.624  1.00  0.00    -0.049 Br
HETATM   10  C14 UNL     1      15.780  -0.668  50.620  1.00  0.00     0.079 A 
HETATM   11 CL2  UNL     1      17.122  -0.111  49.615  1.00  0.00    -0.080 Cl
HETATM   12  C15 UNL     1      15.993  -1.411  51.748  1.00  0.00     0.070 A 
HETATM   13  N3  UNL     1      17.213  -1.700  52.062  1.00  0.00    -0.324 N 
ATOM     14  H3  UNL     1      17.978  -1.371  51.473  1.00  0.00     0.169 HD
HETATM   15  C16 UNL     1      17.499  -2.468  53.216  1.00  0.00     0.236 A 
HETATM   16  O2  UNL     1      18.697  -2.736  53.491  1.00  0.00    -0.272 OA
ENDROOT
BRANCH   1  17
HETATM   17  C3  UNL     1      16.502  -4.462  54.177  1.00  0.00     0.147 C 
BRANCH  17  18
HETATM   18  N2  UNL     1      17.338  -5.059  53.169  1.00  0.00    -0.355 N 
ATOM     19  H2  UNL     1      18.336  -5.203  53.319  1.00  0.00     0.163 HD
BRANCH  18  20
HETATM   20  C2  UNL     1      16.704  -5.440  51.953  1.00  0.00     0.212 C 
HETATM   21  N1  UNL     1      16.152  -6.606  51.914  1.00  0.00    -0.366 N 
ATOM     22  H12 UNL     1      15.697  -6.879  51.043  1.00  0.00     0.159 HD
ATOM     23  H11 UNL     1      16.200  -7.186  52.751  1.00  0.00     0.159 HD
BRANCH  20  24
HETATM   24  O1  UNL     1      16.639  -4.661  50.828  1.00  0.00    -0.328 OA
HETATM   25  C1  UNL     1      17.739  -4.394  49.980  1.00  0.00     0.213 C 
ENDBRANCH  20  24
ENDBRANCH  18  20
ENDBRANCH  17  18
ENDBRANCH   1  17
BRANCH   1  26
HETATM   26  C5  UNL     1      16.673  -2.467  55.551  1.00  0.00     0.001 C 
HETATM   27  C6  UNL     1      16.179  -3.465  56.545  1.00  0.00     0.011 C 
HETATM   28  C7  UNL     1      16.068  -1.099  55.739  1.00  0.00     0.011 C 
ENDBRANCH   1  26
TORSDOF 5
ENDMDL
MODEL 5
REMARK VINA RESULT: -6.981838557      5.133      7.263
REMARK  5 active torsions:
REMARK  status: ('A' for Active; 'I' for Inactive)
REMARK    1  A    between atoms: O1_2  and  C2_3 
REMARK    2  A    between atoms: C2_3  and  N2_7 
REMARK    3  A    between atoms: N2_7  and  C3_9 
REMARK    4  A    between atoms: C3_9  and  C4_10 
REMARK    5  A    between atoms: C4_10  and  C5_11 
ROOT
HETATM    1  C4  UNL     1      11.513  -1.765  54.392  1.00  0.00     0.079 A 
HETATM    2  C8  UNL     1      12.956  -1.986  54.161  1.00  0.00     0.010 A 
HETATM    3  C9  UNL     1      13.573  -1.624  53.045  1.00  0.00     0.012 A 
HETATM    4  C10 UNL     1      14.924  -1.863  52.902  1.00  0.00     0.053 A 
HETATM    5 CL1  UNL     1      15.822  -2.642  54.184  1.00  0.00    -0.083 Cl
HETATM    6  C11 UNL     1      15.594  -1.499  51.758  1.00  0.00    -0.020 A 
HETATM    7  C12 UNL     1      17.053  -1.766  51.624  1.00  0.00     0.051 C 
HETATM    8  C13 UNL     1      14.948  -0.880  50.707  1.00  0.00     0.042 A 
HETATM    9 BR1  UNL     1      15.848  -0.362  49.108  1.00  0.00    -0.049 Br
HETATM   10  C14 UNL     1      13.590  -0.645  50.864  1.00  0.00     0.079 A 
HETATM   11 CL2  UNL     1      12.766   0.147  49.516  1.00  0.00    -0.080 Cl
HETATM   12  C15 UNL     1      12.918  -1.005  51.999  1.00  0.00     0.070 A 
HETATM   13  N3  UNL     1      11.653  -0.746  52.063  1.00  0.00    -0.324 N 
ATOM     14  H3  UNL     1      11.191  -0.289  51.277  1.00  0.00     0.169 HD
HETATM   15  C16 UNL     1      10.903  -1.091  53.211  1.00  0.00     0.236 A 
HETATM   16  O2  UNL     1       9.674  -0.821  53.244  1.00  0.00    -0.272 OA
ENDROOT
BRANCH   1  17
HETATM   17  C3  UNL     1      11.328  -0.906  55.595  1.00  0.00     0.147 C 
BRANCH  17  18
HETATM   18  N2  UNL     1      11.481   0.505  55.353  1.00  0.00    -0.355 N 
ATOM     19  H2  UNL     1      10.895   0.998  54.681  1.00  0.00     0.163 HD
BRANCH  18  20
HETATM   20  C2  UNL     1      12.490   1.177  56.098  1.00  0.00     0.212 C 
HETATM   21  N1  UNL     1      13.586   0.533  56.324  1.00  0.00    -0.366 N 
ATOM     22  H12 UNL     1      14.309   1.015  56.858  1.00  0.00     0.159 HD
ATOM     23  H11 UNL     1      13.667  -0.416  55.960  1.00  0.00     0.159 HD
BRANCH  20  24
HETATM   24  O1  UNL     1      12.382   2.452  56.587  1.00  0.00    -0.328 OA
HETATM   25  C1  UNL     1      13.167   2.968  57.644  1.00  0.00     0.213 C 
ENDBRANCH  20  24
ENDBRANCH  18  20
ENDBRANCH  17  18
ENDBRANCH   1  17
BRANCH   1  26
HETATM   26  C5  UNL     1      10.785  -3.086  54.675  1.00  0.00     0.001 C 
HETATM   27  C6  UNL     1       9.770  -2.898  55.752  1.00  0.00     0.011 C 
HETATM   28  C7  UNL     1      11.773  -4.183  54.981  1.00  0.00     0.011 C 
ENDBRANCH   1  26
TORSDOF 5
ENDMDL
