MODEL 1
REMARK VINA RESULT: -7.015922190      0.000      0.000
REMARK  4 active torsions:
REMARK  status: ('A' for Active; 'I' for Inactive)
REMARK    1  A    between atoms: C2_2  and  C7_13 
REMARK    2  A    between atoms: N1_3  and  N2_5 
REMARK       I    between atoms: N2_5  and  C3_7 
REMARK    3  A    between atoms: C3_7  and  C4_9 
REMARK    4  A    between atoms: C10_16  and  N3_17 
ROOT
HETATM    1  C7  UNL     1      14.284  -1.841  51.595  1.00  0.00    -0.011 A 
HETATM    2  C8  UNL     1      15.566  -1.331  51.608  1.00  0.00     0.016 A 
HETATM    3  C9  UNL     1      16.057  -0.510  50.620  1.00  0.00     0.032 A 
HETATM    4  C10 UNL     1      15.268  -0.136  49.519  1.00  0.00     0.051 A 
HETATM    5  C12 UNL     1      13.999  -0.630  49.493  1.00  0.00     0.038 A 
HETATM    6 BR2  UNL     1      12.783  -0.151  48.108  1.00  0.00    -0.049 Br
HETATM    7  C13 UNL     1      13.525  -1.451  50.489  1.00  0.00     0.034 A 
ENDROOT
BRANCH   1   8
HETATM    8  C2  UNL     1      13.744  -2.707  52.620  1.00  0.00     0.032 C 
HETATM    9  C1  UNL     1      14.550  -3.973  52.890  1.00  0.00     0.070 C 
HETATM   10  N1  UNL     1      12.730  -2.565  53.305  1.00  0.00    -0.302 N 
ATOM     11  H1  UNL     1      12.614  -3.349  53.947  1.00  0.00     0.186 HD
BRANCH  10  12
HETATM   12  N2  UNL     1      11.724  -1.672  53.452  1.00  0.00    -0.269 N 
HETATM   13  C3  UNL     1      10.549  -1.967  54.190  1.00  0.00     0.254 C 
HETATM   14  O1  UNL     1      10.408  -3.086  54.730  1.00  0.00    -0.270 OA
ATOM     15  H2  UNL     1      11.815  -0.754  53.016  1.00  0.00     0.190 HD
BRANCH  13  16
HETATM   16  C4  UNL     1       9.481  -0.963  54.334  1.00  0.00     0.093 C 
HETATM   17  C5  UNL     1       8.778  -0.865  52.989  1.00  0.00     0.037 C 
HETATM   18  C6  UNL     1      10.034   0.388  54.738  1.00  0.00     0.037 C 
HETATM   19 BR1  UNL     1       8.166  -1.555  55.613  1.00  0.00    -0.076 Br
ENDBRANCH  13  16
ENDBRANCH  10  12
ENDBRANCH   1   8
BRANCH   4  20
HETATM   20  N3  UNL     1      15.845   0.663  48.516  1.00  0.00    -0.332 N 
HETATM   21  C11 UNL     1      15.789   1.924  48.431  1.00  0.00     0.201 C 
HETATM   22  N4  UNL     1      16.437   2.621  47.339  1.00  0.00    -0.066 NA
HETATM   23  N5  UNL     1      15.054   2.687  49.371  1.00  0.00    -0.066 NA
ATOM     24  H3  UNL     1      16.360   0.176  47.782  1.00  0.00     0.168 HD
ENDBRANCH   4  20
TORSDOF 4
ENDMDL
MODEL 2
REMARK VINA RESULT: -6.826749325      1.833      2.043
REMARK  4 active torsions:
REMARK  status: ('A' for Active; 'I' for Inactive)
REMARK    1  A    between atoms: C2_2  and  C7_13 
REMARK    2  A    between atoms: N1_3  and  N2_5 
REMARK       I    between atoms: N2_5  and  C3_7 
REMARK    3  A    between atoms: C3_7  and  C4_9 
REMARK    4  A    between atoms: C10_16  and  N3_17 
ROOT
HETATM    1  C7  UNL     1      15.716  -2.146  50.689  1.00  0.00    -0.011 A 
HETATM    2  C8  UNL     1      16.929  -1.503  50.550  1.00  0.00     0.016 A 
HETATM    3  C9  UNL     1      17.119  -0.435  49.705  1.00  0.00     0.032 A 
HETATM    4  C10 UNL     1      16.070   0.073  48.919  1.00  0.00     0.051 A 
HETATM    5  C12 UNL     1      14.866  -0.550  49.046  1.00  0.00     0.038 A 
HETATM    6 BR2  UNL     1      13.330   0.069  48.107  1.00  0.00    -0.049 Br
HETATM    7  C13 UNL     1      14.694  -1.618  49.896  1.00  0.00     0.034 A 
ENDROOT
BRANCH   1   8
HETATM    8  C2  UNL     1      15.490  -3.271  51.569  1.00  0.00     0.032 C 
HETATM    9  C1  UNL     1      16.609  -4.308  51.597  1.00  0.00     0.070 C 
HETATM   10  N1  UNL     1      14.525  -3.509  52.298  1.00  0.00    -0.302 N 
ATOM     11  H1  UNL     1      14.660  -4.386  52.802  1.00  0.00     0.186 HD
BRANCH  10  12
HETATM   12  N2  UNL     1      13.339  -2.946  52.623  1.00  0.00    -0.269 N 
HETATM   13  C3  UNL     1      13.246  -1.784  53.433  1.00  0.00     0.254 C 
HETATM   14  O1  UNL     1      14.282  -1.243  53.879  1.00  0.00    -0.270 OA
ATOM     15  H2  UNL     1      12.480  -3.372  52.274  1.00  0.00     0.190 HD
BRANCH  13  16
HETATM   16  C4  UNL     1      11.935  -1.198  53.756  1.00  0.00     0.093 C 
HETATM   17  C5  UNL     1      11.322  -0.727  52.447  1.00  0.00     0.037 C 
HETATM   18  C6  UNL     1      12.063  -0.039  54.723  1.00  0.00     0.037 C 
HETATM   19 BR1  UNL     1      10.754  -2.541  54.477  1.00  0.00    -0.076 Br
ENDBRANCH  13  16
ENDBRANCH  10  12
ENDBRANCH   1   8
BRANCH   4  20
HETATM   20  N3  UNL     1      16.342   1.133  48.035  1.00  0.00    -0.332 N 
HETATM   21  C11 UNL     1      16.057   2.353  48.211  1.00  0.00     0.201 C 
HETATM   22  N4  UNL     1      16.401   3.345  47.213  1.00  0.00    -0.066 NA
HETATM   23  N5  UNL     1      15.351   2.779  49.363  1.00  0.00    -0.066 NA
ATOM     24  H3  UNL     1      16.816   0.894  47.165  1.00  0.00     0.168 HD
ENDBRANCH   4  20
TORSDOF 4
ENDMDL
MODEL 3
REMARK VINA RESULT: -6.698699979      4.662      8.275
REMARK  4 active torsions:
REMARK  status: ('A' for Active; 'I' for Inactive)
REMARK    1  A    between atoms: C2_2  and  C7_13 
REMARK    2  A    between atoms: N1_3  and  N2_5 
REMARK       I    between atoms: N2_5  and  C3_7 
REMARK    3  A    between atoms: C3_7  and  C4_9 
REMARK    4  A    between atoms: C10_16  and  N3_17 
ROOT
HETATM    1  C7  UNL     1      10.541  -1.054  54.429  1.00  0.00    -0.011 A 
HETATM    2  C8  UNL     1       9.456  -0.220  54.604  1.00  0.00     0.016 A 
HETATM    3  C9  UNL     1       8.355  -0.567  55.353  1.00  0.00     0.032 A 
HETATM    4  C10 UNL     1       8.270  -1.816  55.993  1.00  0.00     0.051 A 
HETATM    5  C12 UNL     1       9.334  -2.650  55.831  1.00  0.00     0.038 A 
HETATM    6 BR2  UNL     1       9.402  -4.343  56.699  1.00  0.00    -0.049 Br
HETATM    7  C13 UNL     1      10.426  -2.286  55.078  1.00  0.00     0.034 A 
ENDROOT
BRANCH   1   8
HETATM    8  C2  UNL     1      11.709  -0.713  53.648  1.00  0.00     0.032 C 
HETATM    9  C1  UNL     1      11.480  -0.626  52.142  1.00  0.00     0.070 C 
HETATM   10  N1  UNL     1      12.859  -0.483  54.025  1.00  0.00    -0.302 N 
ATOM     11  H1  UNL     1      13.464  -0.269  53.232  1.00  0.00     0.186 HD
BRANCH  10  12
HETATM   12  N2  UNL     1      13.553  -0.432  55.186  1.00  0.00    -0.269 N 
HETATM   13  C3  UNL     1      13.262   0.514  56.203  1.00  0.00     0.254 C 
HETATM   14  O1  UNL     1      12.341   1.346  56.046  1.00  0.00    -0.270 OA
ATOM     15  H2  UNL     1      14.311  -1.097  55.334  1.00  0.00     0.190 HD
BRANCH  13  16
HETATM   16  C4  UNL     1      14.036   0.530  57.456  1.00  0.00     0.093 C 
HETATM   17  C5  UNL     1      15.479   0.218  57.092  1.00  0.00     0.037 C 
HETATM   18  C6  UNL     1      13.512  -0.485  58.450  1.00  0.00     0.037 C 
HETATM   19 BR1  UNL     1      14.023   2.294  58.234  1.00  0.00    -0.076 Br
ENDBRANCH  13  16
ENDBRANCH  10  12
ENDBRANCH   1   8
BRANCH   4  20
HETATM   20  N3  UNL     1       7.095  -2.133  56.699  1.00  0.00    -0.332 N 
HETATM   21  C11 UNL     1       5.998  -2.518  56.201  1.00  0.00     0.201 C 
HETATM   22  N4  UNL     1       4.863  -2.815  57.052  1.00  0.00    -0.066 NA
HETATM   23  N5  UNL     1       5.829  -2.623  54.799  1.00  0.00    -0.066 NA
ATOM     24  H3  UNL     1       7.132  -2.043  57.714  1.00  0.00     0.168 HD
ENDBRANCH   4  20
TORSDOF 4
ENDMDL
MODEL 4
REMARK VINA RESULT: -6.684790059      2.859      3.651
REMARK  4 active torsions:
REMARK  status: ('A' for Active; 'I' for Inactive)
REMARK    1  A    between atoms: C2_2  and  C7_13 
REMARK    2  A    between atoms: N1_3  and  N2_5 
REMARK       I    between atoms: N2_5  and  C3_7 
REMARK    3  A    between atoms: C3_7  and  C4_9 
REMARK    4  A    between atoms: C10_16  and  N3_17 
ROOT
HETATM    1  C7  UNL     1      14.727  -0.888  54.530  1.00  0.00    -0.011 A 
HETATM    2  C8  UNL     1      16.070  -1.085  54.281  1.00  0.00     0.016 A 
HETATM    3  C9  UNL     1      16.564  -1.397  53.036  1.00  0.00     0.032 A 
HETATM    4  C10 UNL     1      15.715  -1.537  51.924  1.00  0.00     0.051 A 
HETATM    5  C12 UNL     1      14.386  -1.344  52.154  1.00  0.00     0.038 A 
HETATM    6 BR2  UNL     1      13.118  -1.422  50.736  1.00  0.00    -0.049 Br
HETATM    7  C13 UNL     1      13.910  -1.033  53.406  1.00  0.00     0.034 A 
ENDROOT
BRANCH   1   8
HETATM    8  C2  UNL     1      14.182  -0.560  55.829  1.00  0.00     0.032 C 
HETATM    9  C1  UNL     1      15.191  -0.018  56.837  1.00  0.00     0.070 C 
HETATM   10  N1  UNL     1      13.023  -0.655  56.234  1.00  0.00    -0.302 N 
ATOM     11  H1  UNL     1      12.951  -0.342  57.203  1.00  0.00     0.186 HD
BRANCH  10  12
HETATM   12  N2  UNL     1      11.817  -1.055  55.769  1.00  0.00    -0.269 N 
HETATM   13  C3  UNL     1      10.906  -0.158  55.152  1.00  0.00     0.254 C 
HETATM   14  O1  UNL     1      11.200   1.051  55.025  1.00  0.00    -0.270 OA
ATOM     15  H2  UNL     1      11.554  -2.036  55.865  1.00  0.00     0.190 HD
BRANCH  13  16
HETATM   16  C4  UNL     1       9.607  -0.636  54.651  1.00  0.00     0.093 C 
HETATM   17  C5  UNL     1       9.849  -1.211  53.264  1.00  0.00     0.037 C 
HETATM   18  C6  UNL     1       8.587   0.482  54.586  1.00  0.00     0.037 C 
HETATM   19 BR1  UNL     1       8.948  -2.077  55.749  1.00  0.00    -0.076 Br
ENDBRANCH  13  16
ENDBRANCH  10  12
ENDBRANCH   1   8
BRANCH   4  20
HETATM   20  N3  UNL     1      16.275  -1.910  50.690  1.00  0.00    -0.332 N 
HETATM   21  C11 UNL     1      16.501  -3.089  50.290  1.00  0.00     0.201 C 
HETATM   22  N4  UNL     1      17.083  -3.329  48.985  1.00  0.00    -0.066 NA
HETATM   23  N5  UNL     1      16.238  -4.205  51.122  1.00  0.00    -0.066 NA
ATOM     24  H3  UNL     1      16.525  -1.154  50.052  1.00  0.00     0.168 HD
ENDBRANCH   4  20
TORSDOF 4
ENDMDL
MODEL 5
REMARK VINA RESULT: -6.683424466      1.457      1.868
REMARK  4 active torsions:
REMARK  status: ('A' for Active; 'I' for Inactive)
REMARK    1  A    between atoms: C2_2  and  C7_13 
REMARK    2  A    between atoms: N1_3  and  N2_5 
REMARK       I    between atoms: N2_5  and  C3_7 
REMARK    3  A    between atoms: C3_7  and  C4_9 
REMARK    4  A    between atoms: C10_16  and  N3_17 
ROOT
HETATM    1  C7  UNL     1      13.387  -2.528  52.906  1.00  0.00    -0.011 A 
HETATM    2  C8  UNL     1      14.651  -1.995  53.060  1.00  0.00     0.016 A 
HETATM    3  C9  UNL     1      15.214  -1.125  52.155  1.00  0.00     0.032 A 
HETATM    4  C10 UNL     1      14.523  -0.722  50.999  1.00  0.00     0.051 A 
HETATM    5  C12 UNL     1      13.273  -1.238  50.834  1.00  0.00     0.038 A 
HETATM    6 BR2  UNL     1      12.183  -0.727  49.359  1.00  0.00    -0.049 Br
HETATM    7  C13 UNL     1      12.726  -2.107  51.748  1.00  0.00     0.034 A 
ENDROOT
BRANCH   1   8
HETATM    8  C2  UNL     1      12.773  -3.443  53.842  1.00  0.00     0.032 C 
HETATM    9  C1  UNL     1      13.705  -4.504  54.418  1.00  0.00     0.070 C 
HETATM   10  N1  UNL     1      11.607  -3.487  54.237  1.00  0.00    -0.302 N 
ATOM     11  H1  UNL     1      11.479  -4.251  54.901  1.00  0.00     0.186 HD
BRANCH  10  12
HETATM   12  N2  UNL     1      10.447  -2.816  54.048  1.00  0.00    -0.269 N 
HETATM   13  C3  UNL     1      10.177  -1.573  54.677  1.00  0.00     0.254 C 
HETATM   14  O1  UNL     1      11.021  -1.058  55.444  1.00  0.00    -0.270 OA
ATOM     15  H2  UNL     1       9.742  -3.218  53.430  1.00  0.00     0.190 HD
BRANCH  13  16
HETATM   16  C4  UNL     1       8.905  -0.871  54.437  1.00  0.00     0.093 C 
HETATM   17  C5  UNL     1       8.558  -1.069  52.971  1.00  0.00     0.037 C 
HETATM   18  C6  UNL     1       9.012   0.605  54.759  1.00  0.00     0.037 C 
HETATM   19 BR1  UNL     1       7.486  -1.676  55.464  1.00  0.00    -0.076 Br
ENDBRANCH  13  16
ENDBRANCH  10  12
ENDBRANCH   1   8
BRANCH   4  20
HETATM   20  N3  UNL     1      15.174   0.126  50.086  1.00  0.00    -0.332 N 
HETATM   21  C11 UNL     1      15.924  -0.228  49.130  1.00  0.00     0.201 C 
HETATM   22  N4  UNL     1      16.530   0.759  48.260  1.00  0.00    -0.066 NA
HETATM   23  N5  UNL     1      16.232  -1.593  48.913  1.00  0.00    -0.066 NA
ATOM     24  H3  UNL     1      15.027   1.129  50.206  1.00  0.00     0.168 HD
ENDBRANCH   4  20
TORSDOF 4
ENDMDL
