MODEL 1
REMARK VINA RESULT: -8.797831568      0.000      0.000
REMARK  12 active torsions:
REMARK  status: ('A' for Active; 'I' for Inactive)
REMARK    1  A    between atoms: C2_2  and  C3_3 
REMARK    2  A    between atoms: C3_3  and  C4_4 
REMARK    3  A    between atoms: C4_4  and  C5_5 
REMARK       I    between atoms: C5_5  and  N1_7 
REMARK    4  A    between atoms: N1_7  and  N2_9 
REMARK    5  A    between atoms: N2_9  and  C6_11 
REMARK    6  A    between atoms: C14_19  and  C15_20 
REMARK    7  A    between atoms: C15_20  and  O3_22 
REMARK    8  A    between atoms: O3_22  and  C16_23 
REMARK    9  A    between atoms: C18_25  and  C19_26 
REMARK   10  A    between atoms: C23_35  and  O4_36 
REMARK   11  A    between atoms: C23_35  and  N4_38 
REMARK   12  A    between atoms: N4_38  and  C24_40 
ROOT
HETATM    1  C4  UNL     1       5.321  -1.187  20.185  1.00  0.00     0.110 C 
HETATM    2  C14 UNL     1       5.911  -0.660  21.475  1.00  0.00     0.071 C 
HETATM    3  C18 UNL     1       6.008  -1.394  22.548  1.00  0.00     0.131 C 
HETATM    4  N3  UNL     1       5.733  -2.804  22.481  1.00  0.00    -0.355 N 
ATOM      5  H3  UNL     1       5.796  -3.359  23.335  1.00  0.00     0.166 HD
HETATM    6  C20 UNL     1       5.415  -3.382  21.404  1.00  0.00     0.018 C 
HETATM    7  C21 UNL     1       5.125  -4.831  21.392  1.00  0.00     0.069 C 
HETATM    8  C22 UNL     1       5.482  -2.679  20.085  1.00  0.00     0.037 C 
HETATM    9  C23 UNL     1       4.952  -3.375  18.947  1.00  0.00     0.145 C 
ENDROOT
BRANCH   1  10
HETATM   10  C3  UNL     1       3.991  -0.619  19.934  1.00  0.00     0.029 C 
BRANCH  10  11
HETATM   11  C2  UNL     1       2.876  -0.619  20.849  1.00  0.00    -0.003 C 
HETATM   12  C1  UNL     1       2.105   0.615  21.142  1.00  0.00     0.005 C 
ENDBRANCH  10  11
ENDBRANCH   1  10
BRANCH   1  13
HETATM   13  C5  UNL     1       6.147  -0.720  19.027  1.00  0.00     0.254 C 
HETATM   14  O1  UNL     1       7.304  -1.237  18.806  1.00  0.00    -0.270 OA
HETATM   15  N1  UNL     1       5.786   0.283  18.106  1.00  0.00    -0.273 N 
ATOM     16  H1  UNL     1       4.874   0.730  18.198  1.00  0.00     0.189 HD
BRANCH  15  17
HETATM   17  N2  UNL     1       6.620   0.680  17.088  1.00  0.00    -0.329 N 
ATOM     18  H2  UNL     1       7.633   0.683  17.201  1.00  0.00     0.180 HD
BRANCH  17  19
HETATM   19  C6  UNL     1       6.002   1.092  15.853  1.00  0.00     0.103 C 
HETATM   20  C7  UNL     1       4.705   1.635  16.045  1.00  0.00     0.027 C 
HETATM   21  C8  UNL     1       3.356   1.719  16.419  1.00  0.00     0.006 C 
HETATM   22  C9  UNL     1       2.944   3.160  15.946  1.00  0.00     0.027 C 
HETATM   23  C10 UNL     1       4.017   4.163  15.999  1.00  0.00    -0.027 C 
HETATM   24  C11 UNL     1       5.134   4.331  15.112  1.00  0.00    -0.008 C 
HETATM   25  C12 UNL     1       5.993   3.300  14.528  1.00  0.00    -0.025 C 
HETATM   26  C13 UNL     1       6.791   2.310  15.251  1.00  0.00     0.053 C 
ENDBRANCH  17  19
ENDBRANCH  15  17
ENDBRANCH   1  13
BRANCH   2  27
HETATM   27  C15 UNL     1       6.399   0.703  21.483  1.00  0.00     0.293 C 
HETATM   28  O2  UNL     1       5.562   1.670  21.712  1.00  0.00    -0.259 OA
BRANCH  27  29
HETATM   29  O3  UNL     1       7.664   1.178  21.279  1.00  0.00    -0.318 OA
BRANCH  29  30
HETATM   30  C16 UNL     1       8.104   2.025  20.259  1.00  0.00     0.174 C 
HETATM   31  C17 UNL     1       9.344   1.504  19.573  1.00  0.00     0.034 C 
ENDBRANCH  29  30
ENDBRANCH  27  29
ENDBRANCH   2  27
BRANCH   3  32
HETATM   32  C19 UNL     1       6.552  -0.966  23.870  1.00  0.00     0.433 C 
HETATM   33  F1  UNL     1       6.201  -1.940  24.850  1.00  0.00    -0.165 F 
HETATM   34  F2  UNL     1       5.910   0.148  24.394  1.00  0.00    -0.165 F 
HETATM   35  F3  UNL     1       7.914  -0.927  23.937  1.00  0.00    -0.165 F 
ENDBRANCH   3  32
BRANCH   9  36
HETATM   36  O4  UNL     1       5.774  -3.829  18.031  1.00  0.00    -0.346 OA
ATOM     37  H4  UNL     1       5.753  -4.751  17.801  1.00  0.00     0.219 HD
ENDBRANCH   9  36
BRANCH   9  38
HETATM   38  N4  UNL     1       3.604  -3.649  18.668  1.00  0.00    -0.371 N 
ATOM     39  H4  UNL     1       2.998  -3.945  19.432  1.00  0.00     0.161 HD
BRANCH  38  40
HETATM   40  C24 UNL     1       3.028  -3.527  17.319  1.00  0.00     0.117 C 
HETATM   41  C25 UNL     1       3.153  -2.115  16.853  1.00  0.00     0.026 C 
ENDBRANCH  38  40
ENDBRANCH   9  38
TORSDOF 12
ENDMDL
MODEL 2
REMARK VINA RESULT: -8.630853861      3.392      6.147
REMARK  12 active torsions:
REMARK  status: ('A' for Active; 'I' for Inactive)
REMARK    1  A    between atoms: C2_2  and  C3_3 
REMARK    2  A    between atoms: C3_3  and  C4_4 
REMARK    3  A    between atoms: C4_4  and  C5_5 
REMARK       I    between atoms: C5_5  and  N1_7 
REMARK    4  A    between atoms: N1_7  and  N2_9 
REMARK    5  A    between atoms: N2_9  and  C6_11 
REMARK    6  A    between atoms: C14_19  and  C15_20 
REMARK    7  A    between atoms: C15_20  and  O3_22 
REMARK    8  A    between atoms: O3_22  and  C16_23 
REMARK    9  A    between atoms: C18_25  and  C19_26 
REMARK   10  A    between atoms: C23_35  and  O4_36 
REMARK   11  A    between atoms: C23_35  and  N4_38 
REMARK   12  A    between atoms: N4_38  and  C24_40 
ROOT
HETATM    1  C4  UNL     1       5.393  -0.254  18.456  1.00  0.00     0.110 C 
HETATM    2  C14 UNL     1       4.893   0.703  17.396  1.00  0.00     0.071 C 
HETATM    3  C18 UNL     1       3.695   1.218  17.429  1.00  0.00     0.131 C 
HETATM    4  N3  UNL     1       2.871   1.042  18.594  1.00  0.00    -0.355 N 
ATOM      5  H3  UNL     1       1.930   1.436  18.594  1.00  0.00     0.166 HD
HETATM    6  C20 UNL     1       3.267   0.417  19.617  1.00  0.00     0.018 C 
HETATM    7  C21 UNL     1       2.374   0.247  20.781  1.00  0.00     0.069 C 
HETATM    8  C22 UNL     1       4.688  -0.027  19.765  1.00  0.00     0.037 C 
HETATM    9  C23 UNL     1       4.997  -0.864  20.890  1.00  0.00     0.145 C 
ENDROOT
BRANCH   1  10
HETATM   10  C3  UNL     1       5.468  -1.627  17.942  1.00  0.00     0.029 C 
BRANCH  10  11
HETATM   11  C2  UNL     1       4.449  -2.315  17.188  1.00  0.00    -0.003 C 
HETATM   12  C1  UNL     1       3.659  -3.426  17.774  1.00  0.00     0.005 C 
ENDBRANCH  10  11
ENDBRANCH   1  10
BRANCH   1  13
HETATM   13  C5  UNL     1       6.805   0.086  18.814  1.00  0.00     0.254 C 
HETATM   14  O1  UNL     1       7.773  -0.664  18.420  1.00  0.00    -0.270 OA
HETATM   15  N1  UNL     1       7.219   1.192  19.581  1.00  0.00    -0.273 N 
ATOM     16  H1  UNL     1       6.516   1.851  19.916  1.00  0.00     0.189 HD
BRANCH  15  17
HETATM   17  N2  UNL     1       8.539   1.416  19.897  1.00  0.00    -0.329 N 
ATOM     18  H2  UNL     1       9.109   0.695  20.339  1.00  0.00     0.180 HD
BRANCH  17  19
HETATM   19  C6  UNL     1       9.083   2.711  19.576  1.00  0.00     0.103 C 
HETATM   20  C7  UNL     1      10.239   3.022  20.338  1.00  0.00     0.027 C 
HETATM   21  C8  UNL     1      11.053   3.269  21.453  1.00  0.00     0.006 C 
HETATM   22  C9  UNL     1      12.439   3.633  20.809  1.00  0.00     0.027 C 
HETATM   23  C10 UNL     1      12.734   2.952  19.540  1.00  0.00    -0.027 C 
HETATM   24  C11 UNL     1      12.202   3.218  18.233  1.00  0.00    -0.008 C 
HETATM   25  C12 UNL     1      10.821   3.525  17.860  1.00  0.00    -0.025 C 
HETATM   26  C13 UNL     1       9.640   2.697  18.107  1.00  0.00     0.053 C 
ENDBRANCH  17  19
ENDBRANCH  15  17
ENDBRANCH   1  13
BRANCH   2  27
HETATM   27  C15 UNL     1       5.806   1.063  16.330  1.00  0.00     0.293 C 
HETATM   28  O2  UNL     1       5.957   0.249  15.329  1.00  0.00    -0.259 OA
BRANCH  27  29
HETATM   29  O3  UNL     1       6.584   2.177  16.187  1.00  0.00    -0.318 OA
BRANCH  29  30
HETATM   30  C16 UNL     1       7.067   2.734  15.001  1.00  0.00     0.174 C 
HETATM   31  C17 UNL     1       6.100   3.724  14.395  1.00  0.00     0.034 C 
ENDBRANCH  29  30
ENDBRANCH  27  29
ENDBRANCH   2  27
BRANCH   3  32
HETATM   32  C19 UNL     1       3.102   2.152  16.427  1.00  0.00     0.433 C 
HETATM   33  F1  UNL     1       1.771   1.730  16.137  1.00  0.00    -0.165 F 
HETATM   34  F2  UNL     1       3.673   2.039  15.167  1.00  0.00    -0.165 F 
HETATM   35  F3  UNL     1       2.939   3.431  16.870  1.00  0.00    -0.165 F 
ENDBRANCH   3  32
BRANCH   9  36
HETATM   36  O4  UNL     1       5.710  -0.377  21.877  1.00  0.00    -0.346 OA
ATOM     37  H4  UNL     1       6.619  -0.639  21.969  1.00  0.00     0.219 HD
ENDBRANCH   9  36
BRANCH   9  38
HETATM   38  N4  UNL     1       4.619  -2.201  21.086  1.00  0.00    -0.371 N 
ATOM     39  H4  UNL     1       3.695  -2.498  20.774  1.00  0.00     0.161 HD
BRANCH  38  40
HETATM   40  C24 UNL     1       5.499  -3.194  21.722  1.00  0.00     0.117 C 
HETATM   41  C25 UNL     1       5.480  -4.456  20.924  1.00  0.00     0.026 C 
ENDBRANCH  38  40
ENDBRANCH   9  38
TORSDOF 12
ENDMDL
MODEL 3
REMARK VINA RESULT: -8.568494977      1.019      1.583
REMARK  12 active torsions:
REMARK  status: ('A' for Active; 'I' for Inactive)
REMARK    1  A    between atoms: C2_2  and  C3_3 
REMARK    2  A    between atoms: C3_3  and  C4_4 
REMARK    3  A    between atoms: C4_4  and  C5_5 
REMARK       I    between atoms: C5_5  and  N1_7 
REMARK    4  A    between atoms: N1_7  and  N2_9 
REMARK    5  A    between atoms: N2_9  and  C6_11 
REMARK    6  A    between atoms: C14_19  and  C15_20 
REMARK    7  A    between atoms: C15_20  and  O3_22 
REMARK    8  A    between atoms: O3_22  and  C16_23 
REMARK    9  A    between atoms: C18_25  and  C19_26 
REMARK   10  A    between atoms: C23_35  and  O4_36 
REMARK   11  A    between atoms: C23_35  and  N4_38 
REMARK   12  A    between atoms: N4_38  and  C24_40 
ROOT
HETATM    1  C4  UNL     1       5.233  -0.731  20.429  1.00  0.00     0.110 C 
HETATM    2  C14 UNL     1       5.856  -0.368  21.759  1.00  0.00     0.071 C 
HETATM    3  C18 UNL     1       5.998  -1.236  22.722  1.00  0.00     0.131 C 
HETATM    4  N3  UNL     1       5.742  -2.629  22.477  1.00  0.00    -0.355 N 
ATOM      5  H3  UNL     1       5.841  -3.290  23.248  1.00  0.00     0.166 HD
HETATM    6  C20 UNL     1       5.398  -3.066  21.343  1.00  0.00     0.018 C 
HETATM    7  C21 UNL     1       5.129  -4.505  21.147  1.00  0.00     0.069 C 
HETATM    8  C22 UNL     1       5.412  -2.194  20.127  1.00  0.00     0.037 C 
HETATM    9  C23 UNL     1       4.856  -2.743  18.924  1.00  0.00     0.145 C 
ENDROOT
BRANCH   1  10
HETATM   10  C3  UNL     1       3.886  -0.161  20.296  1.00  0.00     0.029 C 
BRANCH  10  11
HETATM   11  C2  UNL     1       2.753  -0.439  21.142  1.00  0.00    -0.003 C 
HETATM   12  C1  UNL     1       1.645   0.534  21.311  1.00  0.00     0.005 C 
ENDBRANCH  10  11
ENDBRANCH   1  10
BRANCH   1  13
HETATM   13  C5  UNL     1       6.014  -0.100  19.319  1.00  0.00     0.254 C 
HETATM   14  O1  UNL     1       7.194  -0.524  19.034  1.00  0.00    -0.270 OA
HETATM   15  N1  UNL     1       5.584   0.971  18.512  1.00  0.00    -0.273 N 
ATOM     16  H1  UNL     1       4.650   1.354  18.659  1.00  0.00     0.189 HD
BRANCH  15  17
HETATM   17  N2  UNL     1       6.378   1.520  17.533  1.00  0.00    -0.329 N 
ATOM     18  H2  UNL     1       7.306   1.887  17.746  1.00  0.00     0.180 HD
BRANCH  17  19
HETATM   19  C6  UNL     1       5.847   1.553  16.194  1.00  0.00     0.103 C 
HETATM   20  C7  UNL     1       4.560   2.149  16.132  1.00  0.00     0.027 C 
HETATM   21  C8  UNL     1       3.196   2.362  16.376  1.00  0.00     0.006 C 
HETATM   22  C9  UNL     1       2.861   3.602  15.470  1.00  0.00     0.027 C 
HETATM   23  C10 UNL     1       3.963   4.558  15.291  1.00  0.00    -0.027 C 
HETATM   24  C11 UNL     1       5.134   4.435  14.469  1.00  0.00    -0.008 C 
HETATM   25  C12 UNL     1       5.989   3.263  14.275  1.00  0.00    -0.025 C 
HETATM   26  C13 UNL     1       6.711   2.523  15.310  1.00  0.00     0.053 C 
ENDBRANCH  17  19
ENDBRANCH  15  17
ENDBRANCH   1  13
BRANCH   2  27
HETATM   27  C15 UNL     1       6.324   0.991  21.934  1.00  0.00     0.293 C 
HETATM   28  O2  UNL     1       7.554   1.277  21.628  1.00  0.00    -0.259 OA
BRANCH  27  29
HETATM   29  O3  UNL     1       5.656   2.091  22.394  1.00  0.00    -0.318 OA
BRANCH  29  30
HETATM   30  C16 UNL     1       4.518   2.121  23.203  1.00  0.00     0.174 C 
HETATM   31  C17 UNL     1       4.607   3.176  24.281  1.00  0.00     0.034 C 
ENDBRANCH  29  30
ENDBRANCH  27  29
ENDBRANCH   2  27
BRANCH   3  32
HETATM   32  C19 UNL     1       6.579  -0.976  24.072  1.00  0.00     0.433 C 
HETATM   33  F1  UNL     1       6.268  -2.074  24.926  1.00  0.00    -0.165 F 
HETATM   34  F2  UNL     1       5.943   0.051  24.755  1.00  0.00    -0.165 F 
HETATM   35  F3  UNL     1       7.942  -0.927  24.104  1.00  0.00    -0.165 F 
ENDBRANCH   3  32
BRANCH   9  36
HETATM   36  O4  UNL     1       5.654  -3.056  17.931  1.00  0.00    -0.346 OA
ATOM     37  H4  UNL     1       6.568  -2.799  17.969  1.00  0.00     0.219 HD
ENDBRANCH   9  36
BRANCH   9  38
HETATM   38  N4  UNL     1       3.503  -3.003  18.651  1.00  0.00    -0.371 N 
ATOM     39  H4  UNL     1       2.934  -3.434  19.378  1.00  0.00     0.161 HD
BRANCH  38  40
HETATM   40  C24 UNL     1       2.873  -2.680  17.362  1.00  0.00     0.117 C 
HETATM   41  C25 UNL     1       2.797  -1.198  17.205  1.00  0.00     0.026 C 
ENDBRANCH  38  40
ENDBRANCH   9  38
TORSDOF 12
ENDMDL
MODEL 4
REMARK VINA RESULT: -8.331779061      2.549      4.994
REMARK  12 active torsions:
REMARK  status: ('A' for Active; 'I' for Inactive)
REMARK    1  A    between atoms: C2_2  and  C3_3 
REMARK    2  A    between atoms: C3_3  and  C4_4 
REMARK    3  A    between atoms: C4_4  and  C5_5 
REMARK       I    between atoms: C5_5  and  N1_7 
REMARK    4  A    between atoms: N1_7  and  N2_9 
REMARK    5  A    between atoms: N2_9  and  C6_11 
REMARK    6  A    between atoms: C14_19  and  C15_20 
REMARK    7  A    between atoms: C15_20  and  O3_22 
REMARK    8  A    between atoms: O3_22  and  C16_23 
REMARK    9  A    between atoms: C18_25  and  C19_26 
REMARK   10  A    between atoms: C23_35  and  O4_36 
REMARK   11  A    between atoms: C23_35  and  N4_38 
REMARK   12  A    between atoms: N4_38  and  C24_40 
ROOT
HETATM    1  C4  UNL     1       4.196  -0.293  21.067  1.00  0.00     0.110 C 
HETATM    2  C14 UNL     1       4.375  -1.790  20.939  1.00  0.00     0.071 C 
HETATM    3  C18 UNL     1       4.382  -2.583  21.974  1.00  0.00     0.131 C 
HETATM    4  N3  UNL     1       4.020  -2.075  23.270  1.00  0.00    -0.355 N 
ATOM      5  H3  UNL     1       4.049  -2.706  24.071  1.00  0.00     0.166 HD
HETATM    6  C20 UNL     1       3.667  -0.877  23.454  1.00  0.00     0.018 C 
HETATM    7  C21 UNL     1       3.322  -0.399  24.809  1.00  0.00     0.069 C 
HETATM    8  C22 UNL     1       3.422   0.055  22.309  1.00  0.00     0.037 C 
HETATM    9  C23 UNL     1       3.179   1.433  22.630  1.00  0.00     0.145 C 
ENDROOT
BRANCH   1  10
HETATM   10  C3  UNL     1       5.455   0.419  20.818  1.00  0.00     0.029 C 
BRANCH  10  11
HETATM   11  C2  UNL     1       6.643   0.367  21.634  1.00  0.00    -0.003 C 
HETATM   12  C1  UNL     1       7.857   1.152  21.299  1.00  0.00     0.005 C 
ENDBRANCH  10  11
ENDBRANCH   1  10
BRANCH   1  13
HETATM   13  C5  UNL     1       3.274   0.197  19.994  1.00  0.00     0.254 C 
HETATM   14  O1  UNL     1       2.018  -0.071  20.047  1.00  0.00    -0.270 OA
HETATM   15  N1  UNL     1       3.649   0.953  18.866  1.00  0.00    -0.273 N 
ATOM     16  H1  UNL     1       4.625   1.227  18.759  1.00  0.00     0.189 HD
BRANCH  15  17
HETATM   17  N2  UNL     1       2.743   1.335  17.904  1.00  0.00    -0.329 N 
ATOM     18  H2  UNL     1       1.808   1.657  18.153  1.00  0.00     0.180 HD
BRANCH  17  19
HETATM   19  C6  UNL     1       3.171   1.261  16.530  1.00  0.00     0.103 C 
HETATM   20  C7  UNL     1       3.155   2.525  15.884  1.00  0.00     0.027 C 
HETATM   21  C8  UNL     1       2.663   3.734  15.371  1.00  0.00     0.006 C 
HETATM   22  C9  UNL     1       3.927   4.371  14.688  1.00  0.00     0.027 C 
HETATM   23  C10 UNL     1       5.209   4.055  15.333  1.00  0.00    -0.027 C 
HETATM   24  C11 UNL     1       5.960   2.831  15.287  1.00  0.00    -0.008 C 
HETATM   25  C12 UNL     1       5.464   1.458  15.377  1.00  0.00    -0.025 C 
HETATM   26  C13 UNL     1       4.692   0.873  16.474  1.00  0.00     0.053 C 
ENDBRANCH  17  19
ENDBRANCH  15  17
ENDBRANCH   1  13
BRANCH   2  27
HETATM   27  C15 UNL     1       4.518  -2.338  19.606  1.00  0.00     0.293 C 
HETATM   28  O2  UNL     1       5.693  -2.349  19.053  1.00  0.00    -0.259 OA
BRANCH  27  29
HETATM   29  O3  UNL     1       3.573  -2.877  18.779  1.00  0.00    -0.318 OA
BRANCH  29  30
HETATM   30  C16 UNL     1       3.251  -2.481  17.478  1.00  0.00     0.174 C 
HETATM   31  C17 UNL     1       3.145  -3.652  16.530  1.00  0.00     0.034 C 
ENDBRANCH  29  30
ENDBRANCH  27  29
ENDBRANCH   2  27
BRANCH   3  32
HETATM   32  C19 UNL     1       4.570  -4.063  21.956  1.00  0.00     0.433 C 
HETATM   33  F1  UNL     1       4.787  -4.515  23.291  1.00  0.00    -0.165 F 
HETATM   34  F2  UNL     1       5.765  -4.458  21.369  1.00  0.00    -0.165 F 
HETATM   35  F3  UNL     1       3.474  -4.770  21.558  1.00  0.00    -0.165 F 
ENDBRANCH   3  32
BRANCH   9  36
HETATM   36  O4  UNL     1       1.975   1.929  22.466  1.00  0.00    -0.346 OA
ATOM     37  H4  UNL     1       1.877   2.818  22.146  1.00  0.00     0.219 HD
ENDBRANCH   9  36
BRANCH   9  38
HETATM   38  N4  UNL     1       4.103   2.370  23.120  1.00  0.00    -0.371 N 
ATOM     39  H4  UNL     1       5.079   2.286  22.837  1.00  0.00     0.161 HD
BRANCH  38  40
HETATM   40  C24 UNL     1       3.723   3.466  24.024  1.00  0.00     0.117 C 
HETATM   41  C25 UNL     1       4.939   3.973  24.725  1.00  0.00     0.026 C 
ENDBRANCH  38  40
ENDBRANCH   9  38
TORSDOF 12
ENDMDL
MODEL 5
REMARK VINA RESULT: -8.319228862      3.373      6.507
REMARK  12 active torsions:
REMARK  status: ('A' for Active; 'I' for Inactive)
REMARK    1  A    between atoms: C2_2  and  C3_3 
REMARK    2  A    between atoms: C3_3  and  C4_4 
REMARK    3  A    between atoms: C4_4  and  C5_5 
REMARK       I    between atoms: C5_5  and  N1_7 
REMARK    4  A    between atoms: N1_7  and  N2_9 
REMARK    5  A    between atoms: N2_9  and  C6_11 
REMARK    6  A    between atoms: C14_19  and  C15_20 
REMARK    7  A    between atoms: C15_20  and  O3_22 
REMARK    8  A    between atoms: O3_22  and  C16_23 
REMARK    9  A    between atoms: C18_25  and  C19_26 
REMARK   10  A    between atoms: C23_35  and  O4_36 
REMARK   11  A    between atoms: C23_35  and  N4_38 
REMARK   12  A    between atoms: N4_38  and  C24_40 
ROOT
HETATM    1  C4  UNL     1       6.164   0.030  18.864  1.00  0.00     0.110 C 
HETATM    2  C14 UNL     1       5.292   0.563  17.748  1.00  0.00     0.071 C 
HETATM    3  C18 UNL     1       4.008   0.745  17.893  1.00  0.00     0.131 C 
HETATM    4  N3  UNL     1       3.408   0.626  19.194  1.00  0.00    -0.355 N 
ATOM      5  H3  UNL     1       2.400   0.753  19.284  1.00  0.00     0.166 HD
HETATM    6  C20 UNL     1       4.083   0.370  20.231  1.00  0.00     0.018 C 
HETATM    7  C21 UNL     1       3.416   0.240  21.543  1.00  0.00     0.069 C 
HETATM    8  C22 UNL     1       5.579   0.354  20.211  1.00  0.00     0.037 C 
HETATM    9  C23 UNL     1       6.243  -0.101  21.400  1.00  0.00     0.145 C 
ENDROOT
BRANCH   1  10
HETATM   10  C3  UNL     1       6.574  -1.356  18.606  1.00  0.00     0.029 C 
BRANCH  10  11
HETATM   11  C2  UNL     1       5.710  -2.445  18.222  1.00  0.00    -0.003 C 
HETATM   12  C1  UNL     1       4.944  -3.225  19.225  1.00  0.00     0.005 C 
ENDBRANCH  10  11
ENDBRANCH   1  10
BRANCH   1  13
HETATM   13  C5  UNL     1       7.450   0.796  18.905  1.00  0.00     0.254 C 
HETATM   14  O1  UNL     1       8.544   0.246  18.511  1.00  0.00    -0.270 OA
HETATM   15  N1  UNL     1       7.608   2.120  19.358  1.00  0.00    -0.273 N 
ATOM     16  H1  UNL     1       6.785   2.636  19.668  1.00  0.00     0.189 HD
BRANCH  15  17
HETATM   17  N2  UNL     1       8.834   2.742  19.397  1.00  0.00    -0.329 N 
ATOM     18  H2  UNL     1       8.946   3.714  19.107  1.00  0.00     0.180 HD
BRANCH  17  19
HETATM   19  C6  UNL     1       9.954   1.964  19.863  1.00  0.00     0.103 C 
HETATM   20  C7  UNL     1      11.194   2.631  19.685  1.00  0.00     0.027 C 
HETATM   21  C8  UNL     1      12.265   3.266  19.042  1.00  0.00     0.006 C 
HETATM   22  C9  UNL     1      13.262   3.565  20.220  1.00  0.00     0.027 C 
HETATM   23  C10 UNL     1      12.628   3.834  21.519  1.00  0.00    -0.027 C 
HETATM   24  C11 UNL     1      12.025   2.906  22.434  1.00  0.00    -0.008 C 
HETATM   25  C12 UNL     1      11.152   1.771  22.132  1.00  0.00    -0.025 C 
HETATM   26  C13 UNL     1       9.873   1.811  21.424  1.00  0.00     0.053 C 
ENDBRANCH  17  19
ENDBRANCH  15  17
ENDBRANCH   1  13
BRANCH   2  27
HETATM   27  C15 UNL     1       5.934   0.899  16.495  1.00  0.00     0.293 C 
HETATM   28  O2  UNL     1       5.949   0.018  15.540  1.00  0.00    -0.259 OA
BRANCH  27  29
HETATM   29  O3  UNL     1       6.566   2.051  16.119  1.00  0.00    -0.318 OA
BRANCH  29  30
HETATM   30  C16 UNL     1       6.732   2.551  14.825  1.00  0.00     0.174 C 
HETATM   31  C17 UNL     1       5.900   3.787  14.575  1.00  0.00     0.034 C 
ENDBRANCH  29  30
ENDBRANCH  27  29
ENDBRANCH   2  27
BRANCH   3  32
HETATM   32  C19 UNL     1       3.060   1.244  16.854  1.00  0.00     0.433 C 
HETATM   33  F1  UNL     1       2.396   2.402  17.356  1.00  0.00    -0.165 F 
HETATM   34  F2  UNL     1       1.972   0.406  16.656  1.00  0.00    -0.165 F 
HETATM   35  F3  UNL     1       3.655   1.692  15.711  1.00  0.00    -0.165 F 
ENDBRANCH   3  32
BRANCH   9  36
HETATM   36  O4  UNL     1       6.893   0.762  22.143  1.00  0.00    -0.346 OA
ATOM     37  H4  UNL     1       6.412   1.455  22.582  1.00  0.00     0.219 HD
ENDBRANCH   9  36
BRANCH   9  38
HETATM   38  N4  UNL     1       6.292  -1.412  21.899  1.00  0.00    -0.371 N 
ATOM     39  H4  UNL     1       6.671  -2.147  21.303  1.00  0.00     0.161 HD
BRANCH  38  40
HETATM   40  C24 UNL     1       5.821  -1.771  23.246  1.00  0.00     0.117 C 
HETATM   41  C25 UNL     1       4.887  -2.932  23.150  1.00  0.00     0.026 C 
ENDBRANCH  38  40
ENDBRANCH   9  38
TORSDOF 12
ENDMDL
