MODEL 1
REMARK VINA RESULT: -9.370452067      0.000      0.000
REMARK  9 active torsions:
REMARK  status: ('A' for Active; 'I' for Inactive)
REMARK    1  A    between atoms: C2_2  and  N1_4 
REMARK    2  A    between atoms: N1_4  and  C4_6 
REMARK    3  A    between atoms: C9_12  and  S1_13 
REMARK    4  A    between atoms: S1_13  and  N2_16 
REMARK    5  A    between atoms: N2_16  and  C10_18 
REMARK    6  A    between atoms: C10_18  and  C11_20 
REMARK    7  A    between atoms: C11_20  and  C12_21 
REMARK    8  A    between atoms: C12_21  and  C13_22 
REMARK       I    between atoms: C13_22  and  N3_24 
REMARK    9  A    between atoms: N3_24  and  C14_26 
ROOT
HETATM    1  N2  UNL     1       7.210   2.119  18.635  1.00  0.00    -0.297 N 
ATOM      2  H2  UNL     1       6.905   3.018  19.005  1.00  0.00     0.174 HD
ENDROOT
BRANCH   1   3
HETATM    3  S1  UNL     1       6.914   1.779  17.046  1.00  0.00     0.262 S 
HETATM    4  O1  UNL     1       8.053   2.146  16.112  1.00  0.00    -0.200 OA
HETATM    5  O2  UNL     1       6.799   0.253  16.919  1.00  0.00    -0.200 OA
BRANCH   3   6
HETATM    6  C9  UNL     1       5.472   2.412  16.327  1.00  0.00     0.105 A 
HETATM    7  C4  UNL     1       4.223   1.874  16.675  1.00  0.00     0.053 A 
HETATM    8  C5  UNL     1       3.051   2.362  16.105  1.00  0.00     0.054 A 
HETATM    9  C6  UNL     1       3.085   3.386  15.184  1.00  0.00     0.036 A 
HETATM   10 CL1  UNL     1       1.596   3.993  14.471  1.00  0.00    -0.084 Cl
HETATM   11  C7  UNL     1       4.310   3.912  14.846  1.00  0.00     0.025 A 
HETATM   12  C8  UNL     1       5.480   3.425  15.415  1.00  0.00     0.029 A 
BRANCH   7  13
HETATM   13  N1  UNL     1       4.064   0.845  17.634  1.00  0.00    -0.385 N 
ATOM     14  H1  UNL     1       4.596   0.913  18.502  1.00  0.00     0.160 HD
BRANCH  13  15
HETATM   15  C2  UNL     1       3.197  -0.295  17.462  1.00  0.00     0.073 C 
HETATM   16  C1  UNL     1       3.874  -1.515  16.914  1.00  0.00     0.031 C 
HETATM   17  C3  UNL     1       2.520  -0.690  18.758  1.00  0.00     0.031 C 
ENDBRANCH  13  15
ENDBRANCH   7  13
ENDBRANCH   3   6
ENDBRANCH   1   3
BRANCH   1  18
HETATM   18  C10 UNL     1       7.871   1.216  19.507  1.00  0.00     0.190 C 
HETATM   19 CL2  UNL     1       9.256   0.411  18.826  1.00  0.00    -0.102 Cl
BRANCH  18  20
HETATM   20  C11 UNL     1       8.189   1.827  20.848  1.00  0.00     0.051 C 
BRANCH  20  21
HETATM   21  C12 UNL     1       9.616   1.639  21.208  1.00  0.00     0.106 C 
BRANCH  21  22
HETATM   22  C13 UNL     1      10.528   2.765  20.963  1.00  0.00     0.223 C 
HETATM   23  O3  UNL     1      11.189   3.228  21.927  1.00  0.00    -0.273 OA
HETATM   24  N3  UNL     1      10.730   3.377  19.696  1.00  0.00    -0.307 N 
ATOM     25  H3  UNL     1       9.978   3.400  19.007  1.00  0.00     0.171 HD
BRANCH  24  26
HETATM   26  C14 UNL     1      11.904   3.915  19.424  1.00  0.00     0.153 A 
HETATM   27  N4  UNL     1      13.092   3.547  19.898  1.00  0.00    -0.325 N 
HETATM   28  C15 UNL     1      14.143   4.206  19.511  1.00  0.00     0.134 A 
ATOM     29  H4  UNL     1      13.175   2.767  20.550  1.00  0.00     0.169 HD
HETATM   30 CL3  UNL     1      15.796   3.808  20.075  1.00  0.00    -0.062 Cl
HETATM   31  C16 UNL     1      13.968   5.244  18.636  1.00  0.00     0.116 A 
HETATM   32 CL4  UNL     1      15.190   6.322  17.931  1.00  0.00    -0.073 Cl
HETATM   33  S2  UNL     1      12.277   5.230  18.403  1.00  0.00    -0.038 SA
ENDBRANCH  24  26
ENDBRANCH  21  22
ENDBRANCH  20  21
ENDBRANCH  18  20
ENDBRANCH   1  18
TORSDOF 9
ENDMDL
MODEL 2
REMARK VINA RESULT: -9.164330145      2.425      3.766
REMARK  9 active torsions:
REMARK  status: ('A' for Active; 'I' for Inactive)
REMARK    1  A    between atoms: C2_2  and  N1_4 
REMARK    2  A    between atoms: N1_4  and  C4_6 
REMARK    3  A    between atoms: C9_12  and  S1_13 
REMARK    4  A    between atoms: S1_13  and  N2_16 
REMARK    5  A    between atoms: N2_16  and  C10_18 
REMARK    6  A    between atoms: C10_18  and  C11_20 
REMARK    7  A    between atoms: C11_20  and  C12_21 
REMARK    8  A    between atoms: C12_21  and  C13_22 
REMARK       I    between atoms: C13_22  and  N3_24 
REMARK    9  A    between atoms: N3_24  and  C14_26 
ROOT
HETATM    1  N2  UNL     1       6.789   1.213  19.478  1.00  0.00    -0.297 N 
ATOM      2  H2  UNL     1       6.684   2.196  19.728  1.00  0.00     0.174 HD
ENDROOT
BRANCH   1   3
HETATM    3  S1  UNL     1       5.835   0.100  20.237  1.00  0.00     0.262 S 
HETATM    4  O1  UNL     1       6.508  -0.598  21.405  1.00  0.00    -0.200 OA
HETATM    5  O2  UNL     1       4.664   0.860  20.876  1.00  0.00    -0.200 OA
BRANCH   3   6
HETATM    6  C9  UNL     1       5.109  -1.146  19.280  1.00  0.00     0.105 A 
HETATM    7  C4  UNL     1       4.045  -0.835  18.418  1.00  0.00     0.053 A 
HETATM    8  C5  UNL     1       3.441  -1.822  17.644  1.00  0.00     0.054 A 
HETATM    9  C6  UNL     1       3.870  -3.129  17.702  1.00  0.00     0.036 A 
HETATM   10 CL1  UNL     1       3.097  -4.366  16.719  1.00  0.00    -0.084 Cl
HETATM   11  C7  UNL     1       4.913  -3.431  18.547  1.00  0.00     0.025 A 
HETATM   12  C8  UNL     1       5.516  -2.446  19.319  1.00  0.00     0.029 A 
BRANCH   7  13
HETATM   13  N1  UNL     1       3.544   0.478  18.250  1.00  0.00    -0.385 N 
ATOM     14  H1  UNL     1       2.855   0.816  18.921  1.00  0.00     0.160 HD
BRANCH  13  15
HETATM   15  C2  UNL     1       3.947   1.368  17.189  1.00  0.00     0.073 C 
HETATM   16  C1  UNL     1       4.708   0.709  16.079  1.00  0.00     0.031 C 
HETATM   17  C3  UNL     1       2.762   2.082  16.571  1.00  0.00     0.031 C 
ENDBRANCH  13  15
ENDBRANCH   7  13
ENDBRANCH   3   6
ENDBRANCH   1   3
BRANCH   1  18
HETATM   18  C10 UNL     1       7.749   0.864  18.493  1.00  0.00     0.190 C 
HETATM   19 CL2  UNL     1       7.761   1.881  17.080  1.00  0.00    -0.102 Cl
BRANCH  18  20
HETATM   20  C11 UNL     1       9.134   0.690  19.063  1.00  0.00     0.051 C 
BRANCH  20  21
HETATM   21  C12 UNL     1       9.330   1.514  20.281  1.00  0.00     0.106 C 
BRANCH  21  22
HETATM   22  C13 UNL     1      10.247   2.658  20.181  1.00  0.00     0.223 C 
HETATM   23  O3  UNL     1      10.711   3.155  21.239  1.00  0.00    -0.273 OA
HETATM   24  N3  UNL     1      10.665   3.253  18.959  1.00  0.00    -0.307 N 
ATOM     25  H3  UNL     1      10.051   3.245  18.144  1.00  0.00     0.171 HD
BRANCH  24  26
HETATM   26  C14 UNL     1      11.856   3.814  18.894  1.00  0.00     0.153 A 
HETATM   27  N4  UNL     1      12.960   3.449  19.543  1.00  0.00    -0.325 N 
HETATM   28  C15 UNL     1      14.048   4.133  19.347  1.00  0.00     0.134 A 
ATOM     29  H4  UNL     1      12.951   2.652  20.179  1.00  0.00     0.169 HD
HETATM   30 CL3  UNL     1      15.595   3.741  20.160  1.00  0.00    -0.062 Cl
HETATM   31  C16 UNL     1      13.996   5.193  18.483  1.00  0.00     0.116 A 
HETATM   32 CL4  UNL     1      15.295   6.307  18.013  1.00  0.00    -0.073 Cl
HETATM   33  S2  UNL     1      12.365   5.163  17.981  1.00  0.00    -0.038 SA
ENDBRANCH  24  26
ENDBRANCH  21  22
ENDBRANCH  20  21
ENDBRANCH  18  20
ENDBRANCH   1  18
TORSDOF 9
ENDMDL
MODEL 3
REMARK VINA RESULT: -9.150992755      2.676      4.056
REMARK  9 active torsions:
REMARK  status: ('A' for Active; 'I' for Inactive)
REMARK    1  A    between atoms: C2_2  and  N1_4 
REMARK    2  A    between atoms: N1_4  and  C4_6 
REMARK    3  A    between atoms: C9_12  and  S1_13 
REMARK    4  A    between atoms: S1_13  and  N2_16 
REMARK    5  A    between atoms: N2_16  and  C10_18 
REMARK    6  A    between atoms: C10_18  and  C11_20 
REMARK    7  A    between atoms: C11_20  and  C12_21 
REMARK    8  A    between atoms: C12_21  and  C13_22 
REMARK       I    between atoms: C13_22  and  N3_24 
REMARK    9  A    between atoms: N3_24  and  C14_26 
ROOT
HETATM    1  N2  UNL     1       6.825   1.109  19.529  1.00  0.00    -0.297 N 
ATOM      2  H2  UNL     1       6.806   2.079  19.843  1.00  0.00     0.174 HD
ENDROOT
BRANCH   1   3
HETATM    3  S1  UNL     1       5.847   0.016  20.287  1.00  0.00     0.262 S 
HETATM    4  O1  UNL     1       6.510  -0.710  21.444  1.00  0.00    -0.200 OA
HETATM    5  O2  UNL     1       4.703   0.802  20.941  1.00  0.00    -0.200 OA
BRANCH   3   6
HETATM    6  C9  UNL     1       5.080  -1.203  19.326  1.00  0.00     0.105 A 
HETATM    7  C4  UNL     1       4.031  -0.852  18.461  1.00  0.00     0.053 A 
HETATM    8  C5  UNL     1       3.394  -1.815  17.684  1.00  0.00     0.054 A 
HETATM    9  C6  UNL     1       3.776  -3.137  17.741  1.00  0.00     0.036 A 
HETATM   10 CL1  UNL     1       2.962  -4.344  16.754  1.00  0.00    -0.084 Cl
HETATM   11  C7  UNL     1       4.804  -3.478  18.588  1.00  0.00     0.025 A 
HETATM   12  C8  UNL     1       5.440  -2.516  19.365  1.00  0.00     0.029 A 
BRANCH   7  13
HETATM   13  N1  UNL     1       3.578   0.479  18.293  1.00  0.00    -0.385 N 
ATOM     14  H1  UNL     1       2.931   0.854  18.987  1.00  0.00     0.160 HD
BRANCH  13  15
HETATM   15  C2  UNL     1       3.973   1.337  17.204  1.00  0.00     0.073 C 
HETATM   16  C1  UNL     1       4.717   0.642  16.103  1.00  0.00     0.031 C 
HETATM   17  C3  UNL     1       2.785   2.040  16.580  1.00  0.00     0.031 C 
ENDBRANCH  13  15
ENDBRANCH   7  13
ENDBRANCH   3   6
ENDBRANCH   1   3
BRANCH   1  18
HETATM   18  C10 UNL     1       7.691   0.760  18.462  1.00  0.00     0.190 C 
HETATM   19 CL2  UNL     1       7.721   1.887  17.135  1.00  0.00    -0.102 Cl
BRANCH  18  20
HETATM   20  C11 UNL     1       9.084   0.416  18.928  1.00  0.00     0.051 C 
BRANCH  20  21
HETATM   21  C12 UNL     1       9.594   1.413  19.902  1.00  0.00     0.106 C 
BRANCH  21  22
HETATM   22  C13 UNL     1      10.197   2.638  19.360  1.00  0.00     0.223 C 
HETATM   23  O3  UNL     1       9.830   3.749  19.822  1.00  0.00    -0.273 OA
HETATM   24  N3  UNL     1      11.189   2.666  18.341  1.00  0.00    -0.307 N 
ATOM     25  H3  UNL     1      11.220   1.936  17.630  1.00  0.00     0.171 HD
BRANCH  24  26
HETATM   26  C14 UNL     1      12.068   3.649  18.329  1.00  0.00     0.153 A 
HETATM   27  N4  UNL     1      11.966   4.819  17.702  1.00  0.00    -0.325 N 
HETATM   28  C15 UNL     1      12.946   5.666  17.809  1.00  0.00     0.134 A 
ATOM     29  H4  UNL     1      11.138   5.045  17.152  1.00  0.00     0.169 HD
HETATM   30 CL3  UNL     1      12.927   7.271  17.015  1.00  0.00    -0.062 Cl
HETATM   31  C16 UNL     1      14.031   5.305  18.561  1.00  0.00     0.116 A 
HETATM   32 CL4  UNL     1      15.510   6.229  18.893  1.00  0.00    -0.073 Cl
HETATM   33  S2  UNL     1      13.592   3.743  19.091  1.00  0.00    -0.038 SA
ENDBRANCH  24  26
ENDBRANCH  21  22
ENDBRANCH  20  21
ENDBRANCH  18  20
ENDBRANCH   1  18
TORSDOF 9
ENDMDL
MODEL 4
REMARK VINA RESULT: -9.139885895      3.409      5.652
REMARK  9 active torsions:
REMARK  status: ('A' for Active; 'I' for Inactive)
REMARK    1  A    between atoms: C2_2  and  N1_4 
REMARK    2  A    between atoms: N1_4  and  C4_6 
REMARK    3  A    between atoms: C9_12  and  S1_13 
REMARK    4  A    between atoms: S1_13  and  N2_16 
REMARK    5  A    between atoms: N2_16  and  C10_18 
REMARK    6  A    between atoms: C10_18  and  C11_20 
REMARK    7  A    between atoms: C11_20  and  C12_21 
REMARK    8  A    between atoms: C12_21  and  C13_22 
REMARK       I    between atoms: C13_22  and  N3_24 
REMARK    9  A    between atoms: N3_24  and  C14_26 
ROOT
HETATM    1  N2  UNL     1       4.840   0.529  18.903  1.00  0.00    -0.297 N 
ATOM      2  H2  UNL     1       4.025   0.724  19.484  1.00  0.00     0.174 HD
ENDROOT
BRANCH   1   3
HETATM    3  S1  UNL     1       6.022  -0.455  19.506  1.00  0.00     0.262 S 
HETATM    4  O1  UNL     1       6.971  -0.999  18.453  1.00  0.00    -0.200 OA
HETATM    5  O2  UNL     1       6.915   0.406  20.410  1.00  0.00    -0.200 OA
BRANCH   3   6
HETATM    6  C9  UNL     1       5.547  -1.807  20.477  1.00  0.00     0.105 A 
HETATM    7  C4  UNL     1       5.016  -2.954  19.866  1.00  0.00     0.053 A 
HETATM    8  C5  UNL     1       4.621  -4.050  20.627  1.00  0.00     0.054 A 
HETATM    9  C6  UNL     1       4.740  -4.041  21.998  1.00  0.00     0.036 A 
HETATM   10 CL1  UNL     1       4.237  -5.433  22.948  1.00  0.00    -0.084 Cl
HETATM   11  C7  UNL     1       5.262  -2.916  22.595  1.00  0.00     0.025 A 
HETATM   12  C8  UNL     1       5.657  -1.821  21.835  1.00  0.00     0.029 A 
BRANCH   7  13
HETATM   13  N1  UNL     1       4.879  -3.090  18.463  1.00  0.00    -0.385 N 
ATOM     14  H1  UNL     1       5.725  -3.061  17.895  1.00  0.00     0.160 HD
BRANCH  13  15
HETATM   15  C2  UNL     1       3.617  -3.267  17.787  1.00  0.00     0.073 C 
HETATM   16  C1  UNL     1       3.047  -2.013  17.195  1.00  0.00     0.031 C 
HETATM   17  C3  UNL     1       3.709  -4.296  16.680  1.00  0.00     0.031 C 
ENDBRANCH  13  15
ENDBRANCH   7  13
ENDBRANCH   3   6
ENDBRANCH   1   3
BRANCH   1  18
HETATM   18  C10 UNL     1       4.907   1.114  17.612  1.00  0.00     0.190 C 
HETATM   19 CL2  UNL     1       3.377   1.598  16.939  1.00  0.00    -0.102 Cl
BRANCH  18  20
HETATM   20  C11 UNL     1       5.926   2.222  17.526  1.00  0.00     0.051 C 
BRANCH  20  21
HETATM   21  C12 UNL     1       7.032   1.875  16.600  1.00  0.00     0.106 C 
BRANCH  21  22
HETATM   22  C13 UNL     1       8.404   2.011  17.107  1.00  0.00     0.223 C 
HETATM   23  O3  UNL     1       9.235   2.672  16.433  1.00  0.00    -0.273 OA
HETATM   24  N3  UNL     1       8.873   1.450  18.326  1.00  0.00    -0.307 N 
ATOM     25  H3  UNL     1       8.467   0.586  18.688  1.00  0.00     0.171 HD
BRANCH  24  26
HETATM   26  C14 UNL     1       9.838   2.063  18.985  1.00  0.00     0.153 A 
HETATM   27  N4  UNL     1      11.023   2.444  18.513  1.00  0.00    -0.325 N 
HETATM   28  C15 UNL     1      11.849   3.038  19.323  1.00  0.00     0.134 A 
ATOM     29  H4  UNL     1      11.277   2.275  17.540  1.00  0.00     0.169 HD
HETATM   30 CL3  UNL     1      13.470   3.599  18.810  1.00  0.00    -0.062 Cl
HETATM   31  C16 UNL     1      11.451   3.236  20.618  1.00  0.00     0.116 A 
HETATM   32 CL4  UNL     1      12.341   4.005  21.947  1.00  0.00    -0.073 Cl
HETATM   33  S2  UNL     1       9.888   2.552  20.618  1.00  0.00    -0.038 SA
ENDBRANCH  24  26
ENDBRANCH  21  22
ENDBRANCH  20  21
ENDBRANCH  18  20
ENDBRANCH   1  18
TORSDOF 9
ENDMDL
MODEL 5
REMARK VINA RESULT: -8.961999716      3.349      4.299
REMARK  9 active torsions:
REMARK  status: ('A' for Active; 'I' for Inactive)
REMARK    1  A    between atoms: C2_2  and  N1_4 
REMARK    2  A    between atoms: N1_4  and  C4_6 
REMARK    3  A    between atoms: C9_12  and  S1_13 
REMARK    4  A    between atoms: S1_13  and  N2_16 
REMARK    5  A    between atoms: N2_16  and  C10_18 
REMARK    6  A    between atoms: C10_18  and  C11_20 
REMARK    7  A    between atoms: C11_20  and  C12_21 
REMARK    8  A    between atoms: C12_21  and  C13_22 
REMARK       I    between atoms: C13_22  and  N3_24 
REMARK    9  A    between atoms: N3_24  and  C14_26 
ROOT
HETATM    1  N2  UNL     1       7.505   0.805  17.691  1.00  0.00    -0.297 N 
ATOM      2  H2  UNL     1       7.887   1.218  16.840  1.00  0.00     0.174 HD
ENDROOT
BRANCH   1   3
HETATM    3  S1  UNL     1       6.010   0.108  17.626  1.00  0.00     0.262 S 
HETATM    4  O1  UNL     1       4.865   1.078  17.858  1.00  0.00    -0.200 OA
HETATM    5  O2  UNL     1       5.798  -0.388  16.188  1.00  0.00    -0.200 OA
BRANCH   3   6
HETATM    6  C9  UNL     1       5.698  -1.262  18.637  1.00  0.00     0.105 A 
HETATM    7  C4  UNL     1       5.305  -1.070  19.971  1.00  0.00     0.053 A 
HETATM    8  C5  UNL     1       5.057  -2.155  20.806  1.00  0.00     0.054 A 
HETATM    9  C6  UNL     1       5.188  -3.447  20.346  1.00  0.00     0.036 A 
HETATM   10 CL1  UNL     1       4.871  -4.810  21.412  1.00  0.00    -0.084 Cl
HETATM   11  C7  UNL     1       5.572  -3.632  19.038  1.00  0.00     0.025 A 
HETATM   12  C8  UNL     1       5.821  -2.548  18.205  1.00  0.00     0.029 A 
BRANCH   7  13
HETATM   13  N1  UNL     1       5.104   0.210  20.543  1.00  0.00    -0.385 N 
ATOM     14  H1  UNL     1       5.376   1.026  19.994  1.00  0.00     0.160 HD
BRANCH  13  15
HETATM   15  C2  UNL     1       4.540   0.433  21.851  1.00  0.00     0.073 C 
HETATM   16  C1  UNL     1       5.330   1.366  22.719  1.00  0.00     0.031 C 
HETATM   17  C3  UNL     1       3.125   0.968  21.772  1.00  0.00     0.031 C 
ENDBRANCH  13  15
ENDBRANCH   7  13
ENDBRANCH   3   6
ENDBRANCH   1   3
BRANCH   1  18
HETATM   18  C10 UNL     1       8.283   0.854  18.876  1.00  0.00     0.190 C 
HETATM   19 CL2  UNL     1       9.982   0.539  18.659  1.00  0.00    -0.102 Cl
BRANCH  18  20
HETATM   20  C11 UNL     1       8.050   2.111  19.676  1.00  0.00     0.051 C 
BRANCH  20  21
HETATM   21  C12 UNL     1       8.964   2.191  20.842  1.00  0.00     0.106 C 
BRANCH  21  22
HETATM   22  C13 UNL     1      10.088   3.134  20.755  1.00  0.00     0.223 C 
HETATM   23  O3  UNL     1      10.830   3.284  21.759  1.00  0.00    -0.273 OA
HETATM   24  N3  UNL     1      10.411   3.898  19.601  1.00  0.00    -0.307 N 
ATOM     25  H3  UNL     1       9.680   4.190  18.952  1.00  0.00     0.171 HD
BRANCH  24  26
HETATM   26  C14 UNL     1      11.670   4.225  19.381  1.00  0.00     0.153 A 
HETATM   27  N4  UNL     1      12.755   3.691  19.939  1.00  0.00    -0.325 N 
HETATM   28  C15 UNL     1      13.919   4.152  19.592  1.00  0.00     0.134 A 
ATOM     29  H4  UNL     1      12.673   2.938  20.621  1.00  0.00     0.169 HD
HETATM   30 CL3  UNL     1      15.451   3.516  20.268  1.00  0.00    -0.062 Cl
HETATM   31  C16 UNL     1      13.964   5.164  18.671  1.00  0.00     0.116 A 
HETATM   32 CL4  UNL     1      15.383   5.996  18.003  1.00  0.00    -0.073 Cl
HETATM   33  S2  UNL     1      12.310   5.415  18.338  1.00  0.00    -0.038 SA
ENDBRANCH  24  26
ENDBRANCH  21  22
ENDBRANCH  20  21
ENDBRANCH  18  20
ENDBRANCH   1  18
TORSDOF 9
ENDMDL
