MODEL 1
REMARK VINA RESULT: -9.351772001      0.000      0.000
REMARK  10 active torsions:
REMARK  status: ('A' for Active; 'I' for Inactive)
REMARK    1  A    between atoms: C4_4  and  N1_5 
REMARK       I    between atoms: N1_5  and  C5_7 
REMARK    2  A    between atoms: C5_7  and  C6_9 
REMARK    3  A    between atoms: C6_9  and  N2_10 
REMARK    4  A    between atoms: C10_14  and  C11_15 
REMARK    5  A    between atoms: C11_15  and  N3_16 
REMARK       I    between atoms: N3_16  and  C12_18 
REMARK    6  A    between atoms: C12_18  and  C13_20 
REMARK    7  A    between atoms: C13_20  and  C14_21 
REMARK    8  A    between atoms: C14_21  and  N4_22 
REMARK    9  A    between atoms: C14_21  and  C15_26 
REMARK   10  A    between atoms: C16_30  and  C17_31 
ROOT
HETATM    1  C17 UNL     1       5.105  -1.148  16.285  1.00  0.00     0.181 C 
HETATM    2  C18 UNL     1       6.055  -1.280  17.416  1.00  0.00     0.065 C 
HETATM    3  N5  UNL     1       6.787  -1.392  18.307  1.00  0.00    -0.197 NA
ENDROOT
BRANCH   1   4
HETATM    4  C16 UNL     1       4.495   0.221  16.425  1.00  0.00     0.033 A 
HETATM    5  N2  UNL     1       4.920   1.407  15.989  1.00  0.00    -0.344 N 
HETATM    6  C7  UNL     1       4.010   2.374  16.347  1.00  0.00     0.009 A 
HETATM    7  C8  UNL     1       4.121   3.803  16.045  1.00  0.00     0.068 C 
HETATM    8  C9  UNL     1       3.011   1.713  17.025  1.00  0.00     0.035 A 
HETATM    9  C10 UNL     1       3.287   0.393  17.086  1.00  0.00    -0.015 A 
BRANCH   5  10
HETATM   10  C6  UNL     1       6.123   1.611  15.246  1.00  0.00     0.232 C 
BRANCH  10  11
HETATM   11  C5  UNL     1       7.305   2.027  16.011  1.00  0.00     0.240 C 
HETATM   12  N1  UNL     1       7.559   1.632  17.328  1.00  0.00    -0.325 N 
ATOM     13  H1  UNL     1       6.855   1.019  17.738  1.00  0.00     0.169 HD
HETATM   14  O1  UNL     1       8.106   2.775  15.416  1.00  0.00    -0.271 OA
BRANCH  12  15
HETATM   15  C4  UNL     1       8.637   1.950  18.173  1.00  0.00     0.041 A 
HETATM   16  C3  UNL     1       9.847   2.412  17.732  1.00  0.00     0.038 A 
HETATM   17  C2  UNL     1      10.910   2.715  18.597  1.00  0.00    -0.038 A 
HETATM   18  C1  UNL     1      12.215   3.215  18.106  1.00  0.00     0.050 C 
HETATM   19  C22 UNL     1      10.677   2.525  19.935  1.00  0.00     0.040 A 
HETATM   20  C21 UNL     1       9.473   2.064  20.407  1.00  0.00     0.033 A 
HETATM   21 CL4  UNL     1      11.962   2.884  21.083  1.00  0.00    -0.084 Cl
HETATM   22  C19 UNL     1       8.442   1.771  19.549  1.00  0.00    -0.034 A 
HETATM   23  C20 UNL     1       7.128   1.271  20.090  1.00  0.00     0.050 C 
ENDBRANCH  12  15
ENDBRANCH  10  11
ENDBRANCH   5  10
BRANCH   9  24
HETATM   24  C11 UNL     1       2.462  -0.686  17.702  1.00  0.00     0.163 C 
BRANCH  24  25
HETATM   25  N3  UNL     1       2.744  -0.831  19.112  1.00  0.00    -0.357 N 
HETATM   26  C12 UNL     1       3.293  -2.012  19.666  1.00  0.00     0.220 C 
HETATM   27  O2  UNL     1       3.546  -2.984  18.934  1.00  0.00    -0.274 OA
ATOM     28  H3  UNL     1       2.540  -0.049  19.733  1.00  0.00     0.162 HD
BRANCH  26  29
HETATM   29  C13 UNL     1       3.564  -2.086  21.110  1.00  0.00     0.140 C 
BRANCH  29  30
HETATM   30  C14 UNL     1       5.027  -1.833  21.416  1.00  0.00     0.246 C 
BRANCH  30  31
HETATM   31  N4  UNL     1       5.831  -3.016  21.116  1.00  0.00    -0.070 N 
ATOM     32  H43 UNL     1       5.542  -3.821  21.672  1.00  0.00     0.274 HD
ATOM     33  H42 UNL     1       5.624  -3.388  20.188  1.00  0.00     0.274 HD
ATOM     34  H41 UNL     1       6.825  -2.817  21.229  1.00  0.00     0.274 HD
ENDBRANCH  30  31
BRANCH  30  35
HETATM   35  C15 UNL     1       5.166  -1.582  22.899  1.00  0.00     0.216 C 
HETATM   36 CL1  UNL     1       6.781  -1.020  23.344  1.00  0.00    -0.082 Cl
HETATM   37 CL2  UNL     1       4.810  -3.057  23.833  1.00  0.00    -0.082 Cl
HETATM   38 CL3  UNL     1       4.008  -0.308  23.417  1.00  0.00    -0.082 Cl
ENDBRANCH  30  35
ENDBRANCH  29  30
ENDBRANCH  26  29
ENDBRANCH  24  25
ENDBRANCH   9  24
ENDBRANCH   1   4
TORSDOF 10
ENDMDL
MODEL 2
REMARK VINA RESULT: -9.212573442      3.705      5.553
REMARK  10 active torsions:
REMARK  status: ('A' for Active; 'I' for Inactive)
REMARK    1  A    between atoms: C4_4  and  N1_5 
REMARK       I    between atoms: N1_5  and  C5_7 
REMARK    2  A    between atoms: C5_7  and  C6_9 
REMARK    3  A    between atoms: C6_9  and  N2_10 
REMARK    4  A    between atoms: C10_14  and  C11_15 
REMARK    5  A    between atoms: C11_15  and  N3_16 
REMARK       I    between atoms: N3_16  and  C12_18 
REMARK    6  A    between atoms: C12_18  and  C13_20 
REMARK    7  A    between atoms: C13_20  and  C14_21 
REMARK    8  A    between atoms: C14_21  and  N4_22 
REMARK    9  A    between atoms: C14_21  and  C15_26 
REMARK   10  A    between atoms: C16_30  and  C17_31 
ROOT
HETATM    1  C17 UNL     1       5.741  -0.982  19.225  1.00  0.00     0.181 C 
HETATM    2  C18 UNL     1       5.584  -2.422  19.545  1.00  0.00     0.065 C 
HETATM    3  N5  UNL     1       5.451  -3.548  19.787  1.00  0.00    -0.197 NA
ENDROOT
BRANCH   1   4
HETATM    4  C16 UNL     1       5.089  -0.241  20.362  1.00  0.00     0.033 A 
HETATM    5  N2  UNL     1       5.613   0.261  21.480  1.00  0.00    -0.344 N 
HETATM    6  C7  UNL     1       4.621   0.872  22.210  1.00  0.00     0.009 A 
HETATM    7  C8  UNL     1       4.801   1.544  23.499  1.00  0.00     0.068 C 
HETATM    8  C9  UNL     1       3.467   0.713  21.478  1.00  0.00     0.035 A 
HETATM    9  C10 UNL     1       3.729   0.033  20.341  1.00  0.00    -0.015 A 
BRANCH   5  10
HETATM   10  C6  UNL     1       6.997   0.186  21.830  1.00  0.00     0.232 C 
BRANCH  10  11
HETATM   11  C5  UNL     1       7.870   1.231  21.280  1.00  0.00     0.240 C 
HETATM   12  N1  UNL     1       8.945   0.978  20.424  1.00  0.00    -0.325 N 
ATOM     13  H1  UNL     1       9.092  -0.005  20.194  1.00  0.00     0.169 HD
HETATM   14  O1  UNL     1       7.602   2.401  21.620  1.00  0.00    -0.271 OA
BRANCH  12  15
HETATM   15  C4  UNL     1       9.855   1.870  19.829  1.00  0.00     0.041 A 
HETATM   16  C3  UNL     1      10.934   2.408  20.475  1.00  0.00     0.038 A 
HETATM   17  C2  UNL     1      11.823   3.303  19.860  1.00  0.00    -0.038 A 
HETATM   18  C1  UNL     1      12.989   3.878  20.572  1.00  0.00     0.050 C 
HETATM   19  C22 UNL     1      11.558   3.621  18.553  1.00  0.00     0.040 A 
HETATM   20  C21 UNL     1      10.483   3.096  17.879  1.00  0.00     0.033 A 
HETATM   21 CL4  UNL     1      12.629   4.738  17.713  1.00  0.00    -0.084 Cl
HETATM   22  C19 UNL     1       9.621   2.222  18.493  1.00  0.00    -0.034 A 
HETATM   23  C20 UNL     1       8.451   1.655  17.732  1.00  0.00     0.050 C 
ENDBRANCH  12  15
ENDBRANCH  10  11
ENDBRANCH   5  10
BRANCH   9  24
HETATM   24  C11 UNL     1       2.777  -0.331  19.253  1.00  0.00     0.163 C 
BRANCH  24  25
HETATM   25  N3  UNL     1       2.554   0.775  18.351  1.00  0.00    -0.357 N 
HETATM   26  C12 UNL     1       3.169   0.863  17.080  1.00  0.00     0.220 C 
HETATM   27  O2  UNL     1       3.944  -0.032  16.700  1.00  0.00    -0.274 OA
ATOM     28  H3  UNL     1       1.927   1.524  18.643  1.00  0.00     0.162 HD
BRANCH  26  29
HETATM   29  C13 UNL     1       2.888   2.014  16.208  1.00  0.00     0.140 C 
BRANCH  29  30
HETATM   30  C14 UNL     1       4.165   2.647  15.692  1.00  0.00     0.246 C 
BRANCH  30  31
HETATM   31  N4  UNL     1       5.110   2.873  16.784  1.00  0.00    -0.070 N 
ATOM     32  H43 UNL     1       5.373   3.856  16.858  1.00  0.00     0.274 HD
ATOM     33  H42 UNL     1       4.665   2.765  17.696  1.00  0.00     0.274 HD
ATOM     34  H41 UNL     1       5.926   2.269  16.688  1.00  0.00     0.274 HD
ENDBRANCH  30  31
BRANCH  30  35
HETATM   35  C15 UNL     1       3.828   4.005  15.124  1.00  0.00     0.216 C 
HETATM   36 CL1  UNL     1       4.839   4.433  13.739  1.00  0.00    -0.082 Cl
HETATM   37 CL2  UNL     1       4.006   5.276  16.360  1.00  0.00    -0.082 Cl
HETATM   38 CL3  UNL     1       2.123   4.025  14.554  1.00  0.00    -0.082 Cl
ENDBRANCH  30  35
ENDBRANCH  29  30
ENDBRANCH  26  29
ENDBRANCH  24  25
ENDBRANCH   9  24
ENDBRANCH   1   4
TORSDOF 10
ENDMDL
MODEL 3
REMARK VINA RESULT: -9.127121901      1.506      1.645
REMARK  10 active torsions:
REMARK  status: ('A' for Active; 'I' for Inactive)
REMARK    1  A    between atoms: C4_4  and  N1_5 
REMARK       I    between atoms: N1_5  and  C5_7 
REMARK    2  A    between atoms: C5_7  and  C6_9 
REMARK    3  A    between atoms: C6_9  and  N2_10 
REMARK    4  A    between atoms: C10_14  and  C11_15 
REMARK    5  A    between atoms: C11_15  and  N3_16 
REMARK       I    between atoms: N3_16  and  C12_18 
REMARK    6  A    between atoms: C12_18  and  C13_20 
REMARK    7  A    between atoms: C13_20  and  C14_21 
REMARK    8  A    between atoms: C14_21  and  N4_22 
REMARK    9  A    between atoms: C14_21  and  C15_26 
REMARK   10  A    between atoms: C16_30  and  C17_31 
ROOT
HETATM    1  C17 UNL     1       5.016  -1.149  16.277  1.00  0.00     0.181 C 
HETATM    2  C18 UNL     1       6.072  -1.260  17.312  1.00  0.00     0.065 C 
HETATM    3  N5  UNL     1       6.889  -1.353  18.129  1.00  0.00    -0.197 NA
ENDROOT
BRANCH   1   4
HETATM    4  C16 UNL     1       4.458   0.242  16.414  1.00  0.00     0.033 A 
HETATM    5  N2  UNL     1       4.931   1.411  15.980  1.00  0.00    -0.344 N 
HETATM    6  C7  UNL     1       4.056   2.412  16.332  1.00  0.00     0.009 A 
HETATM    7  C8  UNL     1       4.224   3.836  16.031  1.00  0.00     0.068 C 
HETATM    8  C9  UNL     1       3.028   1.791  17.004  1.00  0.00     0.035 A 
HETATM    9  C10 UNL     1       3.253   0.461  17.067  1.00  0.00    -0.015 A 
BRANCH   5  10
HETATM   10  C6  UNL     1       6.146   1.568  15.244  1.00  0.00     0.232 C 
BRANCH  10  11
HETATM   11  C5  UNL     1       7.321   2.013  16.005  1.00  0.00     0.240 C 
HETATM   12  N1  UNL     1       7.582   1.637  17.325  1.00  0.00    -0.325 N 
ATOM     13  H1  UNL     1       6.888   1.016  17.743  1.00  0.00     0.169 HD
HETATM   14  O1  UNL     1       8.108   2.768  15.401  1.00  0.00    -0.271 OA
BRANCH  12  15
HETATM   15  C4  UNL     1       8.654   1.982  18.167  1.00  0.00     0.041 A 
HETATM   16  C3  UNL     1       9.863   2.441  17.719  1.00  0.00     0.038 A 
HETATM   17  C2  UNL     1      10.920   2.772  18.580  1.00  0.00    -0.038 A 
HETATM   18  C1  UNL     1      12.224   3.270  18.082  1.00  0.00     0.050 C 
HETATM   19  C22 UNL     1      10.684   2.613  19.922  1.00  0.00     0.040 A 
HETATM   20  C21 UNL     1       9.481   2.155  20.400  1.00  0.00     0.033 A 
HETATM   21 CL4  UNL     1      11.962   3.008  21.066  1.00  0.00    -0.084 Cl
HETATM   22  C19 UNL     1       8.455   1.834  19.546  1.00  0.00    -0.034 A 
HETATM   23  C20 UNL     1       7.143   1.338  20.094  1.00  0.00     0.050 C 
ENDBRANCH  12  15
ENDBRANCH  10  11
ENDBRANCH   5  10
BRANCH   9  24
HETATM   24  C11 UNL     1       2.383  -0.585  17.677  1.00  0.00     0.163 C 
BRANCH  24  25
HETATM   25  N3  UNL     1       2.066  -0.275  19.053  1.00  0.00    -0.357 N 
HETATM   26  C12 UNL     1       2.844  -0.734  20.141  1.00  0.00     0.220 C 
HETATM   27  O2  UNL     1       3.846  -1.442  19.936  1.00  0.00    -0.274 OA
ATOM     28  H3  UNL     1       1.246   0.300  19.247  1.00  0.00     0.162 HD
BRANCH  26  29
HETATM   29  C13 UNL     1       2.467  -0.371  21.516  1.00  0.00     0.140 C 
BRANCH  29  30
HETATM   30  C14 UNL     1       3.663   0.110  22.313  1.00  0.00     0.246 C 
BRANCH  30  31
HETATM   31  N4  UNL     1       4.132  -0.933  23.224  1.00  0.00    -0.070 N 
ATOM     32  H43 UNL     1       3.579  -1.786  23.139  1.00  0.00     0.274 HD
ATOM     33  H42 UNL     1       5.037  -1.307  22.936  1.00  0.00     0.274 HD
ATOM     34  H41 UNL     1       4.154  -0.592  24.185  1.00  0.00     0.274 HD
ENDBRANCH  30  31
BRANCH  30  35
HETATM   35  C15 UNL     1       3.225   1.271  23.176  1.00  0.00     0.216 C 
HETATM   36 CL1  UNL     1       4.534   2.413  23.493  1.00  0.00    -0.082 Cl
HETATM   37 CL2  UNL     1       2.589   0.700  24.739  1.00  0.00    -0.082 Cl
HETATM   38 CL3  UNL     1       1.918   2.188  22.350  1.00  0.00    -0.082 Cl
ENDBRANCH  30  35
ENDBRANCH  29  30
ENDBRANCH  26  29
ENDBRANCH  24  25
ENDBRANCH   9  24
ENDBRANCH   1   4
TORSDOF 10
ENDMDL
MODEL 4
REMARK VINA RESULT: -8.992675461      3.962      6.225
REMARK  10 active torsions:
REMARK  status: ('A' for Active; 'I' for Inactive)
REMARK    1  A    between atoms: C4_4  and  N1_5 
REMARK       I    between atoms: N1_5  and  C5_7 
REMARK    2  A    between atoms: C5_7  and  C6_9 
REMARK    3  A    between atoms: C6_9  and  N2_10 
REMARK    4  A    between atoms: C10_14  and  C11_15 
REMARK    5  A    between atoms: C11_15  and  N3_16 
REMARK       I    between atoms: N3_16  and  C12_18 
REMARK    6  A    between atoms: C12_18  and  C13_20 
REMARK    7  A    between atoms: C13_20  and  C14_21 
REMARK    8  A    between atoms: C14_21  and  N4_22 
REMARK    9  A    between atoms: C14_21  and  C15_26 
REMARK   10  A    between atoms: C16_30  and  C17_31 
ROOT
HETATM    1  C17 UNL     1       9.692   0.708  18.850  1.00  0.00     0.181 C 
HETATM    2  C18 UNL     1       9.569   1.806  17.861  1.00  0.00     0.065 C 
HETATM    3  N5  UNL     1       9.482   2.672  17.096  1.00  0.00    -0.197 NA
ENDROOT
BRANCH   1   4
HETATM    4  C16 UNL     1       8.414   0.734  19.646  1.00  0.00     0.033 A 
HETATM    5  N2  UNL     1       8.155   1.245  20.849  1.00  0.00    -0.344 N 
HETATM    6  C7  UNL     1       6.829   1.040  21.152  1.00  0.00     0.009 A 
HETATM    7  C8  UNL     1       6.161   1.461  22.385  1.00  0.00     0.068 C 
HETATM    8  C9  UNL     1       6.298   0.374  20.071  1.00  0.00     0.035 A 
HETATM    9  C10 UNL     1       7.251   0.175  19.135  1.00  0.00    -0.015 A 
BRANCH   5  10
HETATM   10  C6  UNL     1       9.114   1.920  21.665  1.00  0.00     0.232 C 
BRANCH  10  11
HETATM   11  C5  UNL     1       9.979   2.896  20.990  1.00  0.00     0.240 C 
HETATM   12  N1  UNL     1      11.364   2.754  20.864  1.00  0.00    -0.325 N 
ATOM     13  H1  UNL     1      11.751   1.907  21.280  1.00  0.00     0.169 HD
HETATM   14  O1  UNL     1       9.406   3.896  20.513  1.00  0.00    -0.271 OA
BRANCH  12  15
HETATM   15  C4  UNL     1      12.306   3.600  20.251  1.00  0.00     0.041 A 
HETATM   16  C3  UNL     1      12.030   4.402  19.178  1.00  0.00     0.038 A 
HETATM   17  C2  UNL     1      12.991   5.232  18.579  1.00  0.00    -0.038 A 
HETATM   18  C1  UNL     1      12.680   6.097  17.418  1.00  0.00     0.050 C 
HETATM   19  C22 UNL     1      14.247   5.204  19.131  1.00  0.00     0.040 A 
HETATM   20  C21 UNL     1      14.551   4.409  20.208  1.00  0.00     0.033 A 
HETATM   21 CL4  UNL     1      15.507   6.218  18.435  1.00  0.00    -0.084 Cl
HETATM   22  C19 UNL     1      13.601   3.602  20.783  1.00  0.00    -0.034 A 
HETATM   23  C20 UNL     1      13.957   2.742  21.968  1.00  0.00     0.050 C 
ENDBRANCH  12  15
ENDBRANCH  10  11
ENDBRANCH   5  10
BRANCH   9  24
HETATM   24  C11 UNL     1       7.102  -0.477  17.803  1.00  0.00     0.163 C 
BRANCH  24  25
HETATM   25  N3  UNL     1       6.531   0.426  16.831  1.00  0.00    -0.357 N 
HETATM   26  C12 UNL     1       5.136   0.560  16.635  1.00  0.00     0.220 C 
HETATM   27  O2  UNL     1       4.344  -0.122  17.310  1.00  0.00    -0.274 OA
ATOM     28  H3  UNL     1       7.160   0.991  16.261  1.00  0.00     0.162 HD
BRANCH  26  29
HETATM   29  C13 UNL     1       4.624   1.507  15.633  1.00  0.00     0.140 C 
BRANCH  29  30
HETATM   30  C14 UNL     1       3.748   2.569  16.266  1.00  0.00     0.246 C 
BRANCH  30  31
HETATM   31  N4  UNL     1       2.367   2.102  16.379  1.00  0.00    -0.070 N 
ATOM     32  H43 UNL     1       1.702   2.875  16.338  1.00  0.00     0.274 HD
ATOM     33  H42 UNL     1       2.069   1.598  15.544  1.00  0.00     0.274 HD
ATOM     34  H41 UNL     1       2.242   1.541  17.222  1.00  0.00     0.274 HD
ENDBRANCH  30  31
BRANCH  30  35
HETATM   35  C15 UNL     1       3.723   3.773  15.354  1.00  0.00     0.216 C 
HETATM   36 CL1  UNL     1       2.177   3.961  14.520  1.00  0.00    -0.082 Cl
HETATM   37 CL2  UNL     1       5.011   3.671  14.127  1.00  0.00    -0.082 Cl
HETATM   38 CL3  UNL     1       3.988   5.272  16.310  1.00  0.00    -0.082 Cl
ENDBRANCH  30  35
ENDBRANCH  29  30
ENDBRANCH  26  29
ENDBRANCH  24  25
ENDBRANCH   9  24
ENDBRANCH   1   4
TORSDOF 10
ENDMDL
MODEL 5
REMARK VINA RESULT: -8.875119569      3.770      5.656
REMARK  10 active torsions:
REMARK  status: ('A' for Active; 'I' for Inactive)
REMARK    1  A    between atoms: C4_4  and  N1_5 
REMARK       I    between atoms: N1_5  and  C5_7 
REMARK    2  A    between atoms: C5_7  and  C6_9 
REMARK    3  A    between atoms: C6_9  and  N2_10 
REMARK    4  A    between atoms: C10_14  and  C11_15 
REMARK    5  A    between atoms: C11_15  and  N3_16 
REMARK       I    between atoms: N3_16  and  C12_18 
REMARK    6  A    between atoms: C12_18  and  C13_20 
REMARK    7  A    between atoms: C13_20  and  C14_21 
REMARK    8  A    between atoms: C14_21  and  N4_22 
REMARK    9  A    between atoms: C14_21  and  C15_26 
REMARK   10  A    between atoms: C16_30  and  C17_31 
ROOT
HETATM    1  C17 UNL     1       6.216  -0.905  19.371  1.00  0.00     0.181 C 
HETATM    2  C18 UNL     1       6.791   0.097  18.441  1.00  0.00     0.065 C 
HETATM    3  N5  UNL     1       7.253   0.879  17.721  1.00  0.00    -0.197 NA
ENDROOT
BRANCH   1   4
HETATM    4  C16 UNL     1       5.544  -0.111  20.459  1.00  0.00     0.033 A 
HETATM    5  N2  UNL     1       6.049   0.457  21.553  1.00  0.00    -0.344 N 
HETATM    6  C7  UNL     1       5.042   1.094  22.239  1.00  0.00     0.009 A 
HETATM    7  C8  UNL     1       5.200   1.837  23.491  1.00  0.00     0.068 C 
HETATM    8  C9  UNL     1       3.897   0.880  21.506  1.00  0.00     0.035 A 
HETATM    9  C10 UNL     1       4.181   0.143  20.410  1.00  0.00    -0.015 A 
BRANCH   5  10
HETATM   10  C6  UNL     1       7.430   0.420  21.920  1.00  0.00     0.232 C 
BRANCH  10  11
HETATM   11  C5  UNL     1       8.296   1.446  21.324  1.00  0.00     0.240 C 
HETATM   12  N1  UNL     1       9.691   1.374  21.307  1.00  0.00    -0.325 N 
ATOM     13  H1  UNL     1      10.086   0.542  21.745  1.00  0.00     0.169 HD
HETATM   14  O1  UNL     1       7.712   2.422  20.812  1.00  0.00    -0.271 OA
BRANCH  12  15
HETATM   15  C4  UNL     1      10.635   2.273  20.778  1.00  0.00     0.041 A 
HETATM   16  C3  UNL     1      10.556   2.817  19.525  1.00  0.00     0.038 A 
HETATM   17  C2  UNL     1      11.516   3.707  19.018  1.00  0.00    -0.038 A 
HETATM   18  C1  UNL     1      11.418   4.290  17.660  1.00  0.00     0.050 C 
HETATM   19  C22 UNL     1      12.559   4.015  19.853  1.00  0.00     0.040 A 
HETATM   20  C21 UNL     1      12.664   3.485  21.115  1.00  0.00     0.033 A 
HETATM   21 CL4  UNL     1      13.804   5.125  19.288  1.00  0.00    -0.084 Cl
HETATM   22  C19 UNL     1      11.718   2.615  21.598  1.00  0.00    -0.034 A 
HETATM   23  C20 UNL     1      11.850   2.050  22.988  1.00  0.00     0.050 C 
ENDBRANCH  12  15
ENDBRANCH  10  11
ENDBRANCH   5  10
BRANCH   9  24
HETATM   24  C11 UNL     1       3.244  -0.292  19.334  1.00  0.00     0.163 C 
BRANCH  24  25
HETATM   25  N3  UNL     1       2.931   0.792  18.433  1.00  0.00    -0.357 N 
HETATM   26  C12 UNL     1       3.338   0.805  17.078  1.00  0.00     0.220 C 
HETATM   27  O2  UNL     1       4.001  -0.142  16.618  1.00  0.00    -0.274 OA
ATOM     28  H3  UNL     1       2.393   1.582  18.788  1.00  0.00     0.162 HD
BRANCH  26  29
HETATM   29  C13 UNL     1       2.975   1.939  16.214  1.00  0.00     0.140 C 
BRANCH  29  30
HETATM   30  C14 UNL     1       4.203   2.638  15.666  1.00  0.00     0.246 C 
BRANCH  30  31
HETATM   31  N4  UNL     1       5.183   2.870  16.725  1.00  0.00    -0.070 N 
ATOM     32  H43 UNL     1       5.242   2.078  17.365  1.00  0.00     0.274 HD
ATOM     33  H42 UNL     1       6.138   2.851  16.367  1.00  0.00     0.274 HD
ATOM     34  H41 UNL     1       4.982   3.740  17.219  1.00  0.00     0.274 HD
ENDBRANCH  30  31
BRANCH  30  35
HETATM   35  C15 UNL     1       3.788   3.998  15.155  1.00  0.00     0.216 C 
HETATM   36 CL1  UNL     1       3.964   5.264  16.375  1.00  0.00    -0.082 Cl
HETATM   37 CL2  UNL     1       2.094   3.984  14.604  1.00  0.00    -0.082 Cl
HETATM   38 CL3  UNL     1       4.819   4.468  13.760  1.00  0.00    -0.082 Cl
ENDBRANCH  30  35
ENDBRANCH  29  30
ENDBRANCH  26  29
ENDBRANCH  24  25
ENDBRANCH   9  24
ENDBRANCH   1   4
TORSDOF 10
ENDMDL
