MODEL 1
REMARK VINA RESULT: -9.600984347      0.000      0.000
REMARK  12 active torsions:
REMARK  status: ('A' for Active; 'I' for Inactive)
REMARK    1  A    between atoms: C2_2  and  C3_3 
REMARK    2  A    between atoms: C3_3  and  C4_4 
REMARK    3  A    between atoms: C4_4  and  C5_5 
REMARK    4  A    between atoms: C6_6  and  C7_7 
REMARK    5  A    between atoms: C8_8  and  N1_9 
REMARK    6  A    between atoms: N1_9  and  C9_11 
REMARK    7  A    between atoms: C11_13  and  C12_14 
REMARK    8  A    between atoms: C12_14  and  C13_15 
REMARK    9  A    between atoms: C20_30  and  C21_31 
REMARK   10  A    between atoms: C22_36  and  N7_37 
REMARK   11  A    between atoms: N7_37  and  C23_39 
REMARK   12  A    between atoms: C23_39  and  C25_41 
ROOT
HETATM    1  C7  UNL     1       4.855  -1.950  18.411  1.00  0.00     0.092 A 
HETATM    2  C8  UNL     1       5.017  -3.321  18.696  1.00  0.00     0.129 A 
HETATM    3  N3  UNL     1       4.336  -4.238  17.979  1.00  0.00    -0.337 N 
ATOM      4  H3  UNL     1       4.457  -5.229  18.187  1.00  0.00     0.168 HD
HETATM    5  C19 UNL     1       3.499  -3.865  16.990  1.00  0.00     0.182 A 
HETATM    6  N4  UNL     1       3.337  -2.590  16.711  1.00  0.00    -0.348 N 
ATOM      7  H4  UNL     1       2.701  -2.320  15.960  1.00  0.00     0.167 HD
HETATM    8  C20 UNL     1       4.012  -1.602  17.416  1.00  0.00     0.102 A 
ENDROOT
BRANCH   2   9
HETATM    9  N1  UNL     1       5.889  -3.758  19.728  1.00  0.00    -0.327 N 
ATOM     10  H1  UNL     1       6.886  -3.882  19.555  1.00  0.00     0.169 HD
BRANCH   9  11
HETATM   11  C9  UNL     1       5.380  -3.994  20.897  1.00  0.00     0.107 A 
HETATM   12  C10 UNL     1       5.262  -3.014  21.868  1.00  0.00     0.058 A 
HETATM   13  C11 UNL     1       4.711  -3.287  23.131  1.00  0.00    -0.020 A 
HETATM   14  C17 UNL     1       4.281  -4.579  23.386  1.00  0.00     0.056 A 
HETATM   15 CL1  UNL     1       3.603  -4.953  24.939  1.00  0.00    -0.082 Cl
HETATM   16  C18 UNL     1       4.414  -5.525  22.396  1.00  0.00     0.114 A 
HETATM   17  N2  UNL     1       4.946  -5.237  21.199  1.00  0.00    -0.351 N 
ATOM     18  H2  UNL     1       5.024  -5.975  20.498  1.00  0.00     0.166 HD
BRANCH  13  19
HETATM   19  C12 UNL     1       4.574  -2.228  24.110  1.00  0.00     0.023 A 
HETATM   20  C14 UNL     1       5.409  -2.216  25.392  1.00  0.00     0.007 A 
HETATM   21  C15 UNL     1       5.573  -0.825  25.941  1.00  0.00     0.012 A 
HETATM   22  C16 UNL     1       5.521  -1.180  24.417  1.00  0.00     0.007 A 
BRANCH  19  23
HETATM   23  C13 UNL     1       3.125  -1.777  24.383  1.00  0.00     0.237 C 
HETATM   24  F1  UNL     1       2.356  -1.822  23.240  1.00  0.00    -0.254 F 
ENDBRANCH  19  23
ENDBRANCH  13  19
ENDBRANCH   9  11
ENDBRANCH   2   9
BRANCH   1  25
HETATM   25  C6  UNL     1       5.603  -1.051  19.208  1.00  0.00    -0.061 C 
HETATM   26  C5  UNL     1       6.227  -0.264  19.855  1.00  0.00    -0.101 C 
BRANCH  26  27
HETATM   27  C4  UNL     1       7.013   0.684  20.641  1.00  0.00     0.094 C 
BRANCH  27  28
HETATM   28  C3  UNL     1       7.732   1.615  19.691  1.00  0.00     0.012 C 
BRANCH  28  29
HETATM   29  C2  UNL     1       8.581   0.746  18.785  1.00  0.00    -0.004 C 
HETATM   30  C1  UNL     1      10.030   1.136  18.783  1.00  0.00     0.005 C 
ENDBRANCH  28  29
ENDBRANCH  27  28
ENDBRANCH  26  27
ENDBRANCH   1  25
BRANCH   8  31
HETATM   31  C21 UNL     1       3.736  -0.235  17.002  1.00  0.00     0.164 A 
HETATM   32  N5  UNL     1       2.519   0.375  17.264  1.00  0.00    -0.269 N 
HETATM   33  N6  UNL     1       2.498   1.595  16.800  1.00  0.00    -0.131 N 
ATOM     34  H5  UNL     1       1.743  -0.070  17.754  1.00  0.00     0.189 HD
HETATM   35  C22 UNL     1       3.667   1.860  16.218  1.00  0.00     0.695 A 
ATOM     36  H6  UNL     1       1.713   2.242  16.872  1.00  0.00     0.205 HD
HETATM   37  N8  UNL     1       4.410   0.697  16.363  1.00  0.00    -0.172 N 
ATOM     38  H8  UNL     1       5.362   0.579  16.017  1.00  0.00     0.186 HD
BRANCH  35  39
HETATM   39  N7  UNL     1       4.108   2.911  15.628  1.00  0.00    -0.215 N 
ATOM     40  H7  UNL     1       5.042   2.909  15.219  1.00  0.00     0.178 HD
BRANCH  39  41
HETATM   41  C23 UNL     1       3.298   4.081  15.542  1.00  0.00     0.160 C 
HETATM   42  C24 UNL     1       2.546   4.131  14.215  1.00  0.00     0.038 C 
BRANCH  41  43
HETATM   43  C25 UNL     1       4.151   5.350  15.571  1.00  0.00     0.375 C 
HETATM   44  F2  UNL     1       4.363   5.638  16.924  1.00  0.00    -0.212 F 
HETATM   45  F3  UNL     1       5.400   5.106  15.035  1.00  0.00    -0.212 F 
ENDBRANCH  41  43
ENDBRANCH  39  41
ENDBRANCH  35  39
ENDBRANCH   8  31
TORSDOF 12
ENDMDL
MODEL 2
REMARK VINA RESULT: -9.536641965      0.806      1.521
REMARK  12 active torsions:
REMARK  status: ('A' for Active; 'I' for Inactive)
REMARK    1  A    between atoms: C2_2  and  C3_3 
REMARK    2  A    between atoms: C3_3  and  C4_4 
REMARK    3  A    between atoms: C4_4  and  C5_5 
REMARK    4  A    between atoms: C6_6  and  C7_7 
REMARK    5  A    between atoms: C8_8  and  N1_9 
REMARK    6  A    between atoms: N1_9  and  C9_11 
REMARK    7  A    between atoms: C11_13  and  C12_14 
REMARK    8  A    between atoms: C12_14  and  C13_15 
REMARK    9  A    between atoms: C20_30  and  C21_31 
REMARK   10  A    between atoms: C22_36  and  N7_37 
REMARK   11  A    between atoms: N7_37  and  C23_39 
REMARK   12  A    between atoms: C23_39  and  C25_41 
ROOT
HETATM    1  C7  UNL     1       4.872  -1.926  18.446  1.00  0.00     0.092 A 
HETATM    2  C8  UNL     1       5.049  -3.291  18.747  1.00  0.00     0.129 A 
HETATM    3  N3  UNL     1       4.392  -4.225  18.031  1.00  0.00    -0.337 N 
ATOM      4  H3  UNL     1       4.524  -5.212  18.251  1.00  0.00     0.168 HD
HETATM    5  C19 UNL     1       3.563  -3.875  17.027  1.00  0.00     0.182 A 
HETATM    6  N4  UNL     1       3.386  -2.606  16.732  1.00  0.00    -0.348 N 
ATOM      7  H4  UNL     1       2.757  -2.353  15.970  1.00  0.00     0.167 HD
HETATM    8  C20 UNL     1       4.037  -1.601  17.436  1.00  0.00     0.102 A 
ENDROOT
BRANCH   2   9
HETATM    9  N1  UNL     1       5.913  -3.704  19.796  1.00  0.00    -0.327 N 
ATOM     10  H1  UNL     1       6.920  -3.777  19.649  1.00  0.00     0.169 HD
BRANCH   9  11
HETATM   11  C9  UNL     1       5.386  -3.985  20.947  1.00  0.00     0.107 A 
HETATM   12  C10 UNL     1       5.272  -3.049  21.961  1.00  0.00     0.058 A 
HETATM   13  C11 UNL     1       4.700  -3.371  23.203  1.00  0.00    -0.020 A 
HETATM   14  C17 UNL     1       4.244  -4.665  23.392  1.00  0.00     0.056 A 
HETATM   15 CL1  UNL     1       3.540  -5.099  24.918  1.00  0.00    -0.082 Cl
HETATM   16  C18 UNL     1       4.373  -5.566  22.360  1.00  0.00     0.114 A 
HETATM   17  N2  UNL     1       4.925  -5.233  21.184  1.00  0.00    -0.351 N 
ATOM     18  H2  UNL     1       4.999  -5.938  20.451  1.00  0.00     0.166 HD
BRANCH  13  19
HETATM   19  C12 UNL     1       4.569  -2.356  24.229  1.00  0.00     0.023 A 
HETATM   20  C14 UNL     1       5.218  -2.525  25.603  1.00  0.00     0.007 A 
HETATM   21  C15 UNL     1       5.484  -1.201  26.265  1.00  0.00     0.012 A 
HETATM   22  C16 UNL     1       5.592  -1.465  24.726  1.00  0.00     0.007 A 
BRANCH  19  23
HETATM   23  C13 UNL     1       3.167  -1.726  24.346  1.00  0.00     0.237 C 
HETATM   24  F1  UNL     1       2.729  -1.234  23.136  1.00  0.00    -0.254 F 
ENDBRANCH  19  23
ENDBRANCH  13  19
ENDBRANCH   9  11
ENDBRANCH   2   9
BRANCH   1  25
HETATM   25  C6  UNL     1       5.595  -1.008  19.244  1.00  0.00    -0.061 C 
HETATM   26  C5  UNL     1       6.174  -0.209  19.918  1.00  0.00    -0.101 C 
BRANCH  26  27
HETATM   27  C4  UNL     1       6.899   0.772  20.722  1.00  0.00     0.094 C 
BRANCH  27  28
HETATM   28  C3  UNL     1       6.430   0.658  22.155  1.00  0.00     0.012 C 
BRANCH  28  29
HETATM   29  C2  UNL     1       4.960   1.024  22.166  1.00  0.00    -0.004 C 
HETATM   30  C1  UNL     1       4.576   1.885  23.335  1.00  0.00     0.005 C 
ENDBRANCH  28  29
ENDBRANCH  27  28
ENDBRANCH  26  27
ENDBRANCH   1  25
BRANCH   8  31
HETATM   31  C21 UNL     1       3.746  -0.242  17.004  1.00  0.00     0.164 A 
HETATM   32  N5  UNL     1       2.520   0.355  17.248  1.00  0.00    -0.269 N 
HETATM   33  N6  UNL     1       2.487   1.569  16.770  1.00  0.00    -0.131 N 
ATOM     34  H5  UNL     1       1.745  -0.095  17.736  1.00  0.00     0.189 HD
HETATM   35  C22 UNL     1       3.657   1.842  16.195  1.00  0.00     0.695 A 
ATOM     36  H6  UNL     1       1.692   2.206  16.827  1.00  0.00     0.205 HD
HETATM   37  N8  UNL     1       4.414   0.691  16.360  1.00  0.00    -0.172 N 
ATOM     38  H8  UNL     1       5.370   0.582  16.024  1.00  0.00     0.186 HD
BRANCH  35  39
HETATM   39  N7  UNL     1       4.089   2.893  15.597  1.00  0.00    -0.215 N 
ATOM     40  H7  UNL     1       5.016   2.888  15.170  1.00  0.00     0.178 HD
BRANCH  39  41
HETATM   41  C23 UNL     1       3.281   4.065  15.527  1.00  0.00     0.160 C 
HETATM   42  C24 UNL     1       2.516   4.125  14.207  1.00  0.00     0.038 C 
BRANCH  41  43
HETATM   43  C25 UNL     1       4.137   5.332  15.557  1.00  0.00     0.375 C 
HETATM   44  F2  UNL     1       4.314   5.642  16.910  1.00  0.00    -0.212 F 
HETATM   45  F3  UNL     1       5.399   5.075  15.058  1.00  0.00    -0.212 F 
ENDBRANCH  41  43
ENDBRANCH  39  41
ENDBRANCH  35  39
ENDBRANCH   8  31
TORSDOF 12
ENDMDL
MODEL 3
REMARK VINA RESULT: -9.392818982      0.801      1.145
REMARK  12 active torsions:
REMARK  status: ('A' for Active; 'I' for Inactive)
REMARK    1  A    between atoms: C2_2  and  C3_3 
REMARK    2  A    between atoms: C3_3  and  C4_4 
REMARK    3  A    between atoms: C4_4  and  C5_5 
REMARK    4  A    between atoms: C6_6  and  C7_7 
REMARK    5  A    between atoms: C8_8  and  N1_9 
REMARK    6  A    between atoms: N1_9  and  C9_11 
REMARK    7  A    between atoms: C11_13  and  C12_14 
REMARK    8  A    between atoms: C12_14  and  C13_15 
REMARK    9  A    between atoms: C20_30  and  C21_31 
REMARK   10  A    between atoms: C22_36  and  N7_37 
REMARK   11  A    between atoms: N7_37  and  C23_39 
REMARK   12  A    between atoms: C23_39  and  C25_41 
ROOT
HETATM    1  C7  UNL     1       4.834  -1.930  18.449  1.00  0.00     0.092 A 
HETATM    2  C8  UNL     1       4.995  -3.299  18.744  1.00  0.00     0.129 A 
HETATM    3  N3  UNL     1       4.323  -4.221  18.027  1.00  0.00    -0.337 N 
ATOM      4  H3  UNL     1       4.443  -5.211  18.243  1.00  0.00     0.168 HD
HETATM    5  C19 UNL     1       3.494  -3.857  17.028  1.00  0.00     0.182 A 
HETATM    6  N4  UNL     1       3.332  -2.584  16.739  1.00  0.00    -0.348 N 
ATOM      7  H4  UNL     1       2.703  -2.321  15.981  1.00  0.00     0.167 HD
HETATM    8  C20 UNL     1       4.000  -1.590  17.444  1.00  0.00     0.102 A 
ENDROOT
BRANCH   2   9
HETATM    9  N1  UNL     1       5.858  -3.727  19.788  1.00  0.00    -0.327 N 
ATOM     10  H1  UNL     1       6.864  -3.808  19.637  1.00  0.00     0.169 HD
BRANCH   9  11
HETATM   11  C9  UNL     1       5.331  -4.012  20.938  1.00  0.00     0.107 A 
HETATM   12  C10 UNL     1       5.114  -3.054  21.914  1.00  0.00     0.058 A 
HETATM   13  C11 UNL     1       4.544  -3.380  23.156  1.00  0.00    -0.020 A 
HETATM   14  C17 UNL     1       4.198  -4.701  23.385  1.00  0.00     0.056 A 
HETATM   15 CL1  UNL     1       3.500  -5.140  24.911  1.00  0.00    -0.082 Cl
HETATM   16  C18 UNL     1       4.428  -5.624  22.390  1.00  0.00     0.114 A 
HETATM   17  N2  UNL     1       4.976  -5.286  21.213  1.00  0.00    -0.351 N 
ATOM     18  H2  UNL     1       5.127  -6.008  20.509  1.00  0.00     0.166 HD
BRANCH  13  19
HETATM   19  C12 UNL     1       4.302  -2.344  24.140  1.00  0.00     0.023 A 
HETATM   20  C14 UNL     1       3.571  -1.052  23.771  1.00  0.00     0.007 A 
HETATM   21  C15 UNL     1       2.909  -0.421  24.966  1.00  0.00     0.012 A 
HETATM   22  C16 UNL     1       3.039  -1.964  24.730  1.00  0.00     0.007 A 
BRANCH  19  23
HETATM   23  C13 UNL     1       5.478  -2.067  25.097  1.00  0.00     0.237 C 
HETATM   24  F1  UNL     1       5.509  -2.972  26.136  1.00  0.00    -0.254 F 
ENDBRANCH  19  23
ENDBRANCH  13  19
ENDBRANCH   9  11
ENDBRANCH   2   9
BRANCH   1  25
HETATM   25  C6  UNL     1       5.572  -1.025  19.247  1.00  0.00    -0.061 C 
HETATM   26  C5  UNL     1       6.211  -0.245  19.889  1.00  0.00    -0.101 C 
BRANCH  26  27
HETATM   27  C4  UNL     1       7.007   0.688  20.684  1.00  0.00     0.094 C 
BRANCH  27  28
HETATM   28  C3  UNL     1       7.722   1.631  19.743  1.00  0.00     0.012 C 
BRANCH  28  29
HETATM   29  C2  UNL     1       8.553   0.772  18.810  1.00  0.00    -0.004 C 
HETATM   30  C1  UNL     1      10.014   1.113  18.841  1.00  0.00     0.005 C 
ENDBRANCH  28  29
ENDBRANCH  27  28
ENDBRANCH  26  27
ENDBRANCH   1  25
BRANCH   8  31
HETATM   31  C21 UNL     1       3.724  -0.227  17.018  1.00  0.00     0.164 A 
HETATM   32  N5  UNL     1       2.502   0.380  17.258  1.00  0.00    -0.269 N 
HETATM   33  N6  UNL     1       2.484   1.598  16.787  1.00  0.00    -0.131 N 
ATOM     34  H5  UNL     1       1.720  -0.065  17.737  1.00  0.00     0.189 HD
HETATM   35  C22 UNL     1       3.661   1.863  16.221  1.00  0.00     0.695 A 
ATOM     36  H6  UNL     1       1.695   2.242  16.843  1.00  0.00     0.205 HD
HETATM   37  N8  UNL     1       4.405   0.704  16.385  1.00  0.00    -0.172 N 
ATOM     38  H8  UNL     1       5.363   0.588  16.055  1.00  0.00     0.186 HD
BRANCH  35  39
HETATM   39  N7  UNL     1       4.106   2.913  15.633  1.00  0.00    -0.215 N 
ATOM     40  H7  UNL     1       5.042   2.908  15.226  1.00  0.00     0.178 HD
BRANCH  39  41
HETATM   41  C23 UNL     1       3.302   4.086  15.546  1.00  0.00     0.160 C 
HETATM   42  C24 UNL     1       2.526   4.123  14.232  1.00  0.00     0.038 C 
BRANCH  41  43
HETATM   43  C25 UNL     1       4.162   5.352  15.543  1.00  0.00     0.375 C 
HETATM   44  F2  UNL     1       4.341   5.695  16.888  1.00  0.00    -0.212 F 
HETATM   45  F3  UNL     1       5.422   5.078  15.050  1.00  0.00    -0.212 F 
ENDBRANCH  41  43
ENDBRANCH  39  41
ENDBRANCH  35  39
ENDBRANCH   8  31
TORSDOF 12
ENDMDL
MODEL 4
REMARK VINA RESULT: -9.380253513      1.426      2.076
REMARK  12 active torsions:
REMARK  status: ('A' for Active; 'I' for Inactive)
REMARK    1  A    between atoms: C2_2  and  C3_3 
REMARK    2  A    between atoms: C3_3  and  C4_4 
REMARK    3  A    between atoms: C4_4  and  C5_5 
REMARK    4  A    between atoms: C6_6  and  C7_7 
REMARK    5  A    between atoms: C8_8  and  N1_9 
REMARK    6  A    between atoms: N1_9  and  C9_11 
REMARK    7  A    between atoms: C11_13  and  C12_14 
REMARK    8  A    between atoms: C12_14  and  C13_15 
REMARK    9  A    between atoms: C20_30  and  C21_31 
REMARK   10  A    between atoms: C22_36  and  N7_37 
REMARK   11  A    between atoms: N7_37  and  C23_39 
REMARK   12  A    between atoms: C23_39  and  C25_41 
ROOT
HETATM    1  C7  UNL     1       5.316  -1.837  18.523  1.00  0.00     0.092 A 
HETATM    2  C8  UNL     1       5.215  -3.167  18.978  1.00  0.00     0.129 A 
HETATM    3  N3  UNL     1       4.559  -4.080  18.233  1.00  0.00    -0.337 N 
ATOM      4  H3  UNL     1       4.489  -5.042  18.565  1.00  0.00     0.168 HD
HETATM    5  C19 UNL     1       3.996  -3.742  17.055  1.00  0.00     0.182 A 
HETATM    6  N4  UNL     1       4.082  -2.506  16.617  1.00  0.00    -0.348 N 
ATOM      7  H4  UNL     1       3.652  -2.262  15.724  1.00  0.00     0.167 HD
HETATM    8  C20 UNL     1       4.745  -1.524  17.341  1.00  0.00     0.102 A 
ENDROOT
BRANCH   2   9
HETATM    9  N1  UNL     1       5.794  -3.567  20.212  1.00  0.00    -0.327 N 
ATOM     10  H1  UNL     1       6.805  -3.551  20.346  1.00  0.00     0.169 HD
BRANCH   9  11
HETATM   11  C9  UNL     1       5.000  -3.951  21.162  1.00  0.00     0.107 A 
HETATM   12  C10 UNL     1       4.244  -3.060  21.905  1.00  0.00     0.058 A 
HETATM   13  C11 UNL     1       3.391  -3.493  22.934  1.00  0.00    -0.020 A 
HETATM   14  C17 UNL     1       3.321  -4.852  23.191  1.00  0.00     0.056 A 
HETATM   15 CL1  UNL     1       2.284  -5.420  24.461  1.00  0.00    -0.082 Cl
HETATM   16  C18 UNL     1       4.087  -5.706  22.431  1.00  0.00     0.114 A 
HETATM   17  N2  UNL     1       4.895  -5.266  21.455  1.00  0.00    -0.351 N 
ATOM     18  H2  UNL     1       5.443  -5.940  20.920  1.00  0.00     0.166 HD
BRANCH  13  19
HETATM   19  C12 UNL     1       2.591  -2.533  23.668  1.00  0.00     0.023 A 
HETATM   20  C14 UNL     1       1.840  -1.410  22.951  1.00  0.00     0.007 A 
HETATM   21  C15 UNL     1       0.654  -0.933  23.744  1.00  0.00     0.012 A 
HETATM   22  C16 UNL     1       1.151  -2.416  23.689  1.00  0.00     0.007 A 
BRANCH  19  23
HETATM   23  C13 UNL     1       3.217  -2.035  24.985  1.00  0.00     0.237 C 
HETATM   24  F1  UNL     1       4.519  -2.466  25.122  1.00  0.00    -0.254 F 
ENDBRANCH  19  23
ENDBRANCH  13  19
ENDBRANCH   9  11
ENDBRANCH   2   9
BRANCH   1  25
HETATM   25  C6  UNL     1       6.018  -0.939  19.362  1.00  0.00    -0.061 C 
HETATM   26  C5  UNL     1       6.578  -0.161  20.075  1.00  0.00    -0.101 C 
BRANCH  26  27
HETATM   27  C4  UNL     1       7.276   0.800  20.926  1.00  0.00     0.094 C 
BRANCH  27  28
HETATM   28  C3  UNL     1       7.950   1.824  20.040  1.00  0.00     0.012 C 
BRANCH  28  29
HETATM   29  C2  UNL     1       9.435   1.520  20.071  1.00  0.00    -0.004 C 
HETATM   30  C1  UNL     1       9.972   1.074  18.742  1.00  0.00     0.005 C 
ENDBRANCH  28  29
ENDBRANCH  27  28
ENDBRANCH  26  27
ENDBRANCH   1  25
BRANCH   8  31
HETATM   31  C21 UNL     1       4.760  -0.200  16.737  1.00  0.00     0.164 A 
HETATM   32  N5  UNL     1       5.719   0.166  15.806  1.00  0.00    -0.269 N 
HETATM   33  N6  UNL     1       5.535   1.394  15.404  1.00  0.00    -0.131 N 
ATOM     34  H5  UNL     1       6.470  -0.443  15.479  1.00  0.00     0.189 HD
HETATM   35  C22 UNL     1       4.473   1.903  16.027  1.00  0.00     0.695 A 
ATOM     36  H6  UNL     1       6.113   1.886  14.721  1.00  0.00     0.205 HD
HETATM   37  N8  UNL     1       4.018   0.881  16.848  1.00  0.00    -0.172 N 
ATOM     38  H8  UNL     1       3.208   0.958  17.463  1.00  0.00     0.186 HD
BRANCH  35  39
HETATM   39  N7  UNL     1       3.915   3.057  15.959  1.00  0.00    -0.215 N 
ATOM     40  H7  UNL     1       2.922   3.153  16.170  1.00  0.00     0.178 HD
BRANCH  39  41
HETATM   41  C23 UNL     1       4.677   4.204  15.590  1.00  0.00     0.160 C 
HETATM   42  C24 UNL     1       4.240   5.431  16.386  1.00  0.00     0.038 C 
BRANCH  41  43
HETATM   43  C25 UNL     1       4.452   4.572  14.123  1.00  0.00     0.375 C 
HETATM   44  F2  UNL     1       5.455   3.911  13.405  1.00  0.00    -0.212 F 
HETATM   45  F3  UNL     1       3.256   4.050  13.671  1.00  0.00    -0.212 F 
ENDBRANCH  41  43
ENDBRANCH  39  41
ENDBRANCH  35  39
ENDBRANCH   8  31
TORSDOF 12
ENDMDL
MODEL 5
REMARK VINA RESULT: -9.365387082      3.181      5.049
REMARK  12 active torsions:
REMARK  status: ('A' for Active; 'I' for Inactive)
REMARK    1  A    between atoms: C2_2  and  C3_3 
REMARK    2  A    between atoms: C3_3  and  C4_4 
REMARK    3  A    between atoms: C4_4  and  C5_5 
REMARK    4  A    between atoms: C6_6  and  C7_7 
REMARK    5  A    between atoms: C8_8  and  N1_9 
REMARK    6  A    between atoms: N1_9  and  C9_11 
REMARK    7  A    between atoms: C11_13  and  C12_14 
REMARK    8  A    between atoms: C12_14  and  C13_15 
REMARK    9  A    between atoms: C20_30  and  C21_31 
REMARK   10  A    between atoms: C22_36  and  N7_37 
REMARK   11  A    between atoms: N7_37  and  C23_39 
REMARK   12  A    between atoms: C23_39  and  C25_41 
ROOT
HETATM    1  C7  UNL     1       6.784   1.069  17.453  1.00  0.00     0.092 A 
HETATM    2  C8  UNL     1       7.503   0.506  18.526  1.00  0.00     0.129 A 
HETATM    3  N3  UNL     1       8.801   0.826  18.702  1.00  0.00    -0.337 N 
ATOM      4  H3  UNL     1       9.317   0.417  19.481  1.00  0.00     0.168 HD
HETATM    5  C19 UNL     1       9.427   1.678  17.866  1.00  0.00     0.182 A 
HETATM    6  N4  UNL     1       8.771   2.213  16.860  1.00  0.00    -0.348 N 
ATOM      7  H4  UNL     1       9.255   2.857  16.234  1.00  0.00     0.167 HD
HETATM    8  C20 UNL     1       7.432   1.920  16.630  1.00  0.00     0.102 A 
ENDROOT
BRANCH   2   9
HETATM    9  N1  UNL     1       6.882  -0.396  19.431  1.00  0.00    -0.327 N 
ATOM     10  H1  UNL     1       6.926  -1.404  19.279  1.00  0.00     0.169 HD
BRANCH   9  11
HETATM   11  C9  UNL     1       6.259   0.099  20.454  1.00  0.00     0.107 A 
HETATM   12  C10 UNL     1       4.898  -0.069  20.648  1.00  0.00     0.058 A 
HETATM   13  C11 UNL     1       4.238   0.476  21.762  1.00  0.00    -0.020 A 
HETATM   14  C17 UNL     1       4.991   1.194  22.677  1.00  0.00     0.056 A 
HETATM   15 CL1  UNL     1       4.205   1.888  24.059  1.00  0.00    -0.082 Cl
HETATM   16  C18 UNL     1       6.341   1.338  22.450  1.00  0.00     0.114 A 
HETATM   17  N2  UNL     1       6.946   0.808  21.377  1.00  0.00    -0.351 N 
ATOM     18  H2  UNL     1       7.950   0.944  21.254  1.00  0.00     0.166 HD
BRANCH  13  19
HETATM   19  C12 UNL     1       2.818   0.252  21.947  1.00  0.00     0.023 A 
HETATM   20  C14 UNL     1       1.817   1.406  21.888  1.00  0.00     0.007 A 
HETATM   21  C15 UNL     1       0.440   0.935  21.505  1.00  0.00     0.012 A 
HETATM   22  C16 UNL     1       1.774   0.331  20.952  1.00  0.00     0.007 A 
BRANCH  19  23
HETATM   23  C13 UNL     1       2.457  -0.744  23.067  1.00  0.00     0.237 C 
HETATM   24  F1  UNL     1       2.957  -2.002  22.807  1.00  0.00    -0.254 F 
ENDBRANCH  19  23
ENDBRANCH  13  19
ENDBRANCH   9  11
ENDBRANCH   2   9
BRANCH   1  25
HETATM   25  C6  UNL     1       5.428   0.683  17.334  1.00  0.00    -0.061 C 
HETATM   26  C5  UNL     1       4.279   0.382  17.204  1.00  0.00    -0.101 C 
BRANCH  26  27
HETATM   27  C4  UNL     1       2.869   0.024  17.068  1.00  0.00     0.094 C 
BRANCH  27  28
HETATM   28  C3  UNL     1       2.671  -1.368  17.624  1.00  0.00     0.012 C 
BRANCH  28  29
HETATM   29  C2  UNL     1       3.603  -2.283  16.855  1.00  0.00    -0.004 C 
HETATM   30  C1  UNL     1       3.123  -3.705  16.805  1.00  0.00     0.005 C 
ENDBRANCH  28  29
ENDBRANCH  27  28
ENDBRANCH  26  27
ENDBRANCH   1  25
BRANCH   8  31
HETATM   31  C21 UNL     1       6.834   2.582  15.480  1.00  0.00     0.164 A 
HETATM   32  N5  UNL     1       7.218   2.280  14.183  1.00  0.00    -0.269 N 
HETATM   33  N6  UNL     1       6.550   2.995  13.319  1.00  0.00    -0.131 N 
ATOM     34  H5  UNL     1       7.929   1.591  13.936  1.00  0.00     0.189 HD
HETATM   35  C22 UNL     1       5.707   3.793  13.973  1.00  0.00     0.695 A 
ATOM     36  H6  UNL     1       6.657   2.951  12.305  1.00  0.00     0.205 HD
HETATM   37  N8  UNL     1       5.914   3.507  15.315  1.00  0.00    -0.172 N 
ATOM     38  H8  UNL     1       5.413   3.959  16.080  1.00  0.00     0.186 HD
BRANCH  35  39
HETATM   39  N7  UNL     1       4.859   4.662  13.558  1.00  0.00    -0.215 N 
ATOM     40  H7  UNL     1       4.981   5.090  12.640  1.00  0.00     0.178 HD
BRANCH  39  41
HETATM   41  C23 UNL     1       3.749   5.032  14.372  1.00  0.00     0.160 C 
HETATM   42  C24 UNL     1       4.214   5.547  15.731  1.00  0.00     0.038 C 
BRANCH  41  43
HETATM   43  C25 UNL     1       2.859   3.827  14.678  1.00  0.00     0.375 C 
HETATM   44  F2  UNL     1       2.798   3.741  16.074  1.00  0.00    -0.212 F 
HETATM   45  F3  UNL     1       1.565   4.062  14.256  1.00  0.00    -0.212 F 
ENDBRANCH  41  43
ENDBRANCH  39  41
ENDBRANCH  35  39
ENDBRANCH   8  31
TORSDOF 12
ENDMDL
