MODEL 1
REMARK VINA RESULT: -11.237789074      0.000      0.000
REMARK  9 active torsions:
REMARK  status: ('A' for Active; 'I' for Inactive)
REMARK       I    between atoms: C1_2  and  N1_3 
REMARK       I    between atoms: C1_2  and  N3_15 
REMARK    1  A    between atoms: N1_3  and  C2_5 
REMARK    2  A    between atoms: C4_7  and  C5_8 
REMARK    3  A    between atoms: C5_8  and  C6_10 
REMARK    4  A    between atoms: N3_15  and  C7_17 
REMARK    5  A    between atoms: C9_19  and  O4_20 
REMARK    6  A    between atoms: O4_20  and  C10_21 
REMARK    7  A    between atoms: C10_21  and  C11_22 
REMARK    8  A    between atoms: C17_31  and  C18_32 
REMARK    9  A    between atoms: C19_35  and  C20_36 
ROOT
HETATM    1  C7  UNL     1       7.603   0.641  18.805  1.00  0.00     0.039 A 
HETATM    2  C8  UNL     1       7.193   0.926  17.539  1.00  0.00     0.067 A 
HETATM    3  C9  UNL     1       6.079   0.276  16.982  1.00  0.00     0.088 A 
HETATM    4  C17 UNL     1       5.374  -0.662  17.688  1.00  0.00     0.080 A 
HETATM    5  C19 UNL     1       5.767  -0.970  18.967  1.00  0.00    -0.032 A 
HETATM    6  C23 UNL     1       6.851  -0.330  19.496  1.00  0.00     0.038 A 
ENDROOT
BRANCH   1   7
HETATM    7  N3  UNL     1       8.692   1.238  19.467  1.00  0.00    -0.309 N 
HETATM    8  C1  UNL     1       8.685   1.926  20.675  1.00  0.00     0.326 C 
HETATM    9  O1  UNL     1       7.643   2.093  21.343  1.00  0.00    -0.247 OA
HETATM   10  N1  UNL     1       9.925   2.479  21.202  1.00  0.00    -0.293 N 
ATOM     11  H1  UNL     1      10.205   2.232  22.150  1.00  0.00     0.172 HD
ATOM     12  H3  UNL     1       9.597   1.157  19.003  1.00  0.00     0.170 HD
BRANCH  10  13
HETATM   13  C2  UNL     1      10.674   3.256  20.531  1.00  0.00     0.132 A 
HETATM   14  C3  UNL     1      11.984   3.053  20.089  1.00  0.00     0.093 A 
HETATM   15  C4  UNL     1      12.364   4.189  19.406  1.00  0.00     0.149 A 
HETATM   16  O3  UNL     1      11.338   5.009  19.445  1.00  0.00    -0.232 OA
HETATM   17  N2  UNL     1      10.356   4.487  20.088  1.00  0.00    -0.244 N 
ATOM     18  H2  UNL     1       9.457   4.944  20.243  1.00  0.00     0.196 HD
BRANCH  15  19
HETATM   19  C5  UNL     1      13.656   4.414  18.774  1.00  0.00     0.198 C 
HETATM   20  O2  UNL     1      13.745   4.459  17.517  1.00  0.00    -0.289 OA
BRANCH  19  21
HETATM   21  C6  UNL     1      14.897   4.595  19.568  1.00  0.00     0.200 C 
HETATM   22 CL1  UNL     1      15.651   6.142  19.222  1.00  0.00    -0.122 Cl
ENDBRANCH  19  21
ENDBRANCH  15  19
ENDBRANCH  10  13
ENDBRANCH   1   7
BRANCH   3  23
HETATM   23  O4  UNL     1       5.710   0.610  15.694  1.00  0.00    -0.349 OA
BRANCH  23  24
HETATM   24  C10 UNL     1       6.056   1.852  15.168  1.00  0.00     0.183 C 
BRANCH  24  25
HETATM   25  C11 UNL     1       4.765   2.589  14.829  1.00  0.00     0.044 C 
HETATM   26  C12 UNL     1       5.109   3.799  14.027  1.00  0.00     0.015 C 
HETATM   27  C13 UNL     1       5.364   5.032  14.868  1.00  0.00     0.079 C 
HETATM   28  C14 UNL     1       4.167   5.407  15.687  1.00  0.00     0.246 C 
HETATM   29  F1  UNL     1       3.455   6.398  15.040  1.00  0.00    -0.206 F 
HETATM   30  F2  UNL     1       4.646   5.926  16.889  1.00  0.00    -0.206 F 
HETATM   31  C15 UNL     1       3.287   4.209  16.002  1.00  0.00     0.116 C 
HETATM   32  C16 UNL     1       4.092   2.961  16.152  1.00  0.00     0.181 C 
HETATM   33  F3  UNL     1       5.036   3.056  17.158  1.00  0.00    -0.249 F 
ENDBRANCH  24  25
ENDBRANCH  23  24
ENDBRANCH   3  23
BRANCH   5  34
HETATM   34  C20 UNL     1       5.014  -1.961  19.701  1.00  0.00     0.020 A 
HETATM   35  C21 UNL     1       5.536  -3.385  19.723  1.00  0.00     0.010 A 
HETATM   36  C22 UNL     1       5.459  -2.559  20.976  1.00  0.00     0.010 A 
ENDBRANCH   5  34
BRANCH   4  37
HETATM   37  C18 UNL     1       4.240  -1.322  17.109  1.00  0.00     0.212 C 
HETATM   38  O5  UNL     1       4.389  -2.402  16.506  1.00  0.00    -0.644 OA
HETATM   39  O6  UNL     1       2.975  -0.791  17.201  1.00  0.00    -0.644 OA
ENDBRANCH   4  37
TORSDOF 9
ENDMDL
MODEL 2
REMARK VINA RESULT: -10.962762646      0.951      1.328
REMARK  9 active torsions:
REMARK  status: ('A' for Active; 'I' for Inactive)
REMARK       I    between atoms: C1_2  and  N1_3 
REMARK       I    between atoms: C1_2  and  N3_15 
REMARK    1  A    between atoms: N1_3  and  C2_5 
REMARK    2  A    between atoms: C4_7  and  C5_8 
REMARK    3  A    between atoms: C5_8  and  C6_10 
REMARK    4  A    between atoms: N3_15  and  C7_17 
REMARK    5  A    between atoms: C9_19  and  O4_20 
REMARK    6  A    between atoms: O4_20  and  C10_21 
REMARK    7  A    between atoms: C10_21  and  C11_22 
REMARK    8  A    between atoms: C17_31  and  C18_32 
REMARK    9  A    between atoms: C19_35  and  C20_36 
ROOT
HETATM    1  C7  UNL     1       7.680   0.599  19.205  1.00  0.00     0.039 A 
HETATM    2  C8  UNL     1       7.272   0.687  17.909  1.00  0.00     0.067 A 
HETATM    3  C9  UNL     1       6.148  -0.028  17.461  1.00  0.00     0.088 A 
HETATM    4  C17 UNL     1       5.431  -0.832  18.306  1.00  0.00     0.080 A 
HETATM    5  C19 UNL     1       5.822  -0.940  19.618  1.00  0.00    -0.032 A 
HETATM    6  C23 UNL     1       6.916  -0.239  20.040  1.00  0.00     0.038 A 
ENDROOT
BRANCH   1   7
HETATM    7  N3  UNL     1       8.779   1.278  19.765  1.00  0.00    -0.309 N 
HETATM    8  C1  UNL     1       8.796   2.094  20.890  1.00  0.00     0.326 C 
HETATM    9  O1  UNL     1       7.771   2.321  21.565  1.00  0.00    -0.247 OA
HETATM   10  N1  UNL     1      10.042   2.716  21.315  1.00  0.00    -0.293 N 
ATOM     11  H1  UNL     1      10.352   2.578  22.277  1.00  0.00     0.172 HD
ATOM     12  H3  UNL     1       9.671   1.157  19.285  1.00  0.00     0.170 HD
BRANCH  10  13
HETATM   13  C2  UNL     1      10.760   3.423  20.542  1.00  0.00     0.132 A 
HETATM   14  C3  UNL     1      12.095   3.243  20.168  1.00  0.00     0.093 A 
HETATM   15  C4  UNL     1      12.422   4.275  19.315  1.00  0.00     0.149 A 
HETATM   16  O3  UNL     1      11.344   5.016  19.195  1.00  0.00    -0.232 OA
HETATM   17  N2  UNL     1      10.377   4.540  19.894  1.00  0.00    -0.244 N 
ATOM     18  H2  UNL     1       9.446   4.951  19.951  1.00  0.00     0.196 HD
BRANCH  15  19
HETATM   19  C5  UNL     1      13.717   4.483  18.683  1.00  0.00     0.198 C 
HETATM   20  O2  UNL     1      13.807   4.521  17.426  1.00  0.00    -0.289 OA
BRANCH  19  21
HETATM   21  C6  UNL     1      14.959   4.656  19.477  1.00  0.00     0.200 C 
HETATM   22 CL1  UNL     1      15.677   6.233  19.198  1.00  0.00    -0.122 Cl
ENDBRANCH  19  21
ENDBRANCH  15  19
ENDBRANCH  10  13
ENDBRANCH   1   7
BRANCH   3  23
HETATM   23  O4  UNL     1       5.783   0.104  16.136  1.00  0.00    -0.349 OA
BRANCH  23  24
HETATM   24  C10 UNL     1       4.653   0.842  15.793  1.00  0.00     0.183 C 
BRANCH  24  25
HETATM   25  C11 UNL     1       4.849   2.261  16.316  1.00  0.00     0.044 C 
HETATM   26  C12 UNL     1       3.514   2.921  16.401  1.00  0.00     0.015 C 
HETATM   27  C13 UNL     1       3.115   3.650  15.135  1.00  0.00     0.079 C 
HETATM   28  C14 UNL     1       4.088   4.732  14.783  1.00  0.00     0.246 C 
HETATM   29  F1  UNL     1       3.614   5.947  15.239  1.00  0.00    -0.206 F 
HETATM   30  F2  UNL     1       4.151   4.781  13.390  1.00  0.00    -0.206 F 
HETATM   31  C15 UNL     1       5.482   4.448  15.313  1.00  0.00     0.116 C 
HETATM   32  C16 UNL     1       5.774   2.984  15.334  1.00  0.00     0.181 C 
HETATM   33  F3  UNL     1       5.684   2.408  14.079  1.00  0.00    -0.249 F 
ENDBRANCH  24  25
ENDBRANCH  23  24
ENDBRANCH   3  23
BRANCH   5  34
HETATM   34  C20 UNL     1       5.056  -1.791  20.499  1.00  0.00     0.020 A 
HETATM   35  C21 UNL     1       5.501  -3.232  20.666  1.00  0.00     0.010 A 
HETATM   36  C22 UNL     1       5.535  -2.262  21.814  1.00  0.00     0.010 A 
ENDBRANCH   5  34
BRANCH   4  37
HETATM   37  C18 UNL     1       4.287  -1.559  17.838  1.00  0.00     0.212 C 
HETATM   38  O5  UNL     1       4.439  -2.647  17.249  1.00  0.00    -0.644 OA
HETATM   39  O6  UNL     1       3.009  -1.085  18.022  1.00  0.00    -0.644 OA
ENDBRANCH   4  37
TORSDOF 9
ENDMDL
MODEL 3
REMARK VINA RESULT: -10.852306133      1.585      1.910
REMARK  9 active torsions:
REMARK  status: ('A' for Active; 'I' for Inactive)
REMARK       I    between atoms: C1_2  and  N1_3 
REMARK       I    between atoms: C1_2  and  N3_15 
REMARK    1  A    between atoms: N1_3  and  C2_5 
REMARK    2  A    between atoms: C4_7  and  C5_8 
REMARK    3  A    between atoms: C5_8  and  C6_10 
REMARK    4  A    between atoms: N3_15  and  C7_17 
REMARK    5  A    between atoms: C9_19  and  O4_20 
REMARK    6  A    between atoms: O4_20  and  C10_21 
REMARK    7  A    between atoms: C10_21  and  C11_22 
REMARK    8  A    between atoms: C17_31  and  C18_32 
REMARK    9  A    between atoms: C19_35  and  C20_36 
ROOT
HETATM    1  C7  UNL     1       8.748   1.384  20.065  1.00  0.00     0.039 A 
HETATM    2  C8  UNL     1       8.442   1.351  18.740  1.00  0.00     0.067 A 
HETATM    3  C9  UNL     1       7.226   0.803  18.299  1.00  0.00     0.088 A 
HETATM    4  C17 UNL     1       6.315   0.286  19.180  1.00  0.00     0.080 A 
HETATM    5  C19 UNL     1       6.599   0.306  20.523  1.00  0.00    -0.032 A 
HETATM    6  C23 UNL     1       7.785   0.842  20.939  1.00  0.00     0.038 A 
ENDROOT
BRANCH   1   7
HETATM    7  N3  UNL     1       9.926   1.920  20.620  1.00  0.00    -0.309 N 
HETATM    8  C1  UNL     1      10.048   2.995  21.493  1.00  0.00     0.326 C 
HETATM    9  O1  UNL     1       9.059   3.637  21.903  1.00  0.00    -0.247 OA
HETATM   10  N1  UNL     1      11.365   3.405  21.959  1.00  0.00    -0.293 N 
ATOM     11  H1  UNL     1      11.526   3.478  22.964  1.00  0.00     0.172 HD
ATOM     12  H3  UNL     1      10.797   1.463  20.348  1.00  0.00     0.170 HD
BRANCH  10  13
HETATM   13  C2  UNL     1      12.323   3.675  21.170  1.00  0.00     0.132 A 
HETATM   14  C3  UNL     1      12.290   4.329  19.935  1.00  0.00     0.093 A 
HETATM   15  C4  UNL     1      13.585   4.377  19.465  1.00  0.00     0.149 A 
HETATM   16  O3  UNL     1      14.333   3.787  20.370  1.00  0.00    -0.232 OA
HETATM   17  N2  UNL     1      13.623   3.378  21.359  1.00  0.00    -0.244 N 
ATOM     18  H2  UNL     1      13.993   2.893  22.177  1.00  0.00     0.196 HD
BRANCH  15  19
HETATM   19  C5  UNL     1      14.016   4.970  18.207  1.00  0.00     0.198 C 
HETATM   20  O2  UNL     1      13.772   4.386  17.117  1.00  0.00    -0.289 OA
BRANCH  19  21
HETATM   21  C6  UNL     1      14.747   6.261  18.159  1.00  0.00     0.200 C 
HETATM   22 CL1  UNL     1      16.029   6.310  19.356  1.00  0.00    -0.122 Cl
ENDBRANCH  19  21
ENDBRANCH  15  19
ENDBRANCH  10  13
ENDBRANCH   1   7
BRANCH   3  23
HETATM   23  O4  UNL     1       6.971   0.800  16.941  1.00  0.00    -0.349 OA
BRANCH  23  24
HETATM   24  C10 UNL     1       6.979   1.995  16.226  1.00  0.00     0.183 C 
BRANCH  24  25
HETATM   25  C11 UNL     1       5.729   2.021  15.353  1.00  0.00     0.044 C 
HETATM   26  C12 UNL     1       5.981   2.929  14.196  1.00  0.00     0.015 C 
HETATM   27  C13 UNL     1       5.594   4.369  14.459  1.00  0.00     0.079 C 
HETATM   28  C14 UNL     1       4.136   4.505  14.780  1.00  0.00     0.246 C 
HETATM   29  F1  UNL     1       3.444   4.871  13.642  1.00  0.00    -0.206 F 
HETATM   30  F2  UNL     1       4.023   5.536  15.712  1.00  0.00    -0.206 F 
HETATM   31  C15 UNL     1       3.562   3.241  15.395  1.00  0.00     0.116 C 
HETATM   32  C16 UNL     1       4.576   2.523  16.224  1.00  0.00     0.181 C 
HETATM   33  F3  UNL     1       5.062   3.303  17.258  1.00  0.00    -0.249 F 
ENDBRANCH  24  25
ENDBRANCH  23  24
ENDBRANCH   3  23
BRANCH   5  34
HETATM   34  C20 UNL     1       5.629  -0.243  21.442  1.00  0.00     0.020 A 
HETATM   35  C21 UNL     1       5.896  -1.616  22.030  1.00  0.00     0.010 A 
HETATM   36  C22 UNL     1       5.857  -0.386  22.895  1.00  0.00     0.010 A 
ENDBRANCH   5  34
BRANCH   4  37
HETATM   37  C18 UNL     1       5.077  -0.274  18.718  1.00  0.00     0.212 C 
HETATM   38  O5  UNL     1       5.045  -1.444  18.293  1.00  0.00    -0.644 OA
HETATM   39  O6  UNL     1       3.910   0.453  18.732  1.00  0.00    -0.644 OA
ENDBRANCH   4  37
TORSDOF 9
ENDMDL
MODEL 4
REMARK VINA RESULT: -10.835405629      3.017      5.991
REMARK  9 active torsions:
REMARK  status: ('A' for Active; 'I' for Inactive)
REMARK       I    between atoms: C1_2  and  N1_3 
REMARK       I    between atoms: C1_2  and  N3_15 
REMARK    1  A    between atoms: N1_3  and  C2_5 
REMARK    2  A    between atoms: C4_7  and  C5_8 
REMARK    3  A    between atoms: C5_8  and  C6_10 
REMARK    4  A    between atoms: N3_15  and  C7_17 
REMARK    5  A    between atoms: C9_19  and  O4_20 
REMARK    6  A    between atoms: O4_20  and  C10_21 
REMARK    7  A    between atoms: C10_21  and  C11_22 
REMARK    8  A    between atoms: C17_31  and  C18_32 
REMARK    9  A    between atoms: C19_35  and  C20_36 
ROOT
HETATM    1  C7  UNL     1       7.867   1.110  18.815  1.00  0.00     0.039 A 
HETATM    2  C8  UNL     1       7.094   0.144  19.383  1.00  0.00     0.067 A 
HETATM    3  C9  UNL     1       5.959  -0.349  18.718  1.00  0.00     0.088 A 
HETATM    4  C17 UNL     1       5.593   0.123  17.486  1.00  0.00     0.080 A 
HETATM    5  C19 UNL     1       6.355   1.098  16.891  1.00  0.00    -0.032 A 
HETATM    6  C23 UNL     1       7.456   1.569  17.548  1.00  0.00     0.038 A 
ENDROOT
BRANCH   1   7
HETATM    7  N3  UNL     1       9.030   1.666  19.382  1.00  0.00    -0.309 N 
HETATM    8  C1  UNL     1       9.158   2.320  20.601  1.00  0.00     0.326 C 
HETATM    9  O1  UNL     1       8.192   2.491  21.372  1.00  0.00    -0.247 OA
HETATM   10  N1  UNL     1      10.457   2.832  21.017  1.00  0.00    -0.293 N 
ATOM     11  H1  UNL     1      10.823   2.553  21.927  1.00  0.00     0.172 HD
ATOM     12  H3  UNL     1       9.883   1.579  18.828  1.00  0.00     0.170 HD
BRANCH  10  13
HETATM   13  C2  UNL     1      11.155   3.611  20.295  1.00  0.00     0.132 A 
HETATM   14  C3  UNL     1      12.467   3.453  19.840  1.00  0.00     0.093 A 
HETATM   15  C4  UNL     1      12.778   4.570  19.095  1.00  0.00     0.149 A 
HETATM   16  O3  UNL     1      11.711   5.338  19.112  1.00  0.00    -0.232 OA
HETATM   17  N2  UNL     1      10.767   4.801  19.798  1.00  0.00    -0.244 N 
ATOM     18  H2  UNL     1       9.849   5.219  19.945  1.00  0.00     0.196 HD
BRANCH  15  19
HETATM   19  C5  UNL     1      14.047   4.828  18.430  1.00  0.00     0.198 C 
HETATM   20  O2  UNL     1      14.128   4.751  17.175  1.00  0.00    -0.289 OA
BRANCH  19  21
HETATM   21  C6  UNL     1      15.272   5.184  19.189  1.00  0.00     0.200 C 
HETATM   22 CL1  UNL     1      15.821   3.840  20.175  1.00  0.00    -0.122 Cl
ENDBRANCH  19  21
ENDBRANCH  15  19
ENDBRANCH  10  13
ENDBRANCH   1   7
BRANCH   3  23
HETATM   23  O4  UNL     1       5.217  -1.330  19.345  1.00  0.00    -0.349 OA
BRANCH  23  24
HETATM   24  C10 UNL     1       4.739  -1.127  20.637  1.00  0.00     0.183 C 
BRANCH  24  25
HETATM   25  C11 UNL     1       5.321  -2.221  21.525  1.00  0.00     0.044 C 
HETATM   26  C12 UNL     1       5.521  -3.445  20.697  1.00  0.00     0.015 C 
HETATM   27  C13 UNL     1       4.321  -4.368  20.677  1.00  0.00     0.079 C 
HETATM   28  C14 UNL     1       3.967  -4.853  22.049  1.00  0.00     0.246 C 
HETATM   29  F1  UNL     1       4.513  -6.105  22.252  1.00  0.00    -0.206 F 
HETATM   30  F2  UNL     1       2.578  -4.968  22.091  1.00  0.00    -0.206 F 
HETATM   31  C15 UNL     1       4.397  -3.879  23.132  1.00  0.00     0.116 C 
HETATM   32  C16 UNL     1       4.324  -2.465  22.660  1.00  0.00     0.181 C 
HETATM   33  F3  UNL     1       3.049  -2.104  22.262  1.00  0.00    -0.249 F 
ENDBRANCH  24  25
ENDBRANCH  23  24
ENDBRANCH   3  23
BRANCH   5  34
HETATM   34  C20 UNL     1       5.957   1.586  15.591  1.00  0.00     0.020 A 
HETATM   35  C21 UNL     1       5.316   2.959  15.507  1.00  0.00     0.010 A 
HETATM   36  C22 UNL     1       6.649   2.675  14.871  1.00  0.00     0.010 A 
ENDBRANCH   5  34
BRANCH   4  37
HETATM   37  C18 UNL     1       4.431  -0.386  16.817  1.00  0.00     0.212 C 
HETATM   38  O5  UNL     1       4.480  -1.486  16.236  1.00  0.00    -0.644 OA
HETATM   39  O6  UNL     1       3.248   0.315  16.800  1.00  0.00    -0.644 OA
ENDBRANCH   4  37
TORSDOF 9
ENDMDL
MODEL 5
REMARK VINA RESULT: -10.785931773      3.090      5.926
REMARK  9 active torsions:
REMARK  status: ('A' for Active; 'I' for Inactive)
REMARK       I    between atoms: C1_2  and  N1_3 
REMARK       I    between atoms: C1_2  and  N3_15 
REMARK    1  A    between atoms: N1_3  and  C2_5 
REMARK    2  A    between atoms: C4_7  and  C5_8 
REMARK    3  A    between atoms: C5_8  and  C6_10 
REMARK    4  A    between atoms: N3_15  and  C7_17 
REMARK    5  A    between atoms: C9_19  and  O4_20 
REMARK    6  A    between atoms: O4_20  and  C10_21 
REMARK    7  A    between atoms: C10_21  and  C11_22 
REMARK    8  A    between atoms: C17_31  and  C18_32 
REMARK    9  A    between atoms: C19_35  and  C20_36 
ROOT
HETATM    1  C7  UNL     1       7.818   2.019  17.344  1.00  0.00     0.039 A 
HETATM    2  C8  UNL     1       7.082   1.429  18.325  1.00  0.00     0.067 A 
HETATM    3  C9  UNL     1       5.699   1.240  18.169  1.00  0.00     0.088 A 
HETATM    4  C17 UNL     1       5.048   1.642  17.033  1.00  0.00     0.080 A 
HETATM    5  C19 UNL     1       5.767   2.241  16.028  1.00  0.00    -0.032 A 
HETATM    6  C23 UNL     1       7.111   2.418  16.193  1.00  0.00     0.038 A 
ENDROOT
BRANCH   1   7
HETATM    7  N3  UNL     1       9.207   2.245  17.387  1.00  0.00    -0.309 N 
HETATM    8  C1  UNL     1      10.145   1.652  18.224  1.00  0.00     0.326 C 
HETATM    9  O1  UNL     1       9.831   0.800  19.080  1.00  0.00    -0.247 OA
HETATM   10  N1  UNL     1      11.550   2.022  18.117  1.00  0.00    -0.293 N 
ATOM     11  H1  UNL     1      12.239   1.283  17.985  1.00  0.00     0.172 HD
ATOM     12  H3  UNL     1       9.570   2.929  16.721  1.00  0.00     0.170 HD
BRANCH  10  13
HETATM   13  C2  UNL     1      11.953   3.225  18.181  1.00  0.00     0.132 A 
HETATM   14  C3  UNL     1      13.202   3.755  17.843  1.00  0.00     0.093 A 
HETATM   15  C4  UNL     1      13.151   5.109  18.092  1.00  0.00     0.149 A 
HETATM   16  O3  UNL     1      11.944   5.359  18.548  1.00  0.00    -0.232 OA
HETATM   17  N2  UNL     1      11.241   4.286  18.605  1.00  0.00    -0.244 N 
ATOM     18  H2  UNL     1      10.274   4.243  18.927  1.00  0.00     0.196 HD
BRANCH  15  19
HETATM   19  C5  UNL     1      14.235   6.058  17.884  1.00  0.00     0.198 C 
HETATM   20  O2  UNL     1      14.204   6.847  16.901  1.00  0.00    -0.289 OA
BRANCH  19  21
HETATM   21  C6  UNL     1      15.398   6.134  18.804  1.00  0.00     0.200 C 
HETATM   22 CL1  UNL     1      15.491   4.712  19.827  1.00  0.00    -0.122 Cl
ENDBRANCH  19  21
ENDBRANCH  15  19
ENDBRANCH  10  13
ENDBRANCH   1   7
BRANCH   3  23
HETATM   23  O4  UNL     1       5.007   0.634  19.199  1.00  0.00    -0.349 OA
BRANCH  23  24
HETATM   24  C10 UNL     1       5.592  -0.408  19.915  1.00  0.00     0.183 C 
BRANCH  24  25
HETATM   25  C11 UNL     1       4.474  -1.327  20.395  1.00  0.00     0.044 C 
HETATM   26  C12 UNL     1       4.723  -1.665  21.825  1.00  0.00     0.015 C 
HETATM   27  C13 UNL     1       5.565  -2.909  22.018  1.00  0.00     0.079 C 
HETATM   28  C14 UNL     1       4.919  -4.119  21.414  1.00  0.00     0.246 C 
HETATM   29  F1  UNL     1       4.247  -4.822  22.394  1.00  0.00    -0.206 F 
HETATM   30  F2  UNL     1       5.948  -4.924  20.925  1.00  0.00    -0.206 F 
HETATM   31  C15 UNL     1       4.001  -3.765  20.258  1.00  0.00     0.116 C 
HETATM   32  C16 UNL     1       4.496  -2.573  19.507  1.00  0.00     0.181 C 
HETATM   33  F3  UNL     1       5.763  -2.765  18.985  1.00  0.00    -0.249 F 
ENDBRANCH  24  25
ENDBRANCH  23  24
ENDBRANCH   3  23
BRANCH   5  34
HETATM   34  C20 UNL     1       5.068   2.659  14.835  1.00  0.00     0.020 A 
HETATM   35  C21 UNL     1       4.813   4.141  14.637  1.00  0.00     0.010 A 
HETATM   36  C22 UNL     1       5.708   3.370  13.709  1.00  0.00     0.010 A 
ENDBRANCH   5  34
BRANCH   4  37
HETATM   37  C18 UNL     1       3.635   1.447  16.885  1.00  0.00     0.212 C 
HETATM   38  O5  UNL     1       3.187   0.312  16.633  1.00  0.00    -0.644 OA
HETATM   39  O6  UNL     1       2.748   2.489  17.015  1.00  0.00    -0.644 OA
ENDBRANCH   4  37
TORSDOF 9
ENDMDL
