MODEL 1
REMARK VINA RESULT: -9.557991155      0.000      0.000
REMARK  10 active torsions:
REMARK  status: ('A' for Active; 'I' for Inactive)
REMARK    1  A    between atoms: O1_2  and  C2_3 
REMARK    2  A    between atoms: C6_8  and  C7_9 
REMARK    3  A    between atoms: C19_22  and  C20_23 
REMARK    4  A    between atoms: C22_27  and  C23_28 
REMARK    5  A    between atoms: C23_28  and  C24_29 
REMARK    6  A    between atoms: C24_29  and  O3_30 
REMARK    7  A    between atoms: C24_29  and  C25_32 
REMARK    8  A    between atoms: C25_32  and  O4_33 
REMARK    9  A    between atoms: C25_32  and  C26_35 
REMARK   10  A    between atoms: C26_35  and  O5_36 
ROOT
HETATM    1  C7  UNL     1       6.495   0.489  18.070  1.00  0.00     0.102 C 
HETATM    2  C8  UNL     1       5.935  -0.871  17.794  1.00  0.00     0.054 C 
HETATM    3  C9  UNL     1       4.771  -1.410  18.515  1.00  0.00    -0.032 C 
HETATM    4  C10 UNL     1       3.535  -1.536  17.608  1.00  0.00     0.016 C 
HETATM    5  C11 UNL     1       4.851  -2.591  19.362  1.00  0.00     0.008 C 
HETATM    6  C12 UNL     1       5.468  -3.695  18.461  1.00  0.00     0.012 C 
HETATM    7  C13 UNL     1       5.479  -2.731  20.639  1.00  0.00     0.086 C 
HETATM    8 CL1  UNL     1       4.981  -4.381  21.230  1.00  0.00    -0.125 Cl
HETATM    9  C14 UNL     1       5.267  -1.865  21.808  1.00  0.00     0.021 C 
HETATM   10  C15 UNL     1       5.678  -0.391  21.606  1.00  0.00     0.007 C 
HETATM   11  C16 UNL     1       5.651  -0.172  20.194  1.00  0.00    -0.002 C 
HETATM   12  C17 UNL     1       6.345   0.985  19.499  1.00  0.00     0.034 C 
HETATM   13  C18 UNL     1       7.583   1.294  20.231  1.00  0.00     0.047 C 
HETATM   14  C19 UNL     1       8.681   1.891  19.429  1.00  0.00    -0.029 C 
HETATM   15  C21 UNL     1       8.836   1.329  18.234  1.00  0.00     0.141 C 
HETATM   16  O2  UNL     1       7.942   0.310  17.986  1.00  0.00    -0.346 OA
HETATM   17  C22 UNL     1       4.383  -0.273  19.513  1.00  0.00     0.001 C 
ENDROOT
BRANCH   1  18
HETATM   18  C6  UNL     1       6.242   1.496  17.031  1.00  0.00     0.019 A 
HETATM   19  C5  UNL     1       7.098   1.909  16.049  1.00  0.00     0.016 A 
HETATM   20  C4  UNL     1       6.789   2.883  15.107  1.00  0.00     0.046 A 
HETATM   21  C3  UNL     1       5.571   3.482  15.138  1.00  0.00     0.152 A 
HETATM   22  C2  UNL     1       4.681   3.102  16.101  1.00  0.00     0.146 A 
HETATM   23  F1  UNL     1       5.290   4.438  14.202  1.00  0.00    -0.203 F 
HETATM   24  C27 UNL     1       5.007   2.117  17.044  1.00  0.00     0.162 A 
HETATM   25  F3  UNL     1       3.993   1.832  17.909  1.00  0.00    -0.202 F 
BRANCH  22  26
HETATM   26  O1  UNL     1       3.438   3.717  16.127  1.00  0.00    -0.350 OA
HETATM   27  C1  UNL     1       2.459   3.521  15.144  1.00  0.00     0.210 C 
ENDBRANCH  22  26
ENDBRANCH   1  18
BRANCH  17  28
HETATM   28  C23 UNL     1       3.072  -0.521  20.086  1.00  0.00     0.040 C 
BRANCH  28  29
HETATM   29  C24 UNL     1       2.435   0.519  20.956  1.00  0.00     0.149 C 
BRANCH  29  30
HETATM   30  O3  UNL     1       1.725   1.458  20.164  1.00  0.00    -0.393 OA
ATOM     31  H3  UNL     1       1.703   2.304  20.596  1.00  0.00     0.210 HD
ENDBRANCH  29  30
BRANCH  29  32
HETATM   32  C25 UNL     1       1.424  -0.126  21.918  1.00  0.00     0.170 C 
BRANCH  32  33
HETATM   33  O4  UNL     1       2.158  -0.689  22.949  1.00  0.00    -0.391 OA
ATOM     34  H4  UNL     1       2.695   0.004  23.314  1.00  0.00     0.210 HD
ENDBRANCH  32  33
BRANCH  32  35
HETATM   35  C26 UNL     1       0.379   0.793  22.416  1.00  0.00     0.198 C 
BRANCH  35  36
HETATM   36  O5  UNL     1      -0.624   1.012  21.435  1.00  0.00    -0.398 OA
ATOM     37  H5  UNL     1      -1.150   1.774  21.644  1.00  0.00     0.209 HD
ENDBRANCH  35  36
ENDBRANCH  32  35
ENDBRANCH  29  32
ENDBRANCH  28  29
ENDBRANCH  17  28
BRANCH  14  38
HETATM   38  C20 UNL     1       9.507   2.991  19.911  1.00  0.00     0.258 C 
HETATM   39  F2  UNL     1       9.273   3.122  21.284  1.00  0.00    -0.251 F 
ENDBRANCH  14  38
TORSDOF 10
ENDMDL
MODEL 2
REMARK VINA RESULT: -8.517469458      2.898      5.387
REMARK  10 active torsions:
REMARK  status: ('A' for Active; 'I' for Inactive)
REMARK    1  A    between atoms: O1_2  and  C2_3 
REMARK    2  A    between atoms: C6_8  and  C7_9 
REMARK    3  A    between atoms: C19_22  and  C20_23 
REMARK    4  A    between atoms: C22_27  and  C23_28 
REMARK    5  A    between atoms: C23_28  and  C24_29 
REMARK    6  A    between atoms: C24_29  and  O3_30 
REMARK    7  A    between atoms: C24_29  and  C25_32 
REMARK    8  A    between atoms: C25_32  and  O4_33 
REMARK    9  A    between atoms: C25_32  and  C26_35 
REMARK   10  A    between atoms: C26_35  and  O5_36 
ROOT
HETATM    1  C7  UNL     1       4.066  -0.553  19.830  1.00  0.00     0.102 C 
HETATM    2  C8  UNL     1       3.286   0.418  20.659  1.00  0.00     0.054 C 
HETATM    3  C9  UNL     1       3.314   0.406  22.130  1.00  0.00    -0.032 C 
HETATM    4  C10 UNL     1       4.033   1.637  22.707  1.00  0.00     0.016 C 
HETATM    5  C11 UNL     1       2.132   0.135  22.935  1.00  0.00     0.008 C 
HETATM    6  C12 UNL     1       1.064   1.147  22.440  1.00  0.00     0.012 C 
HETATM    7  C13 UNL     1       1.443  -1.104  23.118  1.00  0.00     0.086 C 
HETATM    8 CL1  UNL     1       0.226  -0.777  24.433  1.00  0.00    -0.125 Cl
HETATM    9  C14 UNL     1       2.050  -2.382  23.520  1.00  0.00     0.021 C 
HETATM   10  C15 UNL     1       3.094  -2.942  22.530  1.00  0.00     0.007 C 
HETATM   11  C16 UNL     1       3.558  -1.818  21.779  1.00  0.00    -0.002 C 
HETATM   12  C17 UNL     1       4.285  -1.922  20.451  1.00  0.00     0.034 C 
HETATM   13  C18 UNL     1       3.749  -3.080  19.718  1.00  0.00     0.047 C 
HETATM   14  C19 UNL     1       3.819  -3.000  18.237  1.00  0.00    -0.029 C 
HETATM   15  C21 UNL     1       3.499  -1.805  17.750  1.00  0.00     0.141 C 
HETATM   16  O2  UNL     1       3.172  -0.885  18.724  1.00  0.00    -0.346 OA
HETATM   17  C22 UNL     1       4.272  -0.778  22.481  1.00  0.00     0.001 C 
ENDROOT
BRANCH   1  18
HETATM   18  C6  UNL     1       5.231   0.009  19.133  1.00  0.00     0.019 A 
HETATM   19  C5  UNL     1       6.539  -0.356  19.277  1.00  0.00     0.016 A 
HETATM   20  C4  UNL     1       7.593   0.237  18.590  1.00  0.00     0.046 A 
HETATM   21  C3  UNL     1       7.338   1.245  17.717  1.00  0.00     0.152 A 
HETATM   22  C2  UNL     1       6.045   1.645  17.539  1.00  0.00     0.146 A 
HETATM   23  F1  UNL     1       8.390   1.813  17.054  1.00  0.00    -0.203 F 
HETATM   24  C27 UNL     1       4.994   1.036  18.239  1.00  0.00     0.162 A 
HETATM   25  F3  UNL     1       3.765   1.530  17.916  1.00  0.00    -0.202 F 
BRANCH  22  26
HETATM   26  O1  UNL     1       5.793   2.675  16.645  1.00  0.00    -0.350 OA
HETATM   27  C1  UNL     1       5.627   2.478  15.267  1.00  0.00     0.210 C 
ENDBRANCH  22  26
ENDBRANCH   1  18
BRANCH  17  28
HETATM   28  C23 UNL     1       4.647  -0.733  23.883  1.00  0.00     0.040 C 
BRANCH  28  29
HETATM   29  C24 UNL     1       5.688  -1.678  24.402  1.00  0.00     0.149 C 
BRANCH  29  30
HETATM   30  O3  UNL     1       6.931  -1.011  24.547  1.00  0.00    -0.393 OA
ATOM     31  H3  UNL     1       6.794  -0.077  24.658  1.00  0.00     0.210 HD
ENDBRANCH  29  30
BRANCH  29  32
HETATM   32  C25 UNL     1       5.290  -2.214  25.786  1.00  0.00     0.170 C 
BRANCH  32  33
HETATM   33  O4  UNL     1       4.138  -1.541  26.159  1.00  0.00    -0.391 OA
ATOM     34  H4  UNL     1       3.755  -2.031  26.877  1.00  0.00     0.210 HD
ENDBRANCH  32  33
BRANCH  32  35
HETATM   35  C26 UNL     1       5.124  -3.682  25.851  1.00  0.00     0.198 C 
BRANCH  35  36
HETATM   36  O5  UNL     1       5.987  -4.256  26.821  1.00  0.00    -0.398 OA
ATOM     37  H5  UNL     1       5.559  -4.325  27.665  1.00  0.00     0.209 HD
ENDBRANCH  35  36
ENDBRANCH  32  35
ENDBRANCH  29  32
ENDBRANCH  28  29
ENDBRANCH  17  28
BRANCH  14  38
HETATM   38  C20 UNL     1       4.204  -4.130  17.398  1.00  0.00     0.258 C 
HETATM   39  F2  UNL     1       3.868  -3.808  16.080  1.00  0.00    -0.251 F 
ENDBRANCH  14  38
TORSDOF 10
ENDMDL
MODEL 3
REMARK VINA RESULT: -8.464695473      2.521      5.730
REMARK  10 active torsions:
REMARK  status: ('A' for Active; 'I' for Inactive)
REMARK    1  A    between atoms: O1_2  and  C2_3 
REMARK    2  A    between atoms: C6_8  and  C7_9 
REMARK    3  A    between atoms: C19_22  and  C20_23 
REMARK    4  A    between atoms: C22_27  and  C23_28 
REMARK    5  A    between atoms: C23_28  and  C24_29 
REMARK    6  A    between atoms: C24_29  and  O3_30 
REMARK    7  A    between atoms: C24_29  and  C25_32 
REMARK    8  A    between atoms: C25_32  and  O4_33 
REMARK    9  A    between atoms: C25_32  and  C26_35 
REMARK   10  A    between atoms: C26_35  and  O5_36 
ROOT
HETATM    1  C7  UNL     1       6.002  -0.047  20.352  1.00  0.00     0.102 C 
HETATM    2  C8  UNL     1       6.215  -1.283  19.536  1.00  0.00     0.054 C 
HETATM    3  C9  UNL     1       5.783  -1.392  18.134  1.00  0.00    -0.032 C 
HETATM    4  C10 UNL     1       6.974  -1.446  17.162  1.00  0.00     0.016 C 
HETATM    5  C11 UNL     1       4.778  -2.350  17.695  1.00  0.00     0.008 C 
HETATM    6  C12 UNL     1       5.286  -3.729  18.196  1.00  0.00     0.012 C 
HETATM    7  C13 UNL     1       3.370  -2.338  17.940  1.00  0.00     0.086 C 
HETATM    8 CL1  UNL     1       2.700  -3.675  16.899  1.00  0.00    -0.125 Cl
HETATM    9  C14 UNL     1       2.455  -1.214  17.690  1.00  0.00     0.021 C 
HETATM   10  C15 UNL     1       2.755   0.059  18.511  1.00  0.00     0.007 C 
HETATM   11  C16 UNL     1       4.132  -0.035  18.881  1.00  0.00    -0.002 C 
HETATM   12  C17 UNL     1       4.769   0.769  20.000  1.00  0.00     0.034 C 
HETATM   13  C18 UNL     1       3.770   0.958  21.064  1.00  0.00     0.047 C 
HETATM   14  C19 UNL     1       4.307   1.119  22.439  1.00  0.00    -0.029 C 
HETATM   15  C21 UNL     1       5.308   0.290  22.722  1.00  0.00     0.141 C 
HETATM   16  O2  UNL     1       5.642  -0.544  21.676  1.00  0.00    -0.346 OA
HETATM   17  C22 UNL     1       5.123  -0.009  17.832  1.00  0.00     0.001 C 
ENDROOT
BRANCH   1  18
HETATM   18  C6  UNL     1       7.211   0.740  20.629  1.00  0.00     0.019 A 
HETATM   19  C5  UNL     1       7.917   0.794  21.798  1.00  0.00     0.016 A 
HETATM   20  C4  UNL     1       9.048   1.579  21.988  1.00  0.00     0.046 A 
HETATM   21  C3  UNL     1       9.505   2.351  20.970  1.00  0.00     0.152 A 
HETATM   22  C2  UNL     1       8.833   2.331  19.782  1.00  0.00     0.146 A 
HETATM   23  F1  UNL     1      10.619   3.116  21.181  1.00  0.00    -0.203 F 
HETATM   24  C27 UNL     1       7.694   1.533  19.605  1.00  0.00     0.162 A 
HETATM   25  F3  UNL     1       7.168   1.602  18.350  1.00  0.00    -0.202 F 
BRANCH  22  26
HETATM   26  O1  UNL     1       9.306   3.122  18.745  1.00  0.00    -0.350 OA
HETATM   27  C1  UNL     1      10.340   2.731  17.884  1.00  0.00     0.210 C 
ENDBRANCH  22  26
ENDBRANCH   1  18
BRANCH  17  28
HETATM   28  C23 UNL     1       4.916   0.158  16.405  1.00  0.00     0.040 C 
BRANCH  28  29
HETATM   29  C24 UNL     1       4.975   1.529  15.803  1.00  0.00     0.149 C 
BRANCH  29  30
HETATM   30  O3  UNL     1       4.691   2.512  16.786  1.00  0.00    -0.393 OA
ATOM     31  H3  UNL     1       5.495   2.815  17.192  1.00  0.00     0.210 HD
ENDBRANCH  29  30
BRANCH  29  32
HETATM   32  C25 UNL     1       6.382   1.820  15.257  1.00  0.00     0.170 C 
BRANCH  32  33
HETATM   33  O4  UNL     1       6.663   0.830  14.330  1.00  0.00    -0.391 OA
ATOM     34  H4  UNL     1       7.487   0.436  14.591  1.00  0.00     0.210 HD
ENDBRANCH  32  33
BRANCH  32  35
HETATM   35  C26 UNL     1       6.552   3.176  14.692  1.00  0.00     0.198 C 
BRANCH  35  36
HETATM   36  O5  UNL     1       7.772   3.286  13.974  1.00  0.00    -0.398 OA
ATOM     37  H5  UNL     1       8.516   3.083  14.527  1.00  0.00     0.209 HD
ENDBRANCH  35  36
ENDBRANCH  32  35
ENDBRANCH  29  32
ENDBRANCH  28  29
ENDBRANCH  17  28
BRANCH  14  38
HETATM   38  C20 UNL     1       3.783   2.096  23.386  1.00  0.00     0.258 C 
HETATM   39  F2  UNL     1       2.719   2.756  22.763  1.00  0.00    -0.251 F 
ENDBRANCH  14  38
TORSDOF 10
ENDMDL
MODEL 4
REMARK VINA RESULT: -8.353190156      2.826      5.599
REMARK  10 active torsions:
REMARK  status: ('A' for Active; 'I' for Inactive)
REMARK    1  A    between atoms: O1_2  and  C2_3 
REMARK    2  A    between atoms: C6_8  and  C7_9 
REMARK    3  A    between atoms: C19_22  and  C20_23 
REMARK    4  A    between atoms: C22_27  and  C23_28 
REMARK    5  A    between atoms: C23_28  and  C24_29 
REMARK    6  A    between atoms: C24_29  and  O3_30 
REMARK    7  A    between atoms: C24_29  and  C25_32 
REMARK    8  A    between atoms: C25_32  and  O4_33 
REMARK    9  A    between atoms: C25_32  and  C26_35 
REMARK   10  A    between atoms: C26_35  and  O5_36 
ROOT
HETATM    1  C7  UNL     1       3.669  -0.519  19.575  1.00  0.00     0.102 C 
HETATM    2  C8  UNL     1       2.846   0.336  20.486  1.00  0.00     0.054 C 
HETATM    3  C9  UNL     1       3.013   0.326  21.949  1.00  0.00    -0.032 C 
HETATM    4  C10 UNL     1       3.609   1.644  22.473  1.00  0.00     0.016 C 
HETATM    5  C11 UNL     1       1.959  -0.103  22.856  1.00  0.00     0.008 C 
HETATM    6  C12 UNL     1       0.722   0.755  22.475  1.00  0.00     0.012 C 
HETATM    7  C13 UNL     1       1.464  -1.425  23.085  1.00  0.00     0.086 C 
HETATM    8 CL1  UNL     1       0.341  -1.267  24.511  1.00  0.00    -0.125 Cl
HETATM    9  C14 UNL     1       2.273  -2.609  23.411  1.00  0.00     0.021 C 
HETATM   10  C15 UNL     1       3.286  -3.021  22.321  1.00  0.00     0.007 C 
HETATM   11  C16 UNL     1       3.521  -1.843  21.546  1.00  0.00    -0.002 C 
HETATM   12  C17 UNL     1       4.128  -1.846  20.155  1.00  0.00     0.034 C 
HETATM   13  C18 UNL     1       3.688  -3.066  19.459  1.00  0.00     0.047 C 
HETATM   14  C19 UNL     1       3.608  -2.975  17.979  1.00  0.00    -0.029 C 
HETATM   15  C21 UNL     1       3.085  -1.834  17.541  1.00  0.00     0.141 C 
HETATM   16  O2  UNL     1       2.729  -0.969  18.553  1.00  0.00    -0.346 OA
HETATM   17  C22 UNL     1       4.150  -0.716  22.193  1.00  0.00     0.001 C 
ENDROOT
BRANCH   1  18
HETATM   18  C6  UNL     1       4.677   0.197  18.782  1.00  0.00     0.019 A 
HETATM   19  C5  UNL     1       4.459   1.085  17.767  1.00  0.00     0.016 A 
HETATM   20  C4  UNL     1       5.471   1.712  17.050  1.00  0.00     0.046 A 
HETATM   21  C3  UNL     1       6.768   1.447  17.353  1.00  0.00     0.152 A 
HETATM   22  C2  UNL     1       7.037   0.566  18.360  1.00  0.00     0.146 A 
HETATM   23  F1  UNL     1       7.746   2.075  16.633  1.00  0.00    -0.203 F 
HETATM   24  C27 UNL     1       6.004  -0.058  19.075  1.00  0.00     0.162 A 
HETATM   25  F3  UNL     1       6.446  -0.877  20.070  1.00  0.00    -0.202 F 
BRANCH  22  26
HETATM   26  O1  UNL     1       8.364   0.300  18.664  1.00  0.00    -0.350 OA
HETATM   27  C1  UNL     1       9.175   1.169  19.407  1.00  0.00     0.210 C 
ENDBRANCH  22  26
ENDBRANCH   1  18
BRANCH  17  28
HETATM   28  C23 UNL     1       4.645  -0.623  23.555  1.00  0.00     0.040 C 
BRANCH  28  29
HETATM   29  C24 UNL     1       5.720  -1.558  24.019  1.00  0.00     0.149 C 
BRANCH  29  30
HETATM   30  O3  UNL     1       6.986  -0.924  23.958  1.00  0.00    -0.393 OA
ATOM     31  H3  UNL     1       7.377  -1.047  23.100  1.00  0.00     0.210 HD
ENDBRANCH  29  30
BRANCH  29  32
HETATM   32  C25 UNL     1       5.483  -1.972  25.480  1.00  0.00     0.170 C 
BRANCH  32  33
HETATM   33  O4  UNL     1       4.478  -1.153  25.969  1.00  0.00    -0.391 OA
ATOM     34  H4  UNL     1       4.620  -1.074  26.905  1.00  0.00     0.210 HD
ENDBRANCH  32  33
BRANCH  32  35
HETATM   35  C26 UNL     1       5.174  -3.405  25.669  1.00  0.00     0.198 C 
BRANCH  35  36
HETATM   36  O5  UNL     1       5.954  -3.967  26.714  1.00  0.00    -0.398 OA
ATOM     37  H5  UNL     1       6.781  -4.300  26.387  1.00  0.00     0.209 HD
ENDBRANCH  35  36
ENDBRANCH  32  35
ENDBRANCH  29  32
ENDBRANCH  28  29
ENDBRANCH  17  28
BRANCH  14  38
HETATM   38  C20 UNL     1       4.062  -4.041  17.093  1.00  0.00     0.258 C 
HETATM   39  F2  UNL     1       3.839  -3.618  15.779  1.00  0.00    -0.251 F 
ENDBRANCH  14  38
TORSDOF 10
ENDMDL
MODEL 5
REMARK VINA RESULT: -8.273158193      2.753      5.327
REMARK  10 active torsions:
REMARK  status: ('A' for Active; 'I' for Inactive)
REMARK    1  A    between atoms: O1_2  and  C2_3 
REMARK    2  A    between atoms: C6_8  and  C7_9 
REMARK    3  A    between atoms: C19_22  and  C20_23 
REMARK    4  A    between atoms: C22_27  and  C23_28 
REMARK    5  A    between atoms: C23_28  and  C24_29 
REMARK    6  A    between atoms: C24_29  and  O3_30 
REMARK    7  A    between atoms: C24_29  and  C25_32 
REMARK    8  A    between atoms: C25_32  and  O4_33 
REMARK    9  A    between atoms: C25_32  and  C26_35 
REMARK   10  A    between atoms: C26_35  and  O5_36 
ROOT
HETATM    1  C7  UNL     1       3.196  -0.385  19.184  1.00  0.00     0.102 C 
HETATM    2  C8  UNL     1       2.404   0.255  20.281  1.00  0.00     0.054 C 
HETATM    3  C9  UNL     1       2.809   0.187  21.694  1.00  0.00    -0.032 C 
HETATM    4  C10 UNL     1       3.258   1.556  22.235  1.00  0.00     0.016 C 
HETATM    5  C11 UNL     1       2.004  -0.475  22.709  1.00  0.00     0.008 C 
HETATM    6  C12 UNL     1       0.597   0.172  22.597  1.00  0.00     0.012 C 
HETATM    7  C13 UNL     1       1.778  -1.875  22.894  1.00  0.00     0.086 C 
HETATM    8 CL1  UNL     1       0.895  -2.003  24.483  1.00  0.00    -0.125 Cl
HETATM    9  C14 UNL     1       2.814  -2.914  22.990  1.00  0.00     0.021 C 
HETATM   10  C15 UNL     1       3.688  -3.075  21.727  1.00  0.00     0.007 C 
HETATM   11  C16 UNL     1       3.595  -1.830  21.032  1.00  0.00    -0.002 C 
HETATM   12  C17 UNL     1       3.957  -1.643  19.570  1.00  0.00     0.034 C 
HETATM   13  C18 UNL     1       3.616  -2.877  18.844  1.00  0.00     0.047 C 
HETATM   14  C19 UNL     1       3.280  -2.713  17.407  1.00  0.00    -0.029 C 
HETATM   15  C21 UNL     1       2.511  -1.658  17.155  1.00  0.00     0.141 C 
HETATM   16  O2  UNL     1       2.188  -0.932  18.281  1.00  0.00    -0.346 OA
HETATM   17  C22 UNL     1       4.127  -0.651  21.671  1.00  0.00     0.001 C 
ENDROOT
BRANCH   1  18
HETATM   18  C6  UNL     1       3.929   0.544  18.313  1.00  0.00     0.019 A 
HETATM   19  C5  UNL     1       3.403   1.441  17.427  1.00  0.00     0.016 A 
HETATM   20  C4  UNL     1       4.166   2.279  16.622  1.00  0.00     0.046 A 
HETATM   21  C3  UNL     1       5.520   2.227  16.697  1.00  0.00     0.152 A 
HETATM   22  C2  UNL     1       6.093   1.346  17.569  1.00  0.00     0.146 A 
HETATM   23  F1  UNL     1       6.250   3.060  15.895  1.00  0.00    -0.203 F 
HETATM   24  C27 UNL     1       5.309   0.508  18.374  1.00  0.00     0.162 A 
HETATM   25  F3  UNL     1       6.038  -0.282  19.212  1.00  0.00    -0.202 F 
BRANCH  22  26
HETATM   26  O1  UNL     1       7.477   1.298  17.640  1.00  0.00    -0.350 OA
HETATM   27  C1  UNL     1       8.225   1.991  18.601  1.00  0.00     0.210 C 
ENDBRANCH  22  26
ENDBRANCH   1  18
BRANCH  17  28
HETATM   28  C23 UNL     1       4.817  -0.553  22.946  1.00  0.00     0.040 C 
BRANCH  28  29
HETATM   29  C24 UNL     1       6.230  -1.035  23.062  1.00  0.00     0.149 C 
BRANCH  29  30
HETATM   30  O3  UNL     1       7.127  -0.071  22.534  1.00  0.00    -0.393 OA
ATOM     31  H3  UNL     1       7.215  -0.181  21.595  1.00  0.00     0.210 HD
ENDBRANCH  29  30
BRANCH  29  32
HETATM   32  C25 UNL     1       6.608  -1.255  24.536  1.00  0.00     0.170 C 
BRANCH  32  33
HETATM   33  O4  UNL     1       7.880  -0.733  24.704  1.00  0.00    -0.391 OA
ATOM     34  H4  UNL     1       8.372  -0.953  23.923  1.00  0.00     0.210 HD
ENDBRANCH  32  33
BRANCH  32  35
HETATM   35  C26 UNL     1       5.642  -0.694  25.505  1.00  0.00     0.198 C 
BRANCH  35  36
HETATM   36  O5  UNL     1       6.007  -1.013  26.839  1.00  0.00    -0.398 OA
ATOM     37  H5  UNL     1       6.892  -0.728  27.032  1.00  0.00     0.209 HD
ENDBRANCH  35  36
ENDBRANCH  32  35
ENDBRANCH  29  32
ENDBRANCH  28  29
ENDBRANCH  17  28
BRANCH  14  38
HETATM   38  C20 UNL     1       3.752  -3.627  16.373  1.00  0.00     0.258 C 
HETATM   39  F2  UNL     1       4.205  -4.786  17.012  1.00  0.00    -0.251 F 
ENDBRANCH  14  38
TORSDOF 10
ENDMDL
