MODEL 1
REMARK VINA RESULT: -10.548739398      0.000      0.000
REMARK  9 active torsions:
REMARK  status: ('A' for Active; 'I' for Inactive)
REMARK    1  A    between atoms: C2_2  and  O1_3 
REMARK    2  A    between atoms: C3_5  and  C4_6 
REMARK    3  A    between atoms: C4_6  and  C5_7 
REMARK    4  A    between atoms: C5_7  and  C6_8 
REMARK    5  A    between atoms: C8_10  and  C9_11 
REMARK    6  A    between atoms: C10_12  and  C11_13 
REMARK    7  A    between atoms: C12_14  and  C13_15 
REMARK    8  A    between atoms: C13_15  and  C14_16 
REMARK    9  A    between atoms: C20_26  and  C21_27 
ROOT
HETATM    1  C14 UNL     1       7.662   0.118  17.316  1.00  0.00     0.151 C 
HETATM    2  C15 UNL     1       7.249  -1.102  18.091  1.00  0.00     0.231 C 
HETATM    3  O2  UNL     1       8.204  -1.715  18.639  1.00  0.00    -0.273 OA
HETATM    4  N1  UNL     1       6.024  -1.776  18.381  1.00  0.00    -0.333 N 
ATOM      5  H1  UNL     1       6.087  -2.611  18.962  1.00  0.00     0.165 HD
HETATM    6  C16 UNL     1       4.739  -1.403  17.947  1.00  0.00     0.238 C 
HETATM    7  O3  UNL     1       4.584  -0.068  18.432  1.00  0.00    -0.359 OA
HETATM    8  C17 UNL     1       4.109   0.674  17.405  1.00  0.00     0.139 C 
HETATM    9  C18 UNL     1       3.043  -0.144  16.726  1.00  0.00     0.034 C 
HETATM   10  C19 UNL     1       2.427  -1.206  17.642  1.00  0.00     0.022 C 
HETATM   11  C20 UNL     1       3.513  -2.045  18.361  1.00  0.00     0.135 C 
HETATM   12  C22 UNL     1       5.165   1.268  16.599  1.00  0.00     0.040 C 
HETATM   13  C23 UNL     1       5.169   2.784  16.918  1.00  0.00     0.026 C 
HETATM   14  C24 UNL     1       4.648   1.269  15.146  1.00  0.00     0.026 C 
HETATM   15  C25 UNL     1       6.550   0.814  16.657  1.00  0.00     0.150 C 
HETATM   16  O6  UNL     1       7.057   1.250  15.563  1.00  0.00    -0.296 OA
ENDROOT
BRANCH   1  17
HETATM   17  C13 UNL     1       8.590   0.988  18.124  1.00  0.00     0.049 C 
BRANCH  17  18
HETATM   18  C12 UNL     1       7.870   1.486  19.313  1.00  0.00    -0.025 C 
HETATM   19  C11 UNL     1       8.255   1.330  20.575  1.00  0.00    -0.004 C 
BRANCH  19  20
HETATM   20  C10 UNL     1       9.446   0.644  21.001  1.00  0.00    -0.000 C 
HETATM   21  C9  UNL     1      10.632   1.189  20.972  1.00  0.00     0.001 C 
BRANCH  21  22
HETATM   22  C8  UNL     1      10.889   2.536  20.513  1.00  0.00     0.007 C 
HETATM   23  C6  UNL     1      11.559   2.815  19.376  1.00  0.00    -0.054 C 
HETATM   24  C7  UNL     1      12.093   1.685  18.626  1.00  0.00     0.049 C 
BRANCH  23  25
HETATM   25  C5  UNL     1      11.754   4.226  19.001  1.00  0.00     0.062 C 
BRANCH  25  26
HETATM   26  C4  UNL     1      12.722   4.740  18.425  1.00  0.00    -0.125 C 
BRANCH  26  27
HETATM   27  C3  UNL     1      13.824   5.308  17.770  1.00  0.00     0.087 C 
HETATM   28  C2  UNL     1      15.062   5.135  18.237  1.00  0.00     0.046 C 
HETATM   29  C1  UNL     1      15.426   4.381  19.429  1.00  0.00     0.076 C 
BRANCH  28  30
HETATM   30  O1  UNL     1      16.091   5.745  17.498  1.00  0.00    -0.365 OA
ATOM     31  H1  UNL     1      15.915   6.587  17.095  1.00  0.00     0.217 HD
ENDBRANCH  28  30
ENDBRANCH  26  27
ENDBRANCH  25  26
ENDBRANCH  23  25
ENDBRANCH  21  22
ENDBRANCH  19  20
ENDBRANCH  17  18
ENDBRANCH   1  17
BRANCH  11  32
HETATM   32  C21 UNL     1       3.375  -3.477  18.041  1.00  0.00     0.181 C 
HETATM   33  O4  UNL     1       2.970  -3.903  16.935  1.00  0.00    -0.648 OA
HETATM   34  O5  UNL     1       3.708  -4.403  19.011  1.00  0.00    -0.648 OA
ENDBRANCH  11  32
TORSDOF 9
ENDMDL
MODEL 2
REMARK VINA RESULT: -10.342844634      2.036      3.434
REMARK  9 active torsions:
REMARK  status: ('A' for Active; 'I' for Inactive)
REMARK    1  A    between atoms: C2_2  and  O1_3 
REMARK    2  A    between atoms: C3_5  and  C4_6 
REMARK    3  A    between atoms: C4_6  and  C5_7 
REMARK    4  A    between atoms: C5_7  and  C6_8 
REMARK    5  A    between atoms: C8_10  and  C9_11 
REMARK    6  A    between atoms: C10_12  and  C11_13 
REMARK    7  A    between atoms: C12_14  and  C13_15 
REMARK    8  A    between atoms: C13_15  and  C14_16 
REMARK    9  A    between atoms: C20_26  and  C21_27 
ROOT
HETATM    1  C14 UNL     1       5.355  -0.808  18.286  1.00  0.00     0.151 C 
HETATM    2  C15 UNL     1       4.048  -0.067  18.353  1.00  0.00     0.231 C 
HETATM    3  O2  UNL     1       3.291  -0.434  19.292  1.00  0.00    -0.273 OA
HETATM    4  N1  UNL     1       3.412   0.974  17.611  1.00  0.00    -0.333 N 
ATOM      5  H1  UNL     1       2.487   1.263  17.928  1.00  0.00     0.165 HD
HETATM    6  C16 UNL     1       3.932   1.641  16.487  1.00  0.00     0.238 C 
HETATM    7  O3  UNL     1       5.171   2.181  16.950  1.00  0.00    -0.359 OA
HETATM    8  C17 UNL     1       6.106   1.881  16.018  1.00  0.00     0.139 C 
HETATM    9  C18 UNL     1       5.484   2.135  14.671  1.00  0.00     0.034 C 
HETATM   10  C19 UNL     1       4.321   3.131  14.725  1.00  0.00     0.022 C 
HETATM   11  C20 UNL     1       3.306   2.769  15.838  1.00  0.00     0.135 C 
HETATM   12  C22 UNL     1       6.763   0.606  16.265  1.00  0.00     0.040 C 
HETATM   13  C23 UNL     1       8.198   0.930  16.747  1.00  0.00     0.026 C 
HETATM   14  C24 UNL     1       7.045  -0.007  14.878  1.00  0.00     0.026 C 
HETATM   15  C25 UNL     1       6.220  -0.396  17.175  1.00  0.00     0.150 C 
HETATM   16  O6  UNL     1       6.805  -1.479  16.815  1.00  0.00    -0.296 OA
ENDROOT
BRANCH   1  17
HETATM   17  C13 UNL     1       6.014  -0.870  19.640  1.00  0.00     0.049 C 
BRANCH  17  18
HETATM   18  C12 UNL     1       6.417   0.492  20.043  1.00  0.00    -0.025 C 
HETATM   19  C11 UNL     1       7.651   0.876  20.353  1.00  0.00    -0.004 C 
BRANCH  19  20
HETATM   20  C10 UNL     1       8.811   0.025  20.351  1.00  0.00    -0.000 C 
HETATM   21  C9  UNL     1      10.029   0.481  20.237  1.00  0.00     0.001 C 
BRANCH  21  22
HETATM   22  C8  UNL     1      10.355   1.883  20.102  1.00  0.00     0.007 C 
HETATM   23  C6  UNL     1      11.196   2.360  19.160  1.00  0.00    -0.054 C 
HETATM   24  C7  UNL     1      11.840   1.384  18.291  1.00  0.00     0.049 C 
BRANCH  23  25
HETATM   25  C5  UNL     1      11.449   3.811  19.110  1.00  0.00     0.062 C 
BRANCH  25  26
HETATM   26  C4  UNL     1      12.356   4.411  18.520  1.00  0.00    -0.125 C 
BRANCH  26  27
HETATM   27  C3  UNL     1      13.374   5.094  17.840  1.00  0.00     0.087 C 
HETATM   28  C2  UNL     1      14.648   4.978  18.220  1.00  0.00     0.046 C 
HETATM   29  C1  UNL     1      15.136   4.176  19.334  1.00  0.00     0.076 C 
BRANCH  28  30
HETATM   30  O1  UNL     1      15.586   5.703  17.465  1.00  0.00    -0.365 OA
ATOM     31  H1  UNL     1      16.046   6.419  17.887  1.00  0.00     0.217 HD
ENDBRANCH  28  30
ENDBRANCH  26  27
ENDBRANCH  25  26
ENDBRANCH  23  25
ENDBRANCH  21  22
ENDBRANCH  19  20
ENDBRANCH  17  18
ENDBRANCH   1  17
BRANCH  11  32
HETATM   32  C21 UNL     1       1.961   2.547  15.277  1.00  0.00     0.181 C 
HETATM   33  O4  UNL     1       1.283   3.448  14.731  1.00  0.00    -0.648 OA
HETATM   34  O5  UNL     1       1.416   1.281  15.358  1.00  0.00    -0.648 OA
ENDBRANCH  11  32
TORSDOF 9
ENDMDL
MODEL 3
REMARK VINA RESULT: -10.296836000      2.457      4.082
REMARK  9 active torsions:
REMARK  status: ('A' for Active; 'I' for Inactive)
REMARK    1  A    between atoms: C2_2  and  O1_3 
REMARK    2  A    between atoms: C3_5  and  C4_6 
REMARK    3  A    between atoms: C4_6  and  C5_7 
REMARK    4  A    between atoms: C5_7  and  C6_8 
REMARK    5  A    between atoms: C8_10  and  C9_11 
REMARK    6  A    between atoms: C10_12  and  C11_13 
REMARK    7  A    between atoms: C12_14  and  C13_15 
REMARK    8  A    between atoms: C13_15  and  C14_16 
REMARK    9  A    between atoms: C20_26  and  C21_27 
ROOT
HETATM    1  C14 UNL     1       4.942  -1.058  16.593  1.00  0.00     0.151 C 
HETATM    2  C15 UNL     1       3.591  -0.420  16.755  1.00  0.00     0.231 C 
HETATM    3  O2  UNL     1       2.757  -1.124  17.386  1.00  0.00    -0.273 OA
HETATM    4  N1  UNL     1       2.977   0.811  16.370  1.00  0.00    -0.333 N 
ATOM      5  H1  UNL     1       2.005   0.944  16.647  1.00  0.00     0.165 HD
HETATM    6  C16 UNL     1       3.579   1.858  15.649  1.00  0.00     0.238 C 
HETATM    7  O3  UNL     1       4.718   2.209  16.436  1.00  0.00    -0.359 OA
HETATM    8  C17 UNL     1       5.772   2.295  15.591  1.00  0.00     0.139 C 
HETATM    9  C18 UNL     1       5.294   3.021  14.362  1.00  0.00     0.034 C 
HETATM   10  C19 UNL     1       4.070   3.904  14.625  1.00  0.00     0.022 C 
HETATM   11  C20 UNL     1       2.959   3.135  15.383  1.00  0.00     0.135 C 
HETATM   12  C22 UNL     1       6.478   1.032  15.436  1.00  0.00     0.040 C 
HETATM   13  C23 UNL     1       7.824   1.179  16.187  1.00  0.00     0.026 C 
HETATM   14  C24 UNL     1       6.957   0.985  13.970  1.00  0.00     0.026 C 
HETATM   15  C25 UNL     1       5.901  -0.247  15.835  1.00  0.00     0.150 C 
HETATM   16  O6  UNL     1       6.593  -1.107  15.182  1.00  0.00    -0.296 OA
ENDROOT
BRANCH   1  17
HETATM   17  C13 UNL     1       5.444  -1.609  17.903  1.00  0.00     0.049 C 
BRANCH  17  18
HETATM   18  C12 UNL     1       5.680  -0.490  18.837  1.00  0.00    -0.025 C 
HETATM   19  C11 UNL     1       6.809  -0.256  19.498  1.00  0.00    -0.004 C 
BRANCH  19  20
HETATM   20  C10 UNL     1       8.000  -1.059  19.418  1.00  0.00    -0.000 C 
HETATM   21  C9  UNL     1       9.195  -0.549  19.289  1.00  0.00     0.001 C 
BRANCH  21  22
HETATM   22  C8  UNL     1       9.463   0.869  19.213  1.00  0.00     0.007 C 
HETATM   23  C6  UNL     1      10.259   1.521  20.086  1.00  0.00    -0.054 C 
HETATM   24  C7  UNL     1      10.812   0.743  21.186  1.00  0.00     0.049 C 
BRANCH  23  25
HETATM   25  C5  UNL     1      10.468   2.968  19.905  1.00  0.00     0.062 C 
BRANCH  25  26
HETATM   26  C4  UNL     1      11.205   3.540  19.092  1.00  0.00    -0.125 C 
BRANCH  26  27
HETATM   27  C3  UNL     1      12.046   4.176  18.167  1.00  0.00     0.087 C 
HETATM   28  C2  UNL     1      13.360   3.938  18.160  1.00  0.00     0.046 C 
HETATM   29  C1  UNL     1      14.068   3.041  19.063  1.00  0.00     0.076 C 
BRANCH  28  30
HETATM   30  O1  UNL     1      14.106   4.625  17.187  1.00  0.00    -0.365 OA
ATOM     31  H1  UNL     1      13.756   5.440  16.847  1.00  0.00     0.217 HD
ENDBRANCH  28  30
ENDBRANCH  26  27
ENDBRANCH  25  26
ENDBRANCH  23  25
ENDBRANCH  21  22
ENDBRANCH  19  20
ENDBRANCH  17  18
ENDBRANCH   1  17
BRANCH  11  32
HETATM   32  C21 UNL     1       1.705   3.114  14.609  1.00  0.00     0.181 C 
HETATM   33  O4  UNL     1       0.687   3.772  14.925  1.00  0.00    -0.648 OA
HETATM   34  O5  UNL     1       1.645   2.327  13.476  1.00  0.00    -0.648 OA
ENDBRANCH  11  32
TORSDOF 9
ENDMDL
MODEL 4
REMARK VINA RESULT: -9.921069552      3.443      7.634
REMARK  9 active torsions:
REMARK  status: ('A' for Active; 'I' for Inactive)
REMARK    1  A    between atoms: C2_2  and  O1_3 
REMARK    2  A    between atoms: C3_5  and  C4_6 
REMARK    3  A    between atoms: C4_6  and  C5_7 
REMARK    4  A    between atoms: C5_7  and  C6_8 
REMARK    5  A    between atoms: C8_10  and  C9_11 
REMARK    6  A    between atoms: C10_12  and  C11_13 
REMARK    7  A    between atoms: C12_14  and  C13_15 
REMARK    8  A    between atoms: C13_15  and  C14_16 
REMARK    9  A    between atoms: C20_26  and  C21_27 
ROOT
HETATM    1  C14 UNL     1       6.237  -0.513  16.277  1.00  0.00     0.151 C 
HETATM    2  C15 UNL     1       7.298   0.544  16.157  1.00  0.00     0.231 C 
HETATM    3  O2  UNL     1       7.417   1.031  15.001  1.00  0.00    -0.273 OA
HETATM    4  N1  UNL     1       8.242   1.165  17.031  1.00  0.00    -0.333 N 
ATOM      5  H1  UNL     1       8.845   1.878  16.623  1.00  0.00     0.165 HD
HETATM    6  C16 UNL     1       8.424   0.891  18.399  1.00  0.00     0.238 C 
HETATM    7  O3  UNL     1       7.136   1.125  18.972  1.00  0.00    -0.359 OA
HETATM    8  C17 UNL     1       6.860   0.069  19.772  1.00  0.00     0.139 C 
HETATM    9  C18 UNL     1       8.119  -0.246  20.536  1.00  0.00     0.034 C 
HETATM   10  C19 UNL     1       9.068   0.951  20.648  1.00  0.00     0.022 C 
HETATM   11  C20 UNL     1       9.308   1.624  19.274  1.00  0.00     0.135 C 
HETATM   12  C22 UNL     1       6.169  -1.005  19.074  1.00  0.00     0.040 C 
HETATM   13  C23 UNL     1       4.705  -0.994  19.579  1.00  0.00     0.026 C 
HETATM   14  C24 UNL     1       6.688  -2.321  19.689  1.00  0.00     0.026 C 
HETATM   15  C25 UNL     1       6.121  -1.096  17.619  1.00  0.00     0.150 C 
HETATM   16  O6  UNL     1       5.822  -2.324  17.403  1.00  0.00    -0.296 OA
ENDROOT
BRANCH   1  17
HETATM   17  C13 UNL     1       4.945  -0.060  15.648  1.00  0.00     0.049 C 
BRANCH  17  18
HETATM   18  C12 UNL     1       4.003   0.337  16.713  1.00  0.00    -0.025 C 
HETATM   19  C11 UNL     1       2.938   1.117  16.556  1.00  0.00    -0.004 C 
BRANCH  19  20
HETATM   20  C10 UNL     1       2.519   1.711  15.315  1.00  0.00    -0.000 C 
HETATM   21  C9  UNL     1       2.440   3.001  15.133  1.00  0.00     0.001 C 
BRANCH  21  22
HETATM   22  C8  UNL     1       2.761   3.979  16.148  1.00  0.00     0.007 C 
HETATM   23  C6  UNL     1       3.966   4.578  16.245  1.00  0.00    -0.054 C 
HETATM   24  C7  UNL     1       4.995   4.153  15.306  1.00  0.00     0.049 C 
BRANCH  23  25
HETATM   25  C5  UNL     1       4.177   5.568  17.315  1.00  0.00     0.062 C 
BRANCH  25  26
HETATM   26  C4  UNL     1       3.855   6.763  17.329  1.00  0.00    -0.125 C 
BRANCH  26  27
HETATM   27  C3  UNL     1       3.477   8.113  17.339  1.00  0.00     0.087 C 
HETATM   28  C2  UNL     1       3.358   8.782  18.489  1.00  0.00     0.046 C 
HETATM   29  C1  UNL     1       3.585   8.236  19.820  1.00  0.00     0.076 C 
BRANCH  28  30
HETATM   30  O1  UNL     1       2.979  10.131  18.381  1.00  0.00    -0.365 OA
ATOM     31  H1  UNL     1       2.067  10.354  18.525  1.00  0.00     0.217 HD
ENDBRANCH  28  30
ENDBRANCH  26  27
ENDBRANCH  25  26
ENDBRANCH  23  25
ENDBRANCH  21  22
ENDBRANCH  19  20
ENDBRANCH  17  18
ENDBRANCH   1  17
BRANCH  11  32
HETATM   32  C21 UNL     1      10.740   1.619  18.924  1.00  0.00     0.181 C 
HETATM   33  O4  UNL     1      11.164   1.718  17.749  1.00  0.00    -0.648 OA
HETATM   34  O5  UNL     1      11.666   1.495  19.942  1.00  0.00    -0.648 OA
ENDBRANCH  11  32
TORSDOF 9
ENDMDL
MODEL 5
REMARK VINA RESULT: -9.911311507      3.086      4.821
REMARK  9 active torsions:
REMARK  status: ('A' for Active; 'I' for Inactive)
REMARK    1  A    between atoms: C2_2  and  O1_3 
REMARK    2  A    between atoms: C3_5  and  C4_6 
REMARK    3  A    between atoms: C4_6  and  C5_7 
REMARK    4  A    between atoms: C5_7  and  C6_8 
REMARK    5  A    between atoms: C8_10  and  C9_11 
REMARK    6  A    between atoms: C10_12  and  C11_13 
REMARK    7  A    between atoms: C12_14  and  C13_15 
REMARK    8  A    between atoms: C13_15  and  C14_16 
REMARK    9  A    between atoms: C20_26  and  C21_27 
ROOT
HETATM    1  C14 UNL     1       4.790  -1.111  16.626  1.00  0.00     0.151 C 
HETATM    2  C15 UNL     1       3.470  -0.411  16.789  1.00  0.00     0.231 C 
HETATM    3  O2  UNL     1       2.613  -1.066  17.441  1.00  0.00    -0.273 OA
HETATM    4  N1  UNL     1       2.907   0.839  16.389  1.00  0.00    -0.333 N 
ATOM      5  H1  UNL     1       1.944   1.020  16.673  1.00  0.00     0.165 HD
HETATM    6  C16 UNL     1       3.546   1.846  15.643  1.00  0.00     0.238 C 
HETATM    7  O3  UNL     1       4.708   2.160  16.413  1.00  0.00    -0.359 OA
HETATM    8  C17 UNL     1       5.755   2.186  15.556  1.00  0.00     0.139 C 
HETATM    9  C18 UNL     1       5.296   2.911  14.319  1.00  0.00     0.034 C 
HETATM   10  C19 UNL     1       4.115   3.851  14.578  1.00  0.00     0.022 C 
HETATM   11  C20 UNL     1       2.980   3.145  15.361  1.00  0.00     0.135 C 
HETATM   12  C22 UNL     1       6.404   0.890  15.416  1.00  0.00     0.040 C 
HETATM   13  C23 UNL     1       7.763   0.991  16.152  1.00  0.00     0.026 C 
HETATM   14  C24 UNL     1       6.865   0.796  13.947  1.00  0.00     0.026 C 
HETATM   15  C25 UNL     1       5.776  -0.355  15.844  1.00  0.00     0.150 C 
HETATM   16  O6  UNL     1       6.423  -1.256  15.200  1.00  0.00    -0.296 OA
ENDROOT
BRANCH   1  17
HETATM   17  C13 UNL     1       5.281  -1.659  17.940  1.00  0.00     0.049 C 
BRANCH  17  18
HETATM   18  C12 UNL     1       5.686  -0.537  18.810  1.00  0.00    -0.025 C 
HETATM   19  C11 UNL     1       6.921  -0.291  19.235  1.00  0.00    -0.004 C 
BRANCH  19  20
HETATM   20  C10 UNL     1       8.081  -1.082  18.919  1.00  0.00    -0.000 C 
HETATM   21  C9  UNL     1       9.282  -0.782  19.332  1.00  0.00     0.001 C 
BRANCH  21  22
HETATM   22  C8  UNL     1       9.589   0.371  20.149  1.00  0.00     0.007 C 
HETATM   23  C6  UNL     1      10.222   1.465  19.676  1.00  0.00    -0.054 C 
HETATM   24  C7  UNL     1      10.661   1.430  18.288  1.00  0.00     0.049 C 
BRANCH  23  25
HETATM   25  C5  UNL     1      10.474   2.587  20.599  1.00  0.00     0.062 C 
BRANCH  25  26
HETATM   26  C4  UNL     1      11.057   2.565  21.690  1.00  0.00    -0.125 C 
BRANCH  26  27
HETATM   27  C3  UNL     1      11.729   2.535  22.920  1.00  0.00     0.087 C 
HETATM   28  C2  UNL     1      12.230   1.393  23.399  1.00  0.00     0.046 C 
HETATM   29  C1  UNL     1      12.150   0.090  22.753  1.00  0.00     0.076 C 
BRANCH  28  30
HETATM   30  O1  UNL     1      12.888   1.480  24.638  1.00  0.00    -0.365 OA
ATOM     31  H1  UNL     1      13.509   2.188  24.768  1.00  0.00     0.217 HD
ENDBRANCH  28  30
ENDBRANCH  26  27
ENDBRANCH  25  26
ENDBRANCH  23  25
ENDBRANCH  21  22
ENDBRANCH  19  20
ENDBRANCH  17  18
ENDBRANCH   1  17
BRANCH  11  32
HETATM   32  C21 UNL     1       1.718   3.165  14.599  1.00  0.00     0.181 C 
HETATM   33  O4  UNL     1       0.691   3.772  14.980  1.00  0.00    -0.648 OA
HETATM   34  O5  UNL     1       1.661   2.478  13.402  1.00  0.00    -0.648 OA
ENDBRANCH  11  32
TORSDOF 9
ENDMDL
