MODEL 1
REMARK VINA RESULT: -9.281652962      0.000      0.000
REMARK  10 active torsions:
REMARK  status: ('A' for Active; 'I' for Inactive)
REMARK    1  A    between atoms: C2_2  and  C5_5 
REMARK    2  A    between atoms: C5_5  and  C6_6 
REMARK       I    between atoms: C6_6  and  N1_8 
REMARK    3  A    between atoms: N1_8  and  C7_9 
REMARK    4  A    between atoms: C7_9  and  C8_10 
REMARK    5  A    between atoms: C7_9  and  C21_31 
REMARK       I    between atoms: C8_10  and  N2_12 
REMARK    6  A    between atoms: C9_14  and  C10_15 
REMARK    7  A    between atoms: C9_14  and  C20_28 
REMARK    8  A    between atoms: C10_15  and  C11_16 
REMARK    9  A    between atoms: C11_16  and  C12_17 
REMARK   10  A    between atoms: C11_16  and  C15_20 
ROOT
HETATM    1  C8  UNL     1       7.363   0.535  17.600  1.00  0.00     0.258 C 
HETATM    2  O2  UNL     1       6.517   1.513  17.698  1.00  0.00    -0.270 OA
HETATM    3  N2  UNL     1       8.692   0.912  17.650  1.00  0.00    -0.322 N 
ATOM      4  H2  UNL     1       9.174   0.965  16.752  1.00  0.00     0.169 HD
HETATM    5  C9  UNL     1       9.410   1.208  18.702  1.00  0.00     0.089 C 
ENDROOT
BRANCH   1   6
HETATM    6  C7  UNL     1       6.778  -0.834  17.443  1.00  0.00     0.266 C 
BRANCH   6   7
HETATM    7  N1  UNL     1       6.054  -1.196  18.516  1.00  0.00    -0.399 NA
HETATM    8  C6  UNL     1       5.295  -1.560  19.627  1.00  0.00     0.288 C 
HETATM    9  O1  UNL     1       4.299  -0.977  20.093  1.00  0.00    -0.258 OA
BRANCH   8  10
HETATM   10  C5  UNL     1       5.674  -2.803  20.402  1.00  0.00     0.127 C 
BRANCH  10  11
HETATM   11  C2  UNL     1       5.282  -4.069  19.743  1.00  0.00    -0.042 C 
HETATM   12  C1  UNL     1       6.270  -4.570  18.732  1.00  0.00     0.015 C 
HETATM   13  C3  UNL     1       3.916  -4.014  19.100  1.00  0.00     0.015 C 
HETATM   14  C4  UNL     1       5.173  -5.195  20.798  1.00  0.00     0.015 C 
ENDBRANCH  10  11
ENDBRANCH   8  10
ENDBRANCH   6   7
BRANCH   6  15
HETATM   15  C21 UNL     1       5.791  -0.842  16.218  1.00  0.00    -0.010 C 
HETATM   16  C22 UNL     1       5.381  -2.302  16.041  1.00  0.00     0.018 C 
HETATM   17  C23 UNL     1       4.645   0.074  16.445  1.00  0.00     0.018 C 
HETATM   18  C24 UNL     1       6.531  -0.436  14.969  1.00  0.00     0.018 C 
ENDBRANCH   6  15
ENDBRANCH   1   6
BRANCH   5  19
HETATM   19  C10 UNL     1      10.830   1.596  18.558  1.00  0.00     0.071 C 
BRANCH  19  20
HETATM   20  C11 UNL     1      11.060   3.022  19.082  1.00  0.00     0.026 C 
BRANCH  20  21
HETATM   21  C12 UNL     1      11.831   3.720  17.998  1.00  0.00    -0.008 A 
HETATM   22  C13 UNL     1      12.575   4.963  18.115  1.00  0.00     0.005 A 
HETATM   23  C14 UNL     1      13.286   3.587  17.865  1.00  0.00     0.005 A 
ENDBRANCH  20  21
BRANCH  20  24
HETATM   24  C15 UNL     1      11.806   2.996  20.404  1.00  0.00     0.190 C 
HETATM   25  C16 UNL     1      12.500   1.692  20.677  1.00  0.00     0.033 C 
HETATM   26  C17 UNL     1      13.347   1.954  21.941  1.00  0.00     0.004 C 
HETATM   27  C18 UNL     1      12.435   2.410  23.050  1.00  0.00     0.027 C 
HETATM   28  C19 UNL     1      11.015   2.252  22.584  1.00  0.00     0.232 C 
HETATM   29  N3  UNL     1      10.789   3.124  21.451  1.00  0.00    -0.070 N 
ATOM     30  H32 UNL     1      10.702   4.094  21.754  1.00  0.00     0.277 HD
ATOM     31  H31 UNL     1       9.855   2.982  21.067  1.00  0.00     0.277 HD
ENDBRANCH  20  24
ENDBRANCH  19  20
ENDBRANCH   5  19
BRANCH   5  32
HETATM   32  C20 UNL     1       8.787   1.148  19.998  1.00  0.00     0.222 C 
HETATM   33  O3  UNL     1       8.937   0.060  20.652  1.00  0.00    -0.643 OA
HETATM   34  O4  UNL     1       8.055   2.131  20.605  1.00  0.00    -0.643 OA
ENDBRANCH   5  32
TORSDOF 10
ENDMDL
MODEL 2
REMARK VINA RESULT: -9.236158490      1.965      3.794
REMARK  10 active torsions:
REMARK  status: ('A' for Active; 'I' for Inactive)
REMARK    1  A    between atoms: C2_2  and  C5_5 
REMARK    2  A    between atoms: C5_5  and  C6_6 
REMARK       I    between atoms: C6_6  and  N1_8 
REMARK    3  A    between atoms: N1_8  and  C7_9 
REMARK    4  A    between atoms: C7_9  and  C8_10 
REMARK    5  A    between atoms: C7_9  and  C21_31 
REMARK       I    between atoms: C8_10  and  N2_12 
REMARK    6  A    between atoms: C9_14  and  C10_15 
REMARK    7  A    between atoms: C9_14  and  C20_28 
REMARK    8  A    between atoms: C10_15  and  C11_16 
REMARK    9  A    between atoms: C11_16  and  C12_17 
REMARK   10  A    between atoms: C11_16  and  C15_20 
ROOT
HETATM    1  C8  UNL     1       8.191  -0.102  19.603  1.00  0.00     0.258 C 
HETATM    2  O2  UNL     1       8.821  -1.208  19.358  1.00  0.00    -0.270 OA
HETATM    3  N2  UNL     1       8.977   0.909  20.124  1.00  0.00    -0.322 N 
ATOM      4  H2  UNL     1       8.910   1.049  21.133  1.00  0.00     0.169 HD
HETATM    5  C9  UNL     1       9.793   1.708  19.489  1.00  0.00     0.089 C 
ENDROOT
BRANCH   1   6
HETATM    6  C7  UNL     1       6.726  -0.092  19.294  1.00  0.00     0.266 C 
BRANCH   6   7
HETATM    7  N1  UNL     1       6.422  -0.922  18.282  1.00  0.00    -0.399 NA
HETATM    8  C6  UNL     1       6.109  -1.773  17.224  1.00  0.00     0.288 C 
HETATM    9  O1  UNL     1       6.109  -1.507  16.008  1.00  0.00    -0.258 OA
BRANCH   8  10
HETATM   10  C5  UNL     1       5.717  -3.204  17.520  1.00  0.00     0.127 C 
BRANCH  10  11
HETATM   11  C2  UNL     1       4.256  -3.426  17.598  1.00  0.00    -0.042 C 
HETATM   12  C1  UNL     1       3.429  -2.251  17.171  1.00  0.00     0.015 C 
HETATM   13  C3  UNL     1       3.790  -3.877  18.962  1.00  0.00     0.015 C 
HETATM   14  C4  UNL     1       3.850  -4.576  16.646  1.00  0.00     0.015 C 
ENDBRANCH  10  11
ENDBRANCH   8  10
ENDBRANCH   6   7
BRANCH   6  15
HETATM   15  C21 UNL     1       5.925  -0.605  20.547  1.00  0.00    -0.010 C 
HETATM   16  C22 UNL     1       4.452  -0.456  20.172  1.00  0.00     0.018 C 
HETATM   17  C23 UNL     1       6.311  -1.995  20.899  1.00  0.00     0.018 C 
HETATM   18  C24 UNL     1       6.178   0.309  21.719  1.00  0.00     0.018 C 
ENDBRANCH   6  15
ENDBRANCH   1   6
BRANCH   5  19
HETATM   19  C10 UNL     1      10.560   2.738  20.222  1.00  0.00     0.071 C 
BRANCH  19  20
HETATM   20  C11 UNL     1      12.055   2.385  20.253  1.00  0.00     0.026 C 
BRANCH  20  21
HETATM   21  C12 UNL     1      12.358   2.082  21.692  1.00  0.00    -0.008 A 
HETATM   22  C13 UNL     1      11.486   2.302  22.835  1.00  0.00     0.005 A 
HETATM   23  C14 UNL     1      11.878   0.861  22.352  1.00  0.00     0.005 A 
ENDBRANCH  20  21
BRANCH  20  24
HETATM   24  C15 UNL     1      12.890   3.529  19.709  1.00  0.00     0.190 C 
HETATM   25  C16 UNL     1      13.349   3.320  18.293  1.00  0.00     0.033 C 
HETATM   26  C17 UNL     1      13.986   4.664  17.883  1.00  0.00     0.004 C 
HETATM   27  C18 UNL     1      15.097   4.989  18.847  1.00  0.00     0.027 C 
HETATM   28  C19 UNL     1      15.311   3.795  19.734  1.00  0.00     0.232 C 
HETATM   29  N3  UNL     1      14.114   3.564  20.515  1.00  0.00    -0.070 N 
ATOM     30  H32 UNL     1      14.033   4.250  21.265  1.00  0.00     0.277 HD
ATOM     31  H31 UNL     1      14.204   2.714  21.071  1.00  0.00     0.277 HD
ENDBRANCH  20  24
ENDBRANCH  19  20
ENDBRANCH   5  19
BRANCH   5  32
HETATM   32  C20 UNL     1       9.926   1.562  18.063  1.00  0.00     0.222 C 
HETATM   33  O3  UNL     1      11.056   1.147  17.635  1.00  0.00    -0.643 OA
HETATM   34  O4  UNL     1       8.971   1.819  17.118  1.00  0.00    -0.643 OA
ENDBRANCH   5  32
TORSDOF 10
ENDMDL
MODEL 3
REMARK VINA RESULT: -9.128358850      2.025      3.972
REMARK  10 active torsions:
REMARK  status: ('A' for Active; 'I' for Inactive)
REMARK    1  A    between atoms: C2_2  and  C5_5 
REMARK    2  A    between atoms: C5_5  and  C6_6 
REMARK       I    between atoms: C6_6  and  N1_8 
REMARK    3  A    between atoms: N1_8  and  C7_9 
REMARK    4  A    between atoms: C7_9  and  C8_10 
REMARK    5  A    between atoms: C7_9  and  C21_31 
REMARK       I    between atoms: C8_10  and  N2_12 
REMARK    6  A    between atoms: C9_14  and  C10_15 
REMARK    7  A    between atoms: C9_14  and  C20_28 
REMARK    8  A    between atoms: C10_15  and  C11_16 
REMARK    9  A    between atoms: C11_16  and  C12_17 
REMARK   10  A    between atoms: C11_16  and  C15_20 
ROOT
HETATM    1  C8  UNL     1       6.459   0.762  17.941  1.00  0.00     0.258 C 
HETATM    2  O2  UNL     1       6.097   1.995  17.768  1.00  0.00    -0.270 OA
HETATM    3  N2  UNL     1       7.816   0.577  18.128  1.00  0.00    -0.322 N 
ATOM      4  H2  UNL     1       8.338   0.256  17.312  1.00  0.00     0.169 HD
HETATM    5  C9  UNL     1       8.515   0.762  19.218  1.00  0.00     0.089 C 
ENDROOT
BRANCH   1   6
HETATM    6  C7  UNL     1       5.365  -0.260  17.905  1.00  0.00     0.266 C 
BRANCH   6   7
HETATM    7  N1  UNL     1       4.223   0.246  17.411  1.00  0.00    -0.399 NA
HETATM    8  C6  UNL     1       3.033   0.758  16.896  1.00  0.00     0.288 C 
HETATM    9  O1  UNL     1       2.043   0.122  16.489  1.00  0.00    -0.258 OA
BRANCH   8  10
HETATM   10  C5  UNL     1       2.860   2.258  16.794  1.00  0.00     0.127 C 
BRANCH  10  11
HETATM   11  C2  UNL     1       3.100   2.803  15.439  1.00  0.00    -0.042 C 
HETATM   12  C1  UNL     1       1.917   2.719  14.521  1.00  0.00     0.015 C 
HETATM   13  C3  UNL     1       4.295   2.190  14.748  1.00  0.00     0.015 C 
HETATM   14  C4  UNL     1       3.434   4.310  15.534  1.00  0.00     0.015 C 
ENDBRANCH  10  11
ENDBRANCH   8  10
ENDBRANCH   6   7
BRANCH   6  15
HETATM   15  C21 UNL     1       5.782  -1.437  16.949  1.00  0.00    -0.010 C 
HETATM   16  C22 UNL     1       4.548  -2.330  16.848  1.00  0.00     0.018 C 
HETATM   17  C23 UNL     1       6.252  -0.922  15.637  1.00  0.00     0.018 C 
HETATM   18  C24 UNL     1       6.870  -2.255  17.596  1.00  0.00     0.018 C 
ENDBRANCH   6  15
ENDBRANCH   1   6
BRANCH   5  19
HETATM   19  C10 UNL     1       9.973   0.513  19.227  1.00  0.00     0.071 C 
BRANCH  19  20
HETATM   20  C11 UNL     1      10.741   1.788  19.608  1.00  0.00     0.026 C 
BRANCH  20  21
HETATM   21  C12 UNL     1      11.569   2.124  18.401  1.00  0.00    -0.008 A 
HETATM   22  C13 UNL     1      11.945   3.451  17.941  1.00  0.00     0.005 A 
HETATM   23  C14 UNL     1      13.001   2.432  18.497  1.00  0.00     0.005 A 
ENDBRANCH  20  21
BRANCH  20  24
HETATM   24  C15 UNL     1      11.584   1.557  20.849  1.00  0.00     0.190 C 
HETATM   25  C16 UNL     1      11.123   0.395  21.683  1.00  0.00     0.033 C 
HETATM   26  C17 UNL     1      12.221   0.219  22.753  1.00  0.00     0.004 C 
HETATM   27  C18 UNL     1      12.363   1.508  23.520  1.00  0.00     0.027 C 
HETATM   28  C19 UNL     1      11.251   2.428  23.099  1.00  0.00     0.232 C 
HETATM   29  N3  UNL     1      11.402   2.741  21.694  1.00  0.00    -0.070 N 
ATOM     30  H32 UNL     1      12.161   3.407  21.551  1.00  0.00     0.277 HD
ATOM     31  H31 UNL     1      10.618   3.304  21.363  1.00  0.00     0.277 HD
ENDBRANCH  20  24
ENDBRANCH  19  20
ENDBRANCH   5  19
BRANCH   5  32
HETATM   32  C20 UNL     1       7.834   1.210  20.403  1.00  0.00     0.222 C 
HETATM   33  O3  UNL     1       8.161   2.363  20.848  1.00  0.00    -0.643 OA
HETATM   34  O4  UNL     1       6.872   0.535  21.103  1.00  0.00    -0.643 OA
ENDBRANCH   5  32
TORSDOF 10
ENDMDL
MODEL 4
REMARK VINA RESULT: -8.991073233      1.967      4.581
REMARK  10 active torsions:
REMARK  status: ('A' for Active; 'I' for Inactive)
REMARK    1  A    between atoms: C2_2  and  C5_5 
REMARK    2  A    between atoms: C5_5  and  C6_6 
REMARK       I    between atoms: C6_6  and  N1_8 
REMARK    3  A    between atoms: N1_8  and  C7_9 
REMARK    4  A    between atoms: C7_9  and  C8_10 
REMARK    5  A    between atoms: C7_9  and  C21_31 
REMARK       I    between atoms: C8_10  and  N2_12 
REMARK    6  A    between atoms: C9_14  and  C10_15 
REMARK    7  A    between atoms: C9_14  and  C20_28 
REMARK    8  A    between atoms: C10_15  and  C11_16 
REMARK    9  A    between atoms: C11_16  and  C12_17 
REMARK   10  A    between atoms: C11_16  and  C15_20 
ROOT
HETATM    1  C8  UNL     1       8.030   0.092  19.506  1.00  0.00     0.258 C 
HETATM    2  O2  UNL     1       8.587  -1.063  19.309  1.00  0.00    -0.270 OA
HETATM    3  N2  UNL     1       8.859   1.047  20.063  1.00  0.00    -0.322 N 
ATOM      4  H2  UNL     1       8.745   1.206  21.065  1.00  0.00     0.169 HD
HETATM    5  C9  UNL     1       9.769   1.774  19.469  1.00  0.00     0.089 C 
ENDROOT
BRANCH   1   6
HETATM    6  C7  UNL     1       6.590   0.208  19.111  1.00  0.00     0.266 C 
BRANCH   6   7
HETATM    7  N1  UNL     1       6.405  -0.063  17.808  1.00  0.00    -0.399 NA
HETATM    8  C6  UNL     1       6.213  -0.357  16.460  1.00  0.00     0.288 C 
HETATM    9  O1  UNL     1       6.180  -1.479  15.922  1.00  0.00    -0.258 OA
BRANCH   8  10
HETATM   10  C5  UNL     1       6.013   0.778  15.479  1.00  0.00     0.127 C 
BRANCH  10  11
HETATM   11  C2  UNL     1       4.800   1.588  15.731  1.00  0.00    -0.042 C 
HETATM   12  C1  UNL     1       4.978   2.661  16.762  1.00  0.00     0.015 C 
HETATM   13  C3  UNL     1       3.591   0.760  16.095  1.00  0.00     0.015 C 
HETATM   14  C4  UNL     1       4.391   2.331  14.438  1.00  0.00     0.015 C 
ENDBRANCH  10  11
ENDBRANCH   8  10
ENDBRANCH   6   7
BRANCH   6  15
HETATM   15  C21 UNL     1       5.743  -0.849  19.911  1.00  0.00    -0.010 C 
HETATM   16  C22 UNL     1       4.285  -0.478  19.648  1.00  0.00     0.018 C 
HETATM   17  C23 UNL     1       6.086  -2.234  19.500  1.00  0.00     0.018 C 
HETATM   18  C24 UNL     1       5.984  -0.678  21.389  1.00  0.00     0.018 C 
ENDBRANCH   6  15
ENDBRANCH   1   6
BRANCH   5  19
HETATM   19  C10 UNL     1      10.569   2.753  20.237  1.00  0.00     0.071 C 
BRANCH  19  20
HETATM   20  C11 UNL     1      12.051   2.348  20.259  1.00  0.00     0.026 C 
BRANCH  20  21
HETATM   21  C12 UNL     1      12.342   1.997  21.690  1.00  0.00    -0.008 A 
HETATM   22  C13 UNL     1      11.493   2.251  22.843  1.00  0.00     0.005 A 
HETATM   23  C14 UNL     1      11.788   0.797  22.329  1.00  0.00     0.005 A 
ENDBRANCH  20  21
BRANCH  20  24
HETATM   24  C15 UNL     1      12.925   3.477  19.745  1.00  0.00     0.190 C 
HETATM   25  C16 UNL     1      13.387   3.283  18.329  1.00  0.00     0.033 C 
HETATM   26  C17 UNL     1      14.069   4.616  17.952  1.00  0.00     0.004 C 
HETATM   27  C18 UNL     1      15.182   4.886  18.930  1.00  0.00     0.027 C 
HETATM   28  C19 UNL     1      15.352   3.667  19.793  1.00  0.00     0.232 C 
HETATM   29  N3  UNL     1      14.142   3.457  20.560  1.00  0.00    -0.070 N 
ATOM     30  H32 UNL     1      14.077   4.129  21.324  1.00  0.00     0.277 HD
ATOM     31  H31 UNL     1      14.202   2.593  21.099  1.00  0.00     0.277 HD
ENDBRANCH  20  24
ENDBRANCH  19  20
ENDBRANCH   5  19
BRANCH   5  32
HETATM   32  C20 UNL     1       9.973   1.599  18.056  1.00  0.00     0.222 C 
HETATM   33  O3  UNL     1      11.097   1.107  17.698  1.00  0.00    -0.643 OA
HETATM   34  O4  UNL     1       9.092   1.902  17.055  1.00  0.00    -0.643 OA
ENDBRANCH   5  32
TORSDOF 10
ENDMDL
MODEL 5
REMARK VINA RESULT: -8.978788144      1.873      3.735
REMARK  10 active torsions:
REMARK  status: ('A' for Active; 'I' for Inactive)
REMARK    1  A    between atoms: C2_2  and  C5_5 
REMARK    2  A    between atoms: C5_5  and  C6_6 
REMARK       I    between atoms: C6_6  and  N1_8 
REMARK    3  A    between atoms: N1_8  and  C7_9 
REMARK    4  A    between atoms: C7_9  and  C8_10 
REMARK    5  A    between atoms: C7_9  and  C21_31 
REMARK       I    between atoms: C8_10  and  N2_12 
REMARK    6  A    between atoms: C9_14  and  C10_15 
REMARK    7  A    between atoms: C9_14  and  C20_28 
REMARK    8  A    between atoms: C10_15  and  C11_16 
REMARK    9  A    between atoms: C11_16  and  C12_17 
REMARK   10  A    between atoms: C11_16  and  C15_20 
ROOT
HETATM    1  C8  UNL     1       7.226  -0.398  19.541  1.00  0.00     0.258 C 
HETATM    2  O2  UNL     1       7.645  -1.500  19.002  1.00  0.00    -0.270 OA
HETATM    3  N2  UNL     1       8.223   0.496  19.883  1.00  0.00    -0.322 N 
ATOM      4  H2  UNL     1       8.485   0.516  20.869  1.00  0.00     0.169 HD
HETATM    5  C9  UNL     1       8.874   1.319  19.102  1.00  0.00     0.089 C 
ENDROOT
BRANCH   1   6
HETATM    6  C7  UNL     1       5.745  -0.268  19.715  1.00  0.00     0.266 C 
BRANCH   6   7
HETATM    7  N1  UNL     1       5.068  -0.905  18.744  1.00  0.00    -0.399 NA
HETATM    8  C6  UNL     1       4.357  -1.556  17.738  1.00  0.00     0.288 C 
HETATM    9  O1  UNL     1       3.252  -1.240  17.260  1.00  0.00    -0.258 OA
BRANCH   8  10
HETATM   10  C5  UNL     1       4.943  -2.802  17.110  1.00  0.00     0.127 C 
BRANCH  10  11
HETATM   11  C2  UNL     1       4.676  -4.044  17.869  1.00  0.00    -0.042 C 
HETATM   12  C1  UNL     1       3.637  -3.902  18.941  1.00  0.00     0.015 C 
HETATM   13  C3  UNL     1       5.916  -4.656  18.474  1.00  0.00     0.015 C 
HETATM   14  C4  UNL     1       4.129  -5.132  16.915  1.00  0.00     0.015 C 
ENDBRANCH  10  11
ENDBRANCH   8  10
ENDBRANCH   6   7
BRANCH   6  15
HETATM   15  C21 UNL     1       5.317  -0.941  21.071  1.00  0.00    -0.010 C 
HETATM   16  C22 UNL     1       3.790  -0.941  21.056  1.00  0.00     0.018 C 
HETATM   17  C23 UNL     1       5.911  -2.295  21.209  1.00  0.00     0.018 C 
HETATM   18  C24 UNL     1       5.749  -0.073  22.226  1.00  0.00     0.018 C 
ENDBRANCH   6  15
ENDBRANCH   1   6
BRANCH   5  19
HETATM   19  C10 UNL     1       9.921   2.208  19.651  1.00  0.00     0.071 C 
BRANCH  19  20
HETATM   20  C11 UNL     1      11.280   1.491  19.686  1.00  0.00     0.026 C 
BRANCH  20  21
HETATM   21  C12 UNL     1      11.627   1.377  21.142  1.00  0.00    -0.008 A 
HETATM   22  C13 UNL     1      10.845   1.860  22.268  1.00  0.00     0.005 A 
HETATM   23  C14 UNL     1      11.062   0.329  22.001  1.00  0.00     0.005 A 
ENDBRANCH  20  21
BRANCH  20  24
HETATM   24  C15 UNL     1      12.318   2.268  18.897  1.00  0.00     0.190 C 
HETATM   25  C16 UNL     1      13.348   2.942  19.759  1.00  0.00     0.033 C 
HETATM   26  C17 UNL     1      14.398   3.484  18.765  1.00  0.00     0.004 C 
HETATM   27  C18 UNL     1      13.713   4.405  17.790  1.00  0.00     0.027 C 
HETATM   28  C19 UNL     1      12.301   4.618  18.259  1.00  0.00     0.232 C 
HETATM   29  N3  UNL     1      11.596   3.354  18.228  1.00  0.00    -0.070 N 
ATOM     30  H32 UNL     1      11.361   3.095  17.270  1.00  0.00     0.277 HD
ATOM     31  H31 UNL     1      10.657   3.455  18.612  1.00  0.00     0.277 HD
ENDBRANCH  20  24
ENDBRANCH  19  20
ENDBRANCH   5  19
BRANCH   5  32
HETATM   32  C20 UNL     1       8.547   1.340  17.701  1.00  0.00     0.222 C 
HETATM   33  O3  UNL     1       9.524   1.469  16.888  1.00  0.00    -0.643 OA
HETATM   34  O4  UNL     1       7.300   1.236  17.146  1.00  0.00    -0.643 OA
ENDBRANCH   5  32
TORSDOF 10
ENDMDL
