MODEL 1
REMARK VINA RESULT: -9.953402921      0.000      0.000
REMARK  12 active torsions:
REMARK  status: ('A' for Active; 'I' for Inactive)
REMARK    1  A    between atoms: C11_11  and  C12_12 
REMARK    2  A    between atoms: C12_12  and  C13_13 
REMARK    3  A    between atoms: C13_13  and  C14_14 
REMARK    4  A    between atoms: C14_14  and  O1_15 
REMARK    5  A    between atoms: C14_14  and  N1_17 
REMARK    6  A    between atoms: N1_17  and  C15_19 
REMARK    7  A    between atoms: C15_19  and  C16_20 
REMARK    8  A    between atoms: C16_20  and  C17_21 
REMARK    9  A    between atoms: C17_21  and  C18_22 
REMARK   10  A    between atoms: C18_22  and  C19_23 
REMARK   11  A    between atoms: C19_23  and  C20_24 
REMARK   12  A    between atoms: C26_33  and  O5_34 
ROOT
HETATM    1  C1  UNL     1       4.461   3.800  13.775  1.00  0.00     0.014 C 
HETATM    2  C2  UNL     1       4.641   2.836  14.637  1.00  0.00    -0.084 C 
HETATM    3  C3  UNL     1       3.602   2.015  15.288  1.00  0.00     0.041 C 
HETATM    4  C4  UNL     1       4.153   1.897  16.719  1.00  0.00     0.024 C 
HETATM    5  C5  UNL     1       5.609   2.056  16.676  1.00  0.00     0.005 C 
HETATM    6  C6  UNL     1       5.926   2.309  15.192  1.00  0.00     0.019 C 
HETATM    7  C7  UNL     1       6.148   0.945  14.603  1.00  0.00     0.010 C 
HETATM    8  C8  UNL     1       6.838   0.205  15.762  1.00  0.00     0.006 C 
HETATM    9  C9  UNL     1       6.441   0.858  17.018  1.00  0.00    -0.003 C 
HETATM   10  C10 UNL     1       5.828   0.039  18.100  1.00  0.00     0.015 C 
HETATM   11  C11 UNL     1       6.672  -1.065  18.648  1.00  0.00     0.083 C 
HETATM   12  C21 UNL     1       6.363  -2.397  17.997  1.00  0.00     0.135 C 
HETATM   13  O4  UNL     1       7.305  -3.145  17.803  1.00  0.00    -0.297 OA
HETATM   14  C22 UNL     1       4.987  -2.746  17.626  1.00  0.00     0.080 C 
HETATM   15  C23 UNL     1       4.222  -1.611  17.044  1.00  0.00     0.019 C 
HETATM   16  C24 UNL     1       4.413  -0.363  17.870  1.00  0.00    -0.012 C 
HETATM   17  C25 UNL     1       3.870  -0.776  19.257  1.00  0.00     0.018 C 
HETATM   18  C26 UNL     1       3.545   0.765  17.425  1.00  0.00     0.131 C 
ENDROOT
BRANCH  11  19
HETATM   19  C12 UNL     1       8.093  -0.765  18.613  1.00  0.00    -0.010 C 
BRANCH  19  20
HETATM   20  C13 UNL     1       8.841   0.044  19.274  1.00  0.00     0.052 C 
BRANCH  20  21
HETATM   21  C14 UNL     1       9.567   1.228  18.992  1.00  0.00     0.135 C 
BRANCH  21  22
HETATM   22  O1  UNL     1      10.088   1.278  17.785  1.00  0.00    -0.346 OA
ATOM     23  H1  UNL     1       9.519   1.654  17.123  1.00  0.00     0.219 HD
ENDBRANCH  21  22
BRANCH  21  24
HETATM   24  N1  UNL     1       9.855   2.381  19.731  1.00  0.00    -0.371 N 
ATOM     25  H1  UNL     1       9.660   3.287  19.305  1.00  0.00     0.161 HD
BRANCH  24  26
HETATM   26  C15 UNL     1      10.417   2.360  21.072  1.00  0.00     0.121 C 
BRANCH  26  27
HETATM   27  C16 UNL     1      11.782   1.746  21.162  1.00  0.00     0.020 C 
BRANCH  27  28
HETATM   28  C17 UNL     1      12.836   2.713  21.588  1.00  0.00     0.002 C 
BRANCH  28  29
HETATM   29  C18 UNL     1      13.718   3.057  20.425  1.00  0.00     0.010 C 
BRANCH  29  30
HETATM   30  C19 UNL     1      13.468   2.287  19.174  1.00  0.00     0.113 C 
BRANCH  30  31
HETATM   31  C20 UNL     1      13.117   3.224  18.053  1.00  0.00     0.172 C 
HETATM   32  O2  UNL     1      11.958   3.557  17.771  1.00  0.00    -0.648 OA
HETATM   33  O3  UNL     1      14.161   3.750  17.289  1.00  0.00    -0.648 OA
ENDBRANCH  30  31
ENDBRANCH  29  30
ENDBRANCH  28  29
ENDBRANCH  27  28
ENDBRANCH  26  27
ENDBRANCH  24  26
ENDBRANCH  21  24
ENDBRANCH  20  21
ENDBRANCH  19  20
ENDBRANCH  11  19
BRANCH  18  34
HETATM   34  O5  UNL     1       2.582   0.181  16.560  1.00  0.00    -0.394 OA
ATOM     35  H5  UNL     1       2.900  -0.677  16.309  1.00  0.00     0.210 HD
ENDBRANCH  18  34
TORSDOF 12
ENDMDL
MODEL 2
REMARK VINA RESULT: -9.928878778      1.476      1.680
REMARK  12 active torsions:
REMARK  status: ('A' for Active; 'I' for Inactive)
REMARK    1  A    between atoms: C11_11  and  C12_12 
REMARK    2  A    between atoms: C12_12  and  C13_13 
REMARK    3  A    between atoms: C13_13  and  C14_14 
REMARK    4  A    between atoms: C14_14  and  O1_15 
REMARK    5  A    between atoms: C14_14  and  N1_17 
REMARK    6  A    between atoms: N1_17  and  C15_19 
REMARK    7  A    between atoms: C15_19  and  C16_20 
REMARK    8  A    between atoms: C16_20  and  C17_21 
REMARK    9  A    between atoms: C17_21  and  C18_22 
REMARK   10  A    between atoms: C18_22  and  C19_23 
REMARK   11  A    between atoms: C19_23  and  C20_24 
REMARK   12  A    between atoms: C26_33  and  O5_34 
ROOT
HETATM    1  C1  UNL     1       4.406   3.802  14.077  1.00  0.00     0.014 C 
HETATM    2  C2  UNL     1       4.572   2.799  14.895  1.00  0.00    -0.084 C 
HETATM    3  C3  UNL     1       3.524   1.940  15.478  1.00  0.00     0.041 C 
HETATM    4  C4  UNL     1       4.039   1.755  16.915  1.00  0.00     0.024 C 
HETATM    5  C5  UNL     1       5.495   1.926  16.918  1.00  0.00     0.005 C 
HETATM    6  C6  UNL     1       5.846   2.255  15.456  1.00  0.00     0.019 C 
HETATM    7  C7  UNL     1       6.095   0.922  14.807  1.00  0.00     0.010 C 
HETATM    8  C8  UNL     1       6.762   0.132  15.946  1.00  0.00     0.006 C 
HETATM    9  C9  UNL     1       6.327   0.718  17.222  1.00  0.00    -0.003 C 
HETATM   10  C10 UNL     1       5.694  -0.156  18.246  1.00  0.00     0.015 C 
HETATM   11  C11 UNL     1       6.533  -1.280  18.762  1.00  0.00     0.083 C 
HETATM   12  C21 UNL     1       6.252  -2.580  18.039  1.00  0.00     0.135 C 
HETATM   13  O4  UNL     1       7.205  -3.311  17.833  1.00  0.00    -0.297 OA
HETATM   14  C22 UNL     1       4.888  -2.920  17.616  1.00  0.00     0.080 C 
HETATM   15  C23 UNL     1       4.129  -1.764  17.070  1.00  0.00     0.019 C 
HETATM   16  C24 UNL     1       4.289  -0.556  17.961  1.00  0.00    -0.012 C 
HETATM   17  C25 UNL     1       3.714  -1.041  19.312  1.00  0.00     0.018 C 
HETATM   18  C26 UNL     1       3.422   0.585  17.549  1.00  0.00     0.131 C 
ENDROOT
BRANCH  11  19
HETATM   19  C12 UNL     1       7.952  -0.968  18.778  1.00  0.00    -0.010 C 
BRANCH  19  20
HETATM   20  C13 UNL     1       8.724  -0.414  19.641  1.00  0.00     0.052 C 
BRANCH  20  21
HETATM   21  C14 UNL     1       9.966   0.270  19.615  1.00  0.00     0.135 C 
BRANCH  21  22
HETATM   22  O1  UNL     1      10.548   0.395  20.788  1.00  0.00    -0.346 OA
ATOM     23  H1  UNL     1      11.072   1.181  20.888  1.00  0.00     0.219 HD
ENDBRANCH  21  22
BRANCH  21  24
HETATM   24  N1  UNL     1      10.725   0.849  18.592  1.00  0.00    -0.371 N 
ATOM     25  H1  UNL     1      11.387   0.257  18.090  1.00  0.00     0.161 HD
BRANCH  24  26
HETATM   26  C15 UNL     1      10.623   2.247  18.204  1.00  0.00     0.121 C 
BRANCH  26  27
HETATM   27  C16 UNL     1      11.929   2.984  18.199  1.00  0.00     0.020 C 
BRANCH  27  28
HETATM   28  C17 UNL     1      12.977   2.332  19.039  1.00  0.00     0.002 C 
BRANCH  28  29
HETATM   29  C18 UNL     1      14.199   3.197  19.099  1.00  0.00     0.010 C 
BRANCH  29  30
HETATM   30  C19 UNL     1      14.153   4.441  18.280  1.00  0.00     0.113 C 
BRANCH  30  31
HETATM   31  C20 UNL     1      15.381   5.269  18.530  1.00  0.00     0.172 C 
HETATM   32  O2  UNL     1      15.813   5.536  19.659  1.00  0.00    -0.648 OA
HETATM   33  O3  UNL     1      16.074   5.763  17.422  1.00  0.00    -0.648 OA
ENDBRANCH  30  31
ENDBRANCH  29  30
ENDBRANCH  28  29
ENDBRANCH  27  28
ENDBRANCH  26  27
ENDBRANCH  24  26
ENDBRANCH  21  24
ENDBRANCH  20  21
ENDBRANCH  19  20
ENDBRANCH  11  19
BRANCH  18  34
HETATM   34  O5  UNL     1       2.487   0.038  16.633  1.00  0.00    -0.394 OA
ATOM     35  H5  UNL     1       2.046  -0.684  17.064  1.00  0.00     0.210 HD
ENDBRANCH  18  34
TORSDOF 12
ENDMDL
MODEL 3
REMARK VINA RESULT: -9.874003926      0.764      1.040
REMARK  12 active torsions:
REMARK  status: ('A' for Active; 'I' for Inactive)
REMARK    1  A    between atoms: C11_11  and  C12_12 
REMARK    2  A    between atoms: C12_12  and  C13_13 
REMARK    3  A    between atoms: C13_13  and  C14_14 
REMARK    4  A    between atoms: C14_14  and  O1_15 
REMARK    5  A    between atoms: C14_14  and  N1_17 
REMARK    6  A    between atoms: N1_17  and  C15_19 
REMARK    7  A    between atoms: C15_19  and  C16_20 
REMARK    8  A    between atoms: C16_20  and  C17_21 
REMARK    9  A    between atoms: C17_21  and  C18_22 
REMARK   10  A    between atoms: C18_22  and  C19_23 
REMARK   11  A    between atoms: C19_23  and  C20_24 
REMARK   12  A    between atoms: C26_33  and  O5_34 
ROOT
HETATM    1  C1  UNL     1       4.425   3.757  13.805  1.00  0.00     0.014 C 
HETATM    2  C2  UNL     1       4.613   2.797  14.667  1.00  0.00    -0.084 C 
HETATM    3  C3  UNL     1       3.583   1.963  15.315  1.00  0.00     0.041 C 
HETATM    4  C4  UNL     1       4.129   1.851  16.748  1.00  0.00     0.024 C 
HETATM    5  C5  UNL     1       5.583   2.030  16.712  1.00  0.00     0.005 C 
HETATM    6  C6  UNL     1       5.902   2.287  15.228  1.00  0.00     0.019 C 
HETATM    7  C7  UNL     1       6.145   0.925  14.641  1.00  0.00     0.010 C 
HETATM    8  C8  UNL     1       6.840   0.195  15.803  1.00  0.00     0.006 C 
HETATM    9  C9  UNL     1       6.428   0.843  17.058  1.00  0.00    -0.003 C 
HETATM   10  C10 UNL     1       5.821   0.017  18.137  1.00  0.00     0.015 C 
HETATM   11  C11 UNL     1       6.678  -1.076  18.690  1.00  0.00     0.083 C 
HETATM   12  C21 UNL     1       6.389  -2.412  18.038  1.00  0.00     0.135 C 
HETATM   13  O4  UNL     1       7.342  -3.147  17.849  1.00  0.00    -0.297 OA
HETATM   14  C22 UNL     1       5.020  -2.779  17.661  1.00  0.00     0.080 C 
HETATM   15  C23 UNL     1       4.242  -1.654  17.075  1.00  0.00     0.019 C 
HETATM   16  C24 UNL     1       4.414  -0.403  17.902  1.00  0.00    -0.012 C 
HETATM   17  C25 UNL     1       3.870  -0.824  19.286  1.00  0.00     0.018 C 
HETATM   18  C26 UNL     1       3.532   0.712  17.452  1.00  0.00     0.131 C 
ENDROOT
BRANCH  11  19
HETATM   19  C12 UNL     1       8.095  -0.757  18.661  1.00  0.00    -0.010 C 
BRANCH  19  20
HETATM   20  C13 UNL     1       8.812   0.131  19.249  1.00  0.00     0.052 C 
BRANCH  20  21
HETATM   21  C14 UNL     1       9.674   1.182  18.846  1.00  0.00     0.135 C 
BRANCH  21  22
HETATM   22  O1  UNL     1       9.773   1.341  17.544  1.00  0.00    -0.346 OA
ATOM     23  H1  UNL     1      10.664   1.396  17.219  1.00  0.00     0.219 HD
ENDBRANCH  21  22
BRANCH  21  24
HETATM   24  N1  UNL     1      10.456   2.109  19.545  1.00  0.00    -0.371 N 
ATOM     25  H1  UNL     1       9.988   2.911  19.968  1.00  0.00     0.161 HD
BRANCH  24  26
HETATM   26  C15 UNL     1      11.897   1.993  19.703  1.00  0.00     0.121 C 
BRANCH  26  27
HETATM   27  C16 UNL     1      12.380   2.148  21.114  1.00  0.00     0.020 C 
BRANCH  27  28
HETATM   28  C17 UNL     1      13.757   2.718  21.205  1.00  0.00     0.002 C 
BRANCH  28  29
HETATM   29  C18 UNL     1      14.381   2.775  19.844  1.00  0.00     0.010 C 
BRANCH  29  30
HETATM   30  C19 UNL     1      15.210   3.981  19.562  1.00  0.00     0.113 C 
BRANCH  30  31
HETATM   31  C20 UNL     1      14.961   4.462  18.161  1.00  0.00     0.172 C 
HETATM   32  O2  UNL     1      15.525   5.443  17.659  1.00  0.00    -0.648 OA
HETATM   33  O3  UNL     1      14.040   3.758  17.381  1.00  0.00    -0.648 OA
ENDBRANCH  30  31
ENDBRANCH  29  30
ENDBRANCH  28  29
ENDBRANCH  27  28
ENDBRANCH  26  27
ENDBRANCH  24  26
ENDBRANCH  21  24
ENDBRANCH  20  21
ENDBRANCH  19  20
ENDBRANCH  11  19
BRANCH  18  34
HETATM   34  O5  UNL     1       2.581   0.116  16.583  1.00  0.00    -0.394 OA
ATOM     35  H5  UNL     1       2.829  -0.793  16.461  1.00  0.00     0.210 HD
ENDBRANCH  18  34
TORSDOF 12
ENDMDL
MODEL 4
REMARK VINA RESULT: -9.767963117      2.431      8.229
REMARK  12 active torsions:
REMARK  status: ('A' for Active; 'I' for Inactive)
REMARK    1  A    between atoms: C11_11  and  C12_12 
REMARK    2  A    between atoms: C12_12  and  C13_13 
REMARK    3  A    between atoms: C13_13  and  C14_14 
REMARK    4  A    between atoms: C14_14  and  O1_15 
REMARK    5  A    between atoms: C14_14  and  N1_17 
REMARK    6  A    between atoms: N1_17  and  C15_19 
REMARK    7  A    between atoms: C15_19  and  C16_20 
REMARK    8  A    between atoms: C16_20  and  C17_21 
REMARK    9  A    between atoms: C17_21  and  C18_22 
REMARK   10  A    between atoms: C18_22  and  C19_23 
REMARK   11  A    between atoms: C19_23  and  C20_24 
REMARK   12  A    between atoms: C26_33  and  O5_34 
ROOT
HETATM    1  C1  UNL     1      15.624   4.954  18.210  1.00  0.00     0.014 C 
HETATM    2  C2  UNL     1      14.626   4.272  18.703  1.00  0.00    -0.084 C 
HETATM    3  C3  UNL     1      14.393   3.928  20.118  1.00  0.00     0.041 C 
HETATM    4  C4  UNL     1      13.874   2.485  20.005  1.00  0.00     0.024 C 
HETATM    5  C5  UNL     1      13.270   2.306  18.681  1.00  0.00     0.005 C 
HETATM    6  C6  UNL     1      13.467   3.662  17.982  1.00  0.00     0.019 C 
HETATM    7  C7  UNL     1      12.244   4.462  18.332  1.00  0.00     0.010 C 
HETATM    8  C8  UNL     1      11.149   3.382  18.344  1.00  0.00     0.006 C 
HETATM    9  C9  UNL     1      11.789   2.089  18.627  1.00  0.00    -0.003 C 
HETATM   10  C10 UNL     1      11.299   1.269  19.768  1.00  0.00     0.015 C 
HETATM   11  C11 UNL     1       9.872   0.831  19.700  1.00  0.00     0.083 C 
HETATM   12  C21 UNL     1       8.955   1.755  20.473  1.00  0.00     0.135 C 
HETATM   13  O4  UNL     1       7.853   1.961  19.995  1.00  0.00    -0.297 OA
HETATM   14  C22 UNL     1       9.395   2.362  21.734  1.00  0.00     0.080 C 
HETATM   15  C23 UNL     1      10.811   2.816  21.713  1.00  0.00     0.019 C 
HETATM   16  C24 UNL     1      11.700   1.753  21.117  1.00  0.00    -0.012 C 
HETATM   17  C25 UNL     1      11.492   0.551  22.067  1.00  0.00     0.018 C 
HETATM   18  C26 UNL     1      13.150   2.090  21.217  1.00  0.00     0.131 C 
ENDROOT
BRANCH  11  19
HETATM   19  C12 UNL     1       9.406   0.624  18.340  1.00  0.00    -0.010 C 
BRANCH  19  20
HETATM   20  C13 UNL     1       8.263   0.751  17.769  1.00  0.00     0.052 C 
BRANCH  20  21
HETATM   21  C14 UNL     1       7.775   0.732  16.438  1.00  0.00     0.135 C 
BRANCH  21  22
HETATM   22  O1  UNL     1       8.159   1.751  15.699  1.00  0.00    -0.346 OA
ATOM     23  H1  UNL     1       7.680   2.556  15.856  1.00  0.00     0.219 HD
ENDBRANCH  21  22
BRANCH  21  24
HETATM   24  N1  UNL     1       6.960  -0.153  15.723  1.00  0.00    -0.371 N 
ATOM     25  H1  UNL     1       7.071  -0.197  14.710  1.00  0.00     0.161 HD
BRANCH  24  26
HETATM   26  C15 UNL     1       5.965  -1.013  16.343  1.00  0.00     0.121 C 
BRANCH  26  27
HETATM   27  C16 UNL     1       4.548  -0.564  16.143  1.00  0.00     0.020 C 
BRANCH  27  28
HETATM   28  C17 UNL     1       4.138   0.526  17.078  1.00  0.00     0.002 C 
BRANCH  28  29
HETATM   29  C18 UNL     1       3.692   1.727  16.302  1.00  0.00     0.010 C 
BRANCH  29  30
HETATM   30  C19 UNL     1       4.726   2.778  16.085  1.00  0.00     0.113 C 
BRANCH  30  31
HETATM   31  C20 UNL     1       5.013   2.923  14.617  1.00  0.00     0.172 C 
HETATM   32  O2  UNL     1       5.792   2.191  13.992  1.00  0.00    -0.648 OA
HETATM   33  O3  UNL     1       4.360   3.942  13.920  1.00  0.00    -0.648 OA
ENDBRANCH  30  31
ENDBRANCH  29  30
ENDBRANCH  28  29
ENDBRANCH  27  28
ENDBRANCH  26  27
ENDBRANCH  24  26
ENDBRANCH  21  24
ENDBRANCH  20  21
ENDBRANCH  19  20
ENDBRANCH  11  19
BRANCH  18  34
HETATM   34  O5  UNL     1      13.226   3.166  22.138  1.00  0.00    -0.394 OA
ATOM     35  H5  UNL     1      14.104   3.178  22.498  1.00  0.00     0.210 HD
ENDBRANCH  18  34
TORSDOF 12
ENDMDL
MODEL 5
REMARK VINA RESULT: -9.762525094      2.330      8.047
REMARK  12 active torsions:
REMARK  status: ('A' for Active; 'I' for Inactive)
REMARK    1  A    between atoms: C11_11  and  C12_12 
REMARK    2  A    between atoms: C12_12  and  C13_13 
REMARK    3  A    between atoms: C13_13  and  C14_14 
REMARK    4  A    between atoms: C14_14  and  O1_15 
REMARK    5  A    between atoms: C14_14  and  N1_17 
REMARK    6  A    between atoms: N1_17  and  C15_19 
REMARK    7  A    between atoms: C15_19  and  C16_20 
REMARK    8  A    between atoms: C16_20  and  C17_21 
REMARK    9  A    between atoms: C17_21  and  C18_22 
REMARK   10  A    between atoms: C18_22  and  C19_23 
REMARK   11  A    between atoms: C19_23  and  C20_24 
REMARK   12  A    between atoms: C26_33  and  O5_34 
ROOT
HETATM    1  C1  UNL     1      15.623   4.916  18.196  1.00  0.00     0.014 C 
HETATM    2  C2  UNL     1      14.618   4.242  18.682  1.00  0.00    -0.084 C 
HETATM    3  C3  UNL     1      14.393   3.863  20.090  1.00  0.00     0.041 C 
HETATM    4  C4  UNL     1      13.843   2.434  19.943  1.00  0.00     0.024 C 
HETATM    5  C5  UNL     1      13.221   2.305  18.622  1.00  0.00     0.005 C 
HETATM    6  C6  UNL     1      13.438   3.676  17.958  1.00  0.00     0.019 C 
HETATM    7  C7  UNL     1      12.236   4.490  18.344  1.00  0.00     0.010 C 
HETATM    8  C8  UNL     1      11.119   3.433  18.340  1.00  0.00     0.006 C 
HETATM    9  C9  UNL     1      11.735   2.119  18.579  1.00  0.00    -0.003 C 
HETATM   10  C10 UNL     1      11.241   1.278  19.703  1.00  0.00     0.015 C 
HETATM   11  C11 UNL     1       9.804   0.872  19.639  1.00  0.00     0.083 C 
HETATM   12  C21 UNL     1       8.915   1.792  20.449  1.00  0.00     0.135 C 
HETATM   13  O4  UNL     1       7.812   2.034  19.989  1.00  0.00    -0.297 OA
HETATM   14  C22 UNL     1       9.382   2.355  21.721  1.00  0.00     0.080 C 
HETATM   15  C23 UNL     1      10.806   2.780  21.696  1.00  0.00     0.019 C 
HETATM   16  C24 UNL     1      11.667   1.716  21.060  1.00  0.00    -0.012 C 
HETATM   17  C25 UNL     1      11.444   0.493  21.979  1.00  0.00     0.018 C 
HETATM   18  C26 UNL     1      13.124   2.020  21.152  1.00  0.00     0.131 C 
ENDROOT
BRANCH  11  19
HETATM   19  C12 UNL     1       9.319   0.711  18.280  1.00  0.00    -0.010 C 
BRANCH  19  20
HETATM   20  C13 UNL     1       8.201   0.323  17.782  1.00  0.00     0.052 C 
BRANCH  20  21
HETATM   21  C14 UNL     1       7.310  -0.761  17.987  1.00  0.00     0.135 C 
BRANCH  21  22
HETATM   22  O1  UNL     1       6.893  -0.900  19.228  1.00  0.00    -0.346 OA
ATOM     23  H1  UNL     1       6.009  -1.236  19.312  1.00  0.00     0.219 HD
ENDBRANCH  21  22
BRANCH  21  24
HETATM   24  N1  UNL     1       6.763  -1.732  17.141  1.00  0.00    -0.371 N 
ATOM     25  H1  UNL     1       7.153  -2.674  17.175  1.00  0.00     0.161 HD
BRANCH  24  26
HETATM   26  C15 UNL     1       5.671  -1.474  16.217  1.00  0.00     0.121 C 
BRANCH  26  27
HETATM   27  C16 UNL     1       4.491  -0.779  16.831  1.00  0.00     0.020 C 
BRANCH  27  28
HETATM   28  C17 UNL     1       4.001   0.375  16.021  1.00  0.00     0.002 C 
BRANCH  28  29
HETATM   29  C18 UNL     1       5.066   1.425  15.925  1.00  0.00     0.010 C 
BRANCH  29  30
HETATM   30  C19 UNL     1       5.518   1.764  14.546  1.00  0.00     0.113 C 
BRANCH  30  31
HETATM   31  C20 UNL     1       6.996   1.527  14.415  1.00  0.00     0.172 C 
HETATM   32  O2  UNL     1       7.858   2.289  14.873  1.00  0.00    -0.648 OA
HETATM   33  O3  UNL     1       7.418   0.380  13.740  1.00  0.00    -0.648 OA
ENDBRANCH  30  31
ENDBRANCH  29  30
ENDBRANCH  28  29
ENDBRANCH  27  28
ENDBRANCH  26  27
ENDBRANCH  24  26
ENDBRANCH  21  24
ENDBRANCH  20  21
ENDBRANCH  19  20
ENDBRANCH  11  19
BRANCH  18  34
HETATM   34  O5  UNL     1      13.233   3.069  22.102  1.00  0.00    -0.394 OA
ATOM     35  H5  UNL     1      12.703   2.835  22.854  1.00  0.00     0.210 HD
ENDBRANCH  18  34
TORSDOF 12
ENDMDL
