MODEL 1
REMARK VINA RESULT: -8.898307467      0.000      0.000
REMARK  10 active torsions:
REMARK  status: ('A' for Active; 'I' for Inactive)
REMARK    1  A    between atoms: S1_2  and  C2_3 
REMARK    2  A    between atoms: C2_3  and  C3_4 
REMARK    3  A    between atoms: C3_4  and  C4_5 
REMARK    4  A    between atoms: C4_5  and  N1_6 
REMARK    5  A    between atoms: C4_5  and  C13_20 
REMARK       I    between atoms: N1_6  and  C5_8 
REMARK    6  A    between atoms: C5_8  and  C6_10 
REMARK    7  A    between atoms: C6_10  and  N2_11 
REMARK    8  A    between atoms: C6_10  and  C9_16 
REMARK       I    between atoms: N2_11  and  C7_13 
REMARK    9  A    between atoms: C13_20  and  N3_22 
REMARK   10  A    between atoms: N3_22  and  C14_24 
ROOT
HETATM    1  C4  UNL     1       7.580   1.000  19.234  1.00  0.00     0.146 C 
ENDROOT
BRANCH   1   2
HETATM    2  C3  UNL     1       7.016   1.406  17.884  1.00  0.00     0.042 C 
BRANCH   2   3
HETATM    3  C2  UNL     1       8.017   1.263  16.766  1.00  0.00     0.076 C 
BRANCH   3   4
HETATM    4  S1  UNL     1       7.218   1.841  15.245  1.00  0.00    -0.173 SA
HETATM    5  C1  UNL     1       5.456   2.144  15.551  1.00  0.00     0.089 C 
ENDBRANCH   3   4
ENDBRANCH   2   3
ENDBRANCH   1   2
BRANCH   1   6
HETATM    6  N1  UNL     1       9.018   1.115  19.270  1.00  0.00    -0.348 N 
HETATM    7  C5  UNL     1       9.657   2.099  20.050  1.00  0.00     0.241 C 
HETATM    8  O1  UNL     1       8.850   2.862  20.712  1.00  0.00    -0.271 OA
ATOM      9  H1  UNL     1       9.583   0.470  18.719  1.00  0.00     0.163 HD
BRANCH   7  10
HETATM   10  C6  UNL     1      11.106   2.352  20.187  1.00  0.00     0.184 C 
BRANCH  10  11
HETATM   11  N2  UNL     1      11.673   1.391  21.159  1.00  0.00    -0.347 N 
HETATM   12  C7  UNL     1      12.321   1.847  22.332  1.00  0.00     0.214 C 
HETATM   13  C8  UNL     1      12.893   0.902  23.314  1.00  0.00     0.117 C 
HETATM   14  O2  UNL     1      12.407   3.069  22.535  1.00  0.00    -0.274 OA
ATOM     15  H2  UNL     1      11.595   0.390  20.981  1.00  0.00     0.163 HD
ENDBRANCH  10  11
BRANCH  10  16
HETATM   16  C9  UNL     1      11.907   2.358  18.942  1.00  0.00    -0.022 C 
HETATM   17  C10 UNL     1      11.883   1.065  18.223  1.00  0.00     0.017 C 
HETATM   18  C11 UNL     1      13.362   2.721  19.175  1.00  0.00     0.017 C 
HETATM   19  C12 UNL     1      11.288   3.426  18.026  1.00  0.00     0.017 C 
ENDBRANCH  10  16
ENDBRANCH   7  10
ENDBRANCH   1   6
BRANCH   1  20
HETATM   20  C13 UNL     1       7.108  -0.332  19.632  1.00  0.00     0.096 C 
HETATM   21  S2  UNL     1       6.861  -0.648  21.201  1.00  0.00    -0.063 SA
BRANCH  20  22
HETATM   22  N3  UNL     1       6.908  -1.326  18.653  1.00  0.00    -0.378 N 
ATOM     23  H3  UNL     1       7.706  -1.660  18.112  1.00  0.00     0.160 HD
BRANCH  22  24
HETATM   24  C14 UNL     1       5.617  -1.875  18.401  1.00  0.00     0.086 C 
HETATM   25  C15 UNL     1       5.683  -3.365  18.085  1.00  0.00     0.034 C 
HETATM   26  C16 UNL     1       4.266  -3.889  18.158  1.00  0.00    -0.046 C 
HETATM   27  C17 UNL     1       4.024  -4.670  19.452  1.00  0.00     0.015 C 
HETATM   28  C18 UNL     1       3.970  -4.850  17.027  1.00  0.00     0.015 C 
HETATM   29  C19 UNL     1       3.231  -2.794  18.121  1.00  0.00     0.009 C 
HETATM   30  C20 UNL     1       3.550  -1.719  17.122  1.00  0.00     0.007 C 
HETATM   31  C21 UNL     1       4.972  -1.251  17.164  1.00  0.00     0.004 C 
HETATM   32  C22 UNL     1       5.746  -1.615  15.910  1.00  0.00     0.012 C 
ENDBRANCH  22  24
ENDBRANCH  20  22
ENDBRANCH   1  20
TORSDOF 10
ENDMDL
MODEL 2
REMARK VINA RESULT: -8.707538609      1.328      2.345
REMARK  10 active torsions:
REMARK  status: ('A' for Active; 'I' for Inactive)
REMARK    1  A    between atoms: S1_2  and  C2_3 
REMARK    2  A    between atoms: C2_3  and  C3_4 
REMARK    3  A    between atoms: C3_4  and  C4_5 
REMARK    4  A    between atoms: C4_5  and  N1_6 
REMARK    5  A    between atoms: C4_5  and  C13_20 
REMARK       I    between atoms: N1_6  and  C5_8 
REMARK    6  A    between atoms: C5_8  and  C6_10 
REMARK    7  A    between atoms: C6_10  and  N2_11 
REMARK    8  A    between atoms: C6_10  and  C9_16 
REMARK       I    between atoms: N2_11  and  C7_13 
REMARK    9  A    between atoms: C13_20  and  N3_22 
REMARK   10  A    between atoms: N3_22  and  C14_24 
ROOT
HETATM    1  C4  UNL     1       8.304   0.852  18.642  1.00  0.00     0.146 C 
ENDROOT
BRANCH   1   2
HETATM    2  C3  UNL     1       8.107   0.907  17.137  1.00  0.00     0.042 C 
BRANCH   2   3
HETATM    3  C2  UNL     1       6.899   1.713  16.735  1.00  0.00     0.076 C 
BRANCH   3   4
HETATM    4  S1  UNL     1       7.008   1.997  14.948  1.00  0.00    -0.173 SA
HETATM    5  C1  UNL     1       5.444   2.680  14.335  1.00  0.00     0.089 C 
ENDBRANCH   3   4
ENDBRANCH   2   3
ENDBRANCH   1   2
BRANCH   1   6
HETATM    6  N1  UNL     1       9.702   0.880  19.000  1.00  0.00    -0.348 N 
HETATM    7  C5  UNL     1      10.223   1.876  19.849  1.00  0.00     0.241 C 
HETATM    8  O1  UNL     1       9.349   2.734  20.263  1.00  0.00    -0.271 OA
ATOM      9  H1  UNL     1      10.325   0.162  18.631  1.00  0.00     0.163 HD
BRANCH   7  10
HETATM   10  C6  UNL     1      11.619   2.048  20.300  1.00  0.00     0.184 C 
BRANCH  10  11
HETATM   11  N2  UNL     1      12.052   3.432  20.013  1.00  0.00    -0.347 N 
HETATM   12  C7  UNL     1      12.521   3.792  18.726  1.00  0.00     0.214 C 
HETATM   13  C8  UNL     1      12.957   5.170  18.422  1.00  0.00     0.117 C 
HETATM   14  O2  UNL     1      12.562   2.925  17.838  1.00  0.00    -0.274 OA
ATOM     15  H2  UNL     1      12.013   4.136  20.751  1.00  0.00     0.163 HD
ENDBRANCH  10  11
BRANCH  10  16
HETATM   16  C9  UNL     1      11.917   1.695  21.707  1.00  0.00    -0.022 C 
HETATM   17  C10 UNL     1      11.413   0.359  22.096  1.00  0.00     0.017 C 
HETATM   18  C11 UNL     1      11.359   2.698  22.700  1.00  0.00     0.017 C 
HETATM   19  C12 UNL     1      13.448   1.688  21.845  1.00  0.00     0.017 C 
ENDBRANCH  10  16
ENDBRANCH   7  10
ENDBRANCH   1   6
BRANCH   1  20
HETATM   20  C13 UNL     1       7.589  -0.286  19.234  1.00  0.00     0.096 C 
HETATM   21  S2  UNL     1       7.195  -0.243  20.804  1.00  0.00    -0.063 SA
BRANCH  20  22
HETATM   22  N3  UNL     1       7.287  -1.411  18.442  1.00  0.00    -0.378 N 
ATOM     23  H3  UNL     1       8.029  -1.853  17.900  1.00  0.00     0.160 HD
BRANCH  22  24
HETATM   24  C14 UNL     1       5.967  -1.946  18.380  1.00  0.00     0.086 C 
HETATM   25  C15 UNL     1       5.969  -3.434  18.044  1.00  0.00     0.034 C 
HETATM   26  C16 UNL     1       4.574  -3.946  18.323  1.00  0.00    -0.046 C 
HETATM   27  C17 UNL     1       4.520  -4.739  19.631  1.00  0.00     0.015 C 
HETATM   28  C18 UNL     1       4.101  -4.891  17.240  1.00  0.00     0.015 C 
HETATM   29  C19 UNL     1       3.556  -2.841  18.452  1.00  0.00     0.009 C 
HETATM   30  C20 UNL     1       3.733  -1.758  17.428  1.00  0.00     0.007 C 
HETATM   31  C21 UNL     1       5.151  -1.303  17.261  1.00  0.00     0.004 C 
HETATM   32  C22 UNL     1       5.724  -1.659  15.902  1.00  0.00     0.012 C 
ENDBRANCH  22  24
ENDBRANCH  20  22
ENDBRANCH   1  20
TORSDOF 10
ENDMDL
MODEL 3
REMARK VINA RESULT: -8.594383112      2.950      7.086
REMARK  10 active torsions:
REMARK  status: ('A' for Active; 'I' for Inactive)
REMARK    1  A    between atoms: S1_2  and  C2_3 
REMARK    2  A    between atoms: C2_3  and  C3_4 
REMARK    3  A    between atoms: C3_4  and  C4_5 
REMARK    4  A    between atoms: C4_5  and  N1_6 
REMARK    5  A    between atoms: C4_5  and  C13_20 
REMARK       I    between atoms: N1_6  and  C5_8 
REMARK    6  A    between atoms: C5_8  and  C6_10 
REMARK    7  A    between atoms: C6_10  and  N2_11 
REMARK    8  A    between atoms: C6_10  and  C9_16 
REMARK       I    between atoms: N2_11  and  C7_13 
REMARK    9  A    between atoms: C13_20  and  N3_22 
REMARK   10  A    between atoms: N3_22  and  C14_24 
ROOT
HETATM    1  C4  UNL     1       7.561  -0.256  18.608  1.00  0.00     0.146 C 
ENDROOT
BRANCH   1   2
HETATM    2  C3  UNL     1       8.827  -0.473  19.417  1.00  0.00     0.042 C 
BRANCH   2   3
HETATM    3  C2  UNL     1       8.745   0.121  20.800  1.00  0.00     0.076 C 
BRANCH   3   4
HETATM    4  S1  UNL     1      10.424   0.609  21.280  1.00  0.00    -0.173 SA
HETATM    5  C1  UNL     1      10.703   2.351  20.860  1.00  0.00     0.089 C 
ENDBRANCH   3   4
ENDBRANCH   2   3
ENDBRANCH   1   2
BRANCH   1   6
HETATM    6  N1  UNL     1       6.913  -1.504  18.283  1.00  0.00    -0.348 N 
HETATM    7  C5  UNL     1       5.677  -1.862  18.857  1.00  0.00     0.241 C 
HETATM    8  O1  UNL     1       5.196  -0.984  19.676  1.00  0.00    -0.271 OA
ATOM      9  H1  UNL     1       7.359  -2.140  17.622  1.00  0.00     0.163 HD
BRANCH   7  10
HETATM   10  C6  UNL     1       4.895  -3.095  18.637  1.00  0.00     0.184 C 
BRANCH  10  11
HETATM   11  N2  UNL     1       4.101  -3.385  19.851  1.00  0.00    -0.347 N 
HETATM   12  C7  UNL     1       4.420  -4.490  20.677  1.00  0.00     0.214 C 
HETATM   13  C8  UNL     1       3.639  -4.796  21.893  1.00  0.00     0.117 C 
HETATM   14  O2  UNL     1       5.381  -5.215  20.367  1.00  0.00    -0.274 OA
ATOM     15  H2  UNL     1       3.315  -2.782  20.096  1.00  0.00     0.163 HD
ENDBRANCH  10  11
BRANCH  10  16
HETATM   16  C9  UNL     1       4.031  -3.136  17.435  1.00  0.00    -0.022 C 
HETATM   17  C10 UNL     1       2.824  -2.288  17.551  1.00  0.00     0.017 C 
HETATM   18  C11 UNL     1       3.568  -4.539  17.086  1.00  0.00     0.017 C 
HETATM   19  C12 UNL     1       4.878  -2.607  16.267  1.00  0.00     0.017 C 
ENDBRANCH  10  16
ENDBRANCH   7  10
ENDBRANCH   1   6
BRANCH   1  20
HETATM   20  C13 UNL     1       7.818   0.574  17.424  1.00  0.00     0.096 C 
HETATM   21  S2  UNL     1       9.137   1.513  17.386  1.00  0.00    -0.063 SA
BRANCH  20  22
HETATM   22  N3  UNL     1       6.902   0.570  16.353  1.00  0.00    -0.378 N 
ATOM     23  H3  UNL     1       7.007  -0.121  15.610  1.00  0.00     0.160 HD
BRANCH  22  24
HETATM   24  C14 UNL     1       5.832   1.510  16.284  1.00  0.00     0.086 C 
HETATM   25  C15 UNL     1       4.532   0.861  15.820  1.00  0.00     0.034 C 
HETATM   26  C16 UNL     1       3.427   1.856  16.095  1.00  0.00    -0.046 C 
HETATM   27  C17 UNL     1       2.613   1.461  17.331  1.00  0.00     0.015 C 
HETATM   28  C18 UNL     1       2.441   1.922  14.949  1.00  0.00     0.015 C 
HETATM   29  C19 UNL     1       3.940   3.250  16.350  1.00  0.00     0.009 C 
HETATM   30  C20 UNL     1       5.048   3.646  15.418  1.00  0.00     0.007 C 
HETATM   31  C21 UNL     1       6.106   2.599  15.249  1.00  0.00     0.004 C 
HETATM   32  C22 UNL     1       6.136   2.018  13.848  1.00  0.00     0.012 C 
ENDBRANCH  22  24
ENDBRANCH  20  22
ENDBRANCH   1  20
TORSDOF 10
ENDMDL
MODEL 4
REMARK VINA RESULT: -8.518862213      0.887      1.810
REMARK  10 active torsions:
REMARK  status: ('A' for Active; 'I' for Inactive)
REMARK    1  A    between atoms: S1_2  and  C2_3 
REMARK    2  A    between atoms: C2_3  and  C3_4 
REMARK    3  A    between atoms: C3_4  and  C4_5 
REMARK    4  A    between atoms: C4_5  and  N1_6 
REMARK    5  A    between atoms: C4_5  and  C13_20 
REMARK       I    between atoms: N1_6  and  C5_8 
REMARK    6  A    between atoms: C5_8  and  C6_10 
REMARK    7  A    between atoms: C6_10  and  N2_11 
REMARK    8  A    between atoms: C6_10  and  C9_16 
REMARK       I    between atoms: N2_11  and  C7_13 
REMARK    9  A    between atoms: C13_20  and  N3_22 
REMARK   10  A    between atoms: N3_22  and  C14_24 
ROOT
HETATM    1  C4  UNL     1       7.624   0.918  19.606  1.00  0.00     0.146 C 
ENDROOT
BRANCH   1   2
HETATM    2  C3  UNL     1       7.046   1.199  18.231  1.00  0.00     0.042 C 
BRANCH   2   3
HETATM    3  C2  UNL     1       8.030   0.937  17.119  1.00  0.00     0.076 C 
BRANCH   3   4
HETATM    4  S1  UNL     1       7.079   0.745  15.588  1.00  0.00    -0.173 SA
HETATM    5  C1  UNL     1       7.061   2.310  14.673  1.00  0.00     0.089 C 
ENDBRANCH   3   4
ENDBRANCH   2   3
ENDBRANCH   1   2
BRANCH   1   6
HETATM    6  N1  UNL     1       9.064   1.004  19.609  1.00  0.00    -0.348 N 
HETATM    7  C5  UNL     1       9.733   2.115  20.160  1.00  0.00     0.241 C 
HETATM    8  O1  UNL     1       8.949   3.019  20.651  1.00  0.00    -0.271 OA
ATOM      9  H1  UNL     1       9.610   0.244  19.204  1.00  0.00     0.163 HD
BRANCH   7  10
HETATM   10  C6  UNL     1      11.189   2.357  20.233  1.00  0.00     0.184 C 
BRANCH  10  11
HETATM   11  N2  UNL     1      11.791   1.391  21.177  1.00  0.00    -0.347 N 
HETATM   12  C7  UNL     1      12.462   1.838  22.341  1.00  0.00     0.214 C 
HETATM   13  C8  UNL     1      13.070   0.888  23.294  1.00  0.00     0.117 C 
HETATM   14  O2  UNL     1      12.537   3.059  22.559  1.00  0.00    -0.274 OA
ATOM     15  H2  UNL     1      11.722   0.391  20.987  1.00  0.00     0.163 HD
ENDBRANCH  10  11
BRANCH  10  16
HETATM   16  C9  UNL     1      11.933   2.360  18.953  1.00  0.00    -0.022 C 
HETATM   17  C10 UNL     1      11.894   1.059  18.250  1.00  0.00     0.017 C 
HETATM   18  C11 UNL     1      13.392   2.744  19.117  1.00  0.00     0.017 C 
HETATM   19  C12 UNL     1      11.260   3.410  18.055  1.00  0.00     0.017 C 
ENDBRANCH  10  16
ENDBRANCH   7  10
ENDBRANCH   1   6
BRANCH   1  20
HETATM   20  C13 UNL     1       7.131  -0.357  20.144  1.00  0.00     0.096 C 
HETATM   21  S2  UNL     1       6.413  -0.380  21.595  1.00  0.00    -0.063 SA
BRANCH  20  22
HETATM   22  N3  UNL     1       7.319  -1.545  19.410  1.00  0.00    -0.378 N 
ATOM     23  H3  UNL     1       8.212  -2.034  19.473  1.00  0.00     0.160 HD
BRANCH  22  24
HETATM   24  C14 UNL     1       6.289  -2.080  18.582  1.00  0.00     0.086 C 
HETATM   25  C15 UNL     1       4.935  -1.440  18.869  1.00  0.00     0.034 C 
HETATM   26  C16 UNL     1       4.015  -1.840  17.738  1.00  0.00    -0.046 C 
HETATM   27  C17 UNL     1       3.805  -0.686  16.753  1.00  0.00     0.015 C 
HETATM   28  C18 UNL     1       2.639  -2.214  18.245  1.00  0.00     0.015 C 
HETATM   29  C19 UNL     1       4.544  -2.998  16.930  1.00  0.00     0.009 C 
HETATM   30  C20 UNL     1       5.149  -4.077  17.780  1.00  0.00     0.007 C 
HETATM   31  C21 UNL     1       6.072  -3.569  18.845  1.00  0.00     0.004 C 
HETATM   32  C22 UNL     1       5.532  -3.797  20.244  1.00  0.00     0.012 C 
ENDBRANCH  22  24
ENDBRANCH  20  22
ENDBRANCH   1  20
TORSDOF 10
ENDMDL
MODEL 5
REMARK VINA RESULT: -8.499728848      2.875      7.184
REMARK  10 active torsions:
REMARK  status: ('A' for Active; 'I' for Inactive)
REMARK    1  A    between atoms: S1_2  and  C2_3 
REMARK    2  A    between atoms: C2_3  and  C3_4 
REMARK    3  A    between atoms: C3_4  and  C4_5 
REMARK    4  A    between atoms: C4_5  and  N1_6 
REMARK    5  A    between atoms: C4_5  and  C13_20 
REMARK       I    between atoms: N1_6  and  C5_8 
REMARK    6  A    between atoms: C5_8  and  C6_10 
REMARK    7  A    between atoms: C6_10  and  N2_11 
REMARK    8  A    between atoms: C6_10  and  C9_16 
REMARK       I    between atoms: N2_11  and  C7_13 
REMARK    9  A    between atoms: C13_20  and  N3_22 
REMARK   10  A    between atoms: N3_22  and  C14_24 
ROOT
HETATM    1  C4  UNL     1       7.846  -0.100  19.605  1.00  0.00     0.146 C 
ENDROOT
BRANCH   1   2
HETATM    2  C3  UNL     1       9.333  -0.288  19.851  1.00  0.00     0.042 C 
BRANCH   2   3
HETATM    3  C2  UNL     1       9.812   0.408  21.099  1.00  0.00     0.076 C 
BRANCH   3   4
HETATM    4  S1  UNL     1      11.188   1.487  20.623  1.00  0.00    -0.173 SA
HETATM    5  C1  UNL     1      10.574   3.160  20.291  1.00  0.00     0.089 C 
ENDBRANCH   3   4
ENDBRANCH   2   3
ENDBRANCH   1   2
BRANCH   1   6
HETATM    6  N1  UNL     1       7.146  -1.361  19.571  1.00  0.00    -0.348 N 
HETATM    7  C5  UNL     1       5.880  -1.515  20.171  1.00  0.00     0.241 C 
HETATM    8  O1  UNL     1       5.423  -0.444  20.733  1.00  0.00    -0.271 OA
ATOM      9  H1  UNL     1       7.576  -2.158  19.102  1.00  0.00     0.163 HD
BRANCH   7  10
HETATM   10  C6  UNL     1       5.043  -2.730  20.230  1.00  0.00     0.184 C 
BRANCH  10  11
HETATM   11  N2  UNL     1       5.128  -3.437  18.934  1.00  0.00    -0.347 N 
HETATM   12  C7  UNL     1       4.018  -3.473  18.055  1.00  0.00     0.214 C 
HETATM   13  C8  UNL     1       4.085  -4.175  16.757  1.00  0.00     0.117 C 
HETATM   14  O2  UNL     1       2.968  -2.898  18.389  1.00  0.00    -0.274 OA
ATOM     15  H2  UNL     1       5.995  -3.905  18.671  1.00  0.00     0.163 HD
ENDBRANCH  10  11
BRANCH  10  16
HETATM   16  C9  UNL     1       5.300  -3.668  21.347  1.00  0.00    -0.022 C 
HETATM   17  C10 UNL     1       6.241  -3.133  22.356  1.00  0.00     0.017 C 
HETATM   18  C11 UNL     1       5.843  -5.007  20.884  1.00  0.00     0.017 C 
HETATM   19  C12 UNL     1       3.948  -3.913  22.036  1.00  0.00     0.017 C 
ENDBRANCH  10  16
ENDBRANCH   7  10
ENDBRANCH   1   6
BRANCH   1  20
HETATM   20  C13 UNL     1       7.601   0.718  18.410  1.00  0.00     0.096 C 
HETATM   21  S2  UNL     1       8.860   1.248  17.541  1.00  0.00    -0.063 SA
BRANCH  20  22
HETATM   22  N3  UNL     1       6.281   1.058  18.054  1.00  0.00    -0.378 N 
ATOM     23  H3  UNL     1       5.527   0.898  18.723  1.00  0.00     0.160 HD
BRANCH  22  24
HETATM   24  C14 UNL     1       5.973   1.619  16.780  1.00  0.00     0.086 C 
HETATM   25  C15 UNL     1       4.536   2.126  16.712  1.00  0.00     0.034 C 
HETATM   26  C16 UNL     1       4.431   2.971  15.463  1.00  0.00    -0.046 C 
HETATM   27  C17 UNL     1       4.428   4.466  15.797  1.00  0.00     0.015 C 
HETATM   28  C18 UNL     1       3.141   2.705  14.718  1.00  0.00     0.015 C 
HETATM   29  C19 UNL     1       5.575   2.751  14.505  1.00  0.00     0.009 C 
HETATM   30  C20 UNL     1       5.952   1.305  14.365  1.00  0.00     0.007 C 
HETATM   31  C21 UNL     1       6.063   0.575  15.668  1.00  0.00     0.004 C 
HETATM   32  C22 UNL     1       4.992  -0.487  15.837  1.00  0.00     0.012 C 
ENDBRANCH  22  24
ENDBRANCH  20  22
ENDBRANCH   1  20
TORSDOF 10
ENDMDL
