MODEL 1
REMARK VINA RESULT: -9.535767749      0.000      0.000
REMARK  9 active torsions:
REMARK  status: ('A' for Active; 'I' for Inactive)
REMARK    1  A    between atoms: C2_2  and  C3_3 
REMARK    2  A    between atoms: C3_3  and  C4_4 
REMARK    3  A    between atoms: C19_20  and  C20_21 
REMARK    4  A    between atoms: C21_24  and  C22_25 
REMARK       I    between atoms: C22_25  and  N1_27 
REMARK    5  A    between atoms: N1_27  and  C23_29 
REMARK    6  A    between atoms: C23_29  and  C24_30 
REMARK    7  A    between atoms: C24_30  and  C25_31 
REMARK    8  A    between atoms: C25_31  and  C26_32 
REMARK    9  A    between atoms: C26_32  and  N2_33 
ROOT
HETATM    1  C4  UNL     1       9.452   1.276  19.361  1.00  0.00    -0.040 C 
HETATM    2  C5  UNL     1      10.127   1.603  18.069  1.00  0.00     0.015 C 
HETATM    3  C6  UNL     1      10.087   0.150  20.119  1.00  0.00     0.010 C 
HETATM    4  C7  UNL     1       8.981  -0.374  21.020  1.00  0.00     0.006 C 
HETATM    5  C8  UNL     1       7.689   0.160  20.446  1.00  0.00     0.002 C 
HETATM    6  C9  UNL     1       8.013   0.805  19.154  1.00  0.00    -0.001 C 
HETATM    7  C10 UNL     1       7.892  -0.274  18.146  1.00  0.00     0.017 C 
HETATM    8  C11 UNL     1       6.913  -1.318  18.651  1.00  0.00    -0.015 C 
HETATM    9  C12 UNL     1       7.614  -2.643  18.510  1.00  0.00     0.017 C 
HETATM   10  C13 UNL     1       6.724  -0.918  20.082  1.00  0.00     0.069 C 
HETATM   11  C14 UNL     1       5.359  -0.381  20.095  1.00  0.00     0.137 C 
HETATM   12  O1  UNL     1       4.692  -0.153  21.083  1.00  0.00    -0.297 OA
HETATM   13  C15 UNL     1       4.884  -0.143  18.706  1.00  0.00     0.075 C 
HETATM   14  C16 UNL     1       3.420  -0.073  18.575  1.00  0.00     0.013 C 
HETATM   15  C17 UNL     1       2.785  -0.892  17.513  1.00  0.00     0.002 C 
HETATM   16  C18 UNL     1       3.540  -2.046  17.009  1.00  0.00     0.017 C 
HETATM   17  C19 UNL     1       4.760  -2.419  17.846  1.00  0.00     0.106 C 
HETATM   18  C21 UNL     1       5.599  -1.216  17.946  1.00  0.00     0.072 C 
ENDROOT
BRANCH  18  19
HETATM   19  C22 UNL     1       5.764  -0.704  16.545  1.00  0.00     0.228 C 
HETATM   20  O4  UNL     1       6.005  -1.475  15.588  1.00  0.00    -0.273 OA
HETATM   21  N1  UNL     1       5.650   0.698  16.254  1.00  0.00    -0.360 N 
ATOM     22  H1  UNL     1       5.453   1.355  17.010  1.00  0.00     0.162 HD
BRANCH  21  23
HETATM   23  C23 UNL     1       5.808   1.189  14.910  1.00  0.00     0.122 C 
BRANCH  23  24
HETATM   24  C24 UNL     1       6.004   2.663  14.900  1.00  0.00     0.021 C 
BRANCH  24  25
HETATM   25  C25 UNL     1       4.931   3.435  15.589  1.00  0.00     0.029 C 
BRANCH  25  26
HETATM   26  C26 UNL     1       4.089   4.226  14.619  1.00  0.00     0.229 C 
BRANCH  26  27
HETATM   27  N2  UNL     1       4.740   4.244  13.322  1.00  0.00    -0.079 N 
ATOM     28  H23 UNL     1       5.652   3.788  13.341  1.00  0.00     0.274 HD
ATOM     29  H22 UNL     1       4.283   3.627  12.651  1.00  0.00     0.274 HD
ATOM     30  H21 UNL     1       4.796   5.206  12.986  1.00  0.00     0.274 HD
ENDBRANCH  26  27
ENDBRANCH  25  26
ENDBRANCH  24  25
ENDBRANCH  23  24
ENDBRANCH  21  23
ENDBRANCH  18  19
BRANCH  17  31
HETATM   31  C20 UNL     1       4.294  -3.094  19.038  1.00  0.00     0.178 C 
HETATM   32  O2  UNL     1       5.014  -3.970  19.620  1.00  0.00    -0.648 OA
HETATM   33  O3  UNL     1       3.082  -2.903  19.681  1.00  0.00    -0.648 OA
ENDBRANCH  17  31
BRANCH   1  34
HETATM   34  C3  UNL     1       9.342   2.540  20.199  1.00  0.00     0.009 C 
BRANCH  34  35
HETATM   35  C2  UNL     1      10.523   3.451  20.001  1.00  0.00    -0.004 C 
HETATM   36  C1  UNL     1      11.542   3.107  21.067  1.00  0.00     0.005 C 
ENDBRANCH  34  35
ENDBRANCH   1  34
TORSDOF 9
ENDMDL
MODEL 2
REMARK VINA RESULT: -9.499995222      1.047      1.258
REMARK  9 active torsions:
REMARK  status: ('A' for Active; 'I' for Inactive)
REMARK    1  A    between atoms: C2_2  and  C3_3 
REMARK    2  A    between atoms: C3_3  and  C4_4 
REMARK    3  A    between atoms: C19_20  and  C20_21 
REMARK    4  A    between atoms: C21_24  and  C22_25 
REMARK       I    between atoms: C22_25  and  N1_27 
REMARK    5  A    between atoms: N1_27  and  C23_29 
REMARK    6  A    between atoms: C23_29  and  C24_30 
REMARK    7  A    between atoms: C24_30  and  C25_31 
REMARK    8  A    between atoms: C25_31  and  C26_32 
REMARK    9  A    between atoms: C26_32  and  N2_33 
ROOT
HETATM    1  C4  UNL     1       9.226   1.270  19.109  1.00  0.00    -0.040 C 
HETATM    2  C5  UNL     1       9.466   1.760  17.719  1.00  0.00     0.015 C 
HETATM    3  C6  UNL     1      10.132   0.155  19.535  1.00  0.00     0.010 C 
HETATM    4  C7  UNL     1       9.380  -0.541  20.656  1.00  0.00     0.006 C 
HETATM    5  C8  UNL     1       7.943  -0.091  20.534  1.00  0.00     0.002 C 
HETATM    6  C9  UNL     1       7.826   0.680  19.276  1.00  0.00    -0.001 C 
HETATM    7  C10 UNL     1       7.489  -0.324  18.240  1.00  0.00     0.017 C 
HETATM    8  C11 UNL     1       6.778  -1.494  18.895  1.00  0.00    -0.015 C 
HETATM    9  C12 UNL     1       7.497  -2.730  18.425  1.00  0.00     0.017 C 
HETATM   10  C13 UNL     1       6.991  -1.226  20.353  1.00  0.00     0.069 C 
HETATM   11  C14 UNL     1       5.656  -0.826  20.812  1.00  0.00     0.137 C 
HETATM   12  O1  UNL     1       5.294  -0.740  21.967  1.00  0.00    -0.297 OA
HETATM   13  C15 UNL     1       4.777  -0.529  19.650  1.00  0.00     0.075 C 
HETATM   14  C16 UNL     1       3.338  -0.590  19.951  1.00  0.00     0.013 C 
HETATM   15  C17 UNL     1       2.478  -1.382  19.038  1.00  0.00     0.002 C 
HETATM   16  C18 UNL     1       3.130  -2.416  18.223  1.00  0.00     0.017 C 
HETATM   17  C19 UNL     1       4.565  -2.732  18.633  1.00  0.00     0.106 C 
HETATM   18  C21 UNL     1       5.310  -1.465  18.611  1.00  0.00     0.072 C 
ENDROOT
BRANCH  18  19
HETATM   19  C22 UNL     1       5.020  -0.832  17.281  1.00  0.00     0.228 C 
HETATM   20  O4  UNL     1       5.129  -1.474  16.211  1.00  0.00    -0.273 OA
HETATM   21  N1  UNL     1       4.604   0.539  17.192  1.00  0.00    -0.360 N 
ATOM     22  H1  UNL     1       4.504   1.091  18.045  1.00  0.00     0.162 HD
BRANCH  21  23
HETATM   23  C23 UNL     1       4.325   1.145  15.917  1.00  0.00     0.122 C 
BRANCH  23  24
HETATM   24  C24 UNL     1       5.244   2.285  15.655  1.00  0.00     0.021 C 
BRANCH  24  25
HETATM   25  C25 UNL     1       6.627   1.887  15.266  1.00  0.00     0.029 C 
BRANCH  25  26
HETATM   26  C26 UNL     1       6.721   1.514  13.807  1.00  0.00     0.229 C 
BRANCH  26  27
HETATM   27  N2  UNL     1       5.980   2.480  13.016  1.00  0.00    -0.079 N 
ATOM     28  H23 UNL     1       5.943   3.397  13.461  1.00  0.00     0.274 HD
ATOM     29  H22 UNL     1       6.479   2.750  12.169  1.00  0.00     0.274 HD
ATOM     30  H21 UNL     1       5.051   2.109  12.816  1.00  0.00     0.274 HD
ENDBRANCH  26  27
ENDBRANCH  25  26
ENDBRANCH  24  25
ENDBRANCH  23  24
ENDBRANCH  21  23
ENDBRANCH  18  19
BRANCH  17  31
HETATM   31  C20 UNL     1       4.519  -3.539  19.833  1.00  0.00     0.178 C 
HETATM   32  O2  UNL     1       5.431  -4.393  20.085  1.00  0.00    -0.648 OA
HETATM   33  O3  UNL     1       3.546  -3.507  20.819  1.00  0.00    -0.648 OA
ENDBRANCH  17  31
BRANCH   1  34
HETATM   34  C3  UNL     1       9.279   2.449  20.068  1.00  0.00     0.009 C 
BRANCH  34  35
HETATM   35  C2  UNL     1      10.483   3.319  19.824  1.00  0.00    -0.004 C 
HETATM   36  C1  UNL     1      11.460   3.061  20.953  1.00  0.00     0.005 C 
ENDBRANCH  34  35
ENDBRANCH   1  34
TORSDOF 9
ENDMDL
MODEL 3
REMARK VINA RESULT: -8.574305415      2.614      5.695
REMARK  9 active torsions:
REMARK  status: ('A' for Active; 'I' for Inactive)
REMARK    1  A    between atoms: C2_2  and  C3_3 
REMARK    2  A    between atoms: C3_3  and  C4_4 
REMARK    3  A    between atoms: C19_20  and  C20_21 
REMARK    4  A    between atoms: C21_24  and  C22_25 
REMARK       I    between atoms: C22_25  and  N1_27 
REMARK    5  A    between atoms: N1_27  and  C23_29 
REMARK    6  A    between atoms: C23_29  and  C24_30 
REMARK    7  A    between atoms: C24_30  and  C25_31 
REMARK    8  A    between atoms: C25_31  and  C26_32 
REMARK    9  A    between atoms: C26_32  and  N2_33 
ROOT
HETATM    1  C4  UNL     1       4.366   0.395  16.948  1.00  0.00    -0.040 C 
HETATM    2  C5  UNL     1       5.204   1.617  17.130  1.00  0.00     0.015 C 
HETATM    3  C6  UNL     1       2.890   0.645  17.009  1.00  0.00     0.010 C 
HETATM    4  C7  UNL     1       2.289  -0.700  17.379  1.00  0.00     0.006 C 
HETATM    5  C8  UNL     1       3.429  -1.528  17.927  1.00  0.00     0.002 C 
HETATM    6  C9  UNL     1       4.602  -0.635  18.053  1.00  0.00    -0.001 C 
HETATM    7  C10 UNL     1       4.504  -0.060  19.415  1.00  0.00     0.017 C 
HETATM    8  C11 UNL     1       3.741  -1.024  20.306  1.00  0.00    -0.015 C 
HETATM    9  C12 UNL     1       2.668  -0.207  20.975  1.00  0.00     0.017 C 
HETATM   10  C13 UNL     1       3.185  -2.004  19.320  1.00  0.00     0.069 C 
HETATM   11  C14 UNL     1       3.980  -3.211  19.572  1.00  0.00     0.137 C 
HETATM   12  O1  UNL     1       3.727  -4.329  19.173  1.00  0.00    -0.297 OA
HETATM   13  C15 UNL     1       5.169  -2.883  20.402  1.00  0.00     0.075 C 
HETATM   14  C16 UNL     1       5.752  -4.038  21.103  1.00  0.00     0.013 C 
HETATM   15  C17 UNL     1       6.030  -3.893  22.553  1.00  0.00     0.002 C 
HETATM   16  C18 UNL     1       5.291  -2.854  23.282  1.00  0.00     0.017 C 
HETATM   17  C19 UNL     1       4.123  -2.249  22.509  1.00  0.00     0.106 C 
HETATM   18  C21 UNL     1       4.662  -1.748  21.235  1.00  0.00     0.072 C 
ENDROOT
BRANCH  18  19
HETATM   19  C22 UNL     1       5.858  -0.912  21.587  1.00  0.00     0.228 C 
HETATM   20  O4  UNL     1       5.839  -0.111  22.549  1.00  0.00    -0.273 OA
HETATM   21  N1  UNL     1       7.071  -1.004  20.825  1.00  0.00    -0.360 N 
ATOM     22  H1  UNL     1       7.122  -1.647  20.033  1.00  0.00     0.162 HD
BRANCH  21  23
HETATM   23  C23 UNL     1       8.218  -0.203  21.162  1.00  0.00     0.122 C 
BRANCH  23  24
HETATM   24  C24 UNL     1       9.064   0.049  19.965  1.00  0.00     0.021 C 
BRANCH  24  25
HETATM   25  C25 UNL     1       8.321   0.057  18.672  1.00  0.00     0.029 C 
BRANCH  25  26
HETATM   26  C26 UNL     1       8.817   1.134  17.739  1.00  0.00     0.229 C 
BRANCH  26  27
HETATM   27  N2  UNL     1      10.240   1.329  17.946  1.00  0.00    -0.079 N 
ATOM     28  H23 UNL     1      10.607   0.741  18.694  1.00  0.00     0.274 HD
ATOM     29  H22 UNL     1      10.798   0.952  17.179  1.00  0.00     0.274 HD
ATOM     30  H21 UNL     1      10.425   2.320  18.108  1.00  0.00     0.274 HD
ENDBRANCH  26  27
ENDBRANCH  25  26
ENDBRANCH  24  25
ENDBRANCH  23  24
ENDBRANCH  21  23
ENDBRANCH  18  19
BRANCH  17  31
HETATM   31  C20 UNL     1       3.035  -3.201  22.525  1.00  0.00     0.178 C 
HETATM   32  O2  UNL     1       1.822  -2.812  22.551  1.00  0.00    -0.648 OA
HETATM   33  O3  UNL     1       3.140  -4.583  22.516  1.00  0.00    -0.648 OA
ENDBRANCH  17  31
BRANCH   1  34
HETATM   34  C3  UNL     1       4.776  -0.302  15.660  1.00  0.00     0.009 C 
BRANCH  34  35
HETATM   35  C2  UNL     1       6.201  -0.782  15.708  1.00  0.00    -0.004 C 
HETATM   36  C1  UNL     1       6.915  -0.197  14.507  1.00  0.00     0.005 C 
ENDBRANCH  34  35
ENDBRANCH   1  34
TORSDOF 9
ENDMDL
MODEL 4
REMARK VINA RESULT: -8.573691221      2.912      5.473
REMARK  9 active torsions:
REMARK  status: ('A' for Active; 'I' for Inactive)
REMARK    1  A    between atoms: C2_2  and  C3_3 
REMARK    2  A    between atoms: C3_3  and  C4_4 
REMARK    3  A    between atoms: C19_20  and  C20_21 
REMARK    4  A    between atoms: C21_24  and  C22_25 
REMARK       I    between atoms: C22_25  and  N1_27 
REMARK    5  A    between atoms: N1_27  and  C23_29 
REMARK    6  A    between atoms: C23_29  and  C24_30 
REMARK    7  A    between atoms: C24_30  and  C25_31 
REMARK    8  A    between atoms: C25_31  and  C26_32 
REMARK    9  A    between atoms: C26_32  and  N2_33 
ROOT
HETATM    1  C4  UNL     1       3.696   0.228  22.966  1.00  0.00    -0.040 C 
HETATM    2  C5  UNL     1       4.853   1.018  23.483  1.00  0.00     0.015 C 
HETATM    3  C6  UNL     1       3.505  -1.098  23.638  1.00  0.00     0.010 C 
HETATM    4  C7  UNL     1       2.721  -1.925  22.634  1.00  0.00     0.006 C 
HETATM    5  C8  UNL     1       2.871  -1.219  21.306  1.00  0.00     0.002 C 
HETATM    6  C9  UNL     1       3.863  -0.137  21.491  1.00  0.00    -0.001 C 
HETATM    7  C10 UNL     1       5.172  -0.760  21.189  1.00  0.00     0.017 C 
HETATM    8  C11 UNL     1       4.961  -1.921  20.234  1.00  0.00    -0.015 C 
HETATM    9  C12 UNL     1       5.679  -3.094  20.846  1.00  0.00     0.017 C 
HETATM   10  C13 UNL     1       3.473  -2.086  20.251  1.00  0.00     0.069 C 
HETATM   11  C14 UNL     1       3.073  -1.598  18.927  1.00  0.00     0.137 C 
HETATM   12  O1  UNL     1       1.990  -1.759  18.404  1.00  0.00    -0.297 OA
HETATM   13  C15 UNL     1       4.195  -0.860  18.288  1.00  0.00     0.075 C 
HETATM   14  C16 UNL     1       4.088  -0.751  16.824  1.00  0.00     0.013 C 
HETATM   15  C17 UNL     1       5.279  -1.116  16.019  1.00  0.00     0.002 C 
HETATM   16  C18 UNL     1       6.275  -1.994  16.646  1.00  0.00     0.017 C 
HETATM   17  C19 UNL     1       5.812  -2.649  17.944  1.00  0.00     0.106 C 
HETATM   18  C21 UNL     1       5.389  -1.567  18.847  1.00  0.00     0.072 C 
ENDROOT
BRANCH  18  19
HETATM   19  C22 UNL     1       6.509  -0.567  18.854  1.00  0.00     0.228 C 
HETATM   20  O4  UNL     1       6.297   0.657  18.701  1.00  0.00    -0.273 OA
HETATM   21  N1  UNL     1       7.870  -0.986  19.041  1.00  0.00    -0.360 N 
ATOM     22  H1  UNL     1       8.079  -1.976  19.169  1.00  0.00     0.162 HD
BRANCH  21  23
HETATM   23  C23 UNL     1       8.943  -0.027  19.048  1.00  0.00     0.122 C 
BRANCH  23  24
HETATM   24  C24 UNL     1       9.464   0.179  20.426  1.00  0.00     0.021 C 
BRANCH  24  25
HETATM   25  C25 UNL     1      10.675   1.046  20.506  1.00  0.00     0.029 C 
BRANCH  25  26
HETATM   26  C26 UNL     1      10.466   2.233  21.412  1.00  0.00     0.229 C 
BRANCH  26  27
HETATM   27  N2  UNL     1       9.333   3.006  20.937  1.00  0.00    -0.079 N 
ATOM     28  H23 UNL     1       9.213   2.935  19.927  1.00  0.00     0.274 HD
ATOM     29  H22 UNL     1       8.441   2.597  21.217  1.00  0.00     0.274 HD
ATOM     30  H21 UNL     1       9.429   3.973  21.248  1.00  0.00     0.274 HD
ENDBRANCH  26  27
ENDBRANCH  25  26
ENDBRANCH  24  25
ENDBRANCH  23  24
ENDBRANCH  21  23
ENDBRANCH  18  19
BRANCH  17  31
HETATM   31  C20 UNL     1       4.905  -3.722  17.605  1.00  0.00     0.178 C 
HETATM   32  O2  UNL     1       4.757  -4.726  18.376  1.00  0.00    -0.648 OA
HETATM   33  O3  UNL     1       4.115  -3.815  16.470  1.00  0.00    -0.648 OA
ENDBRANCH  17  31
BRANCH   1  34
HETATM   34  C3  UNL     1       2.442   1.086  23.026  1.00  0.00     0.009 C 
BRANCH  34  35
HETATM   35  C2  UNL     1       2.692   2.402  23.712  1.00  0.00    -0.004 C 
HETATM   36  C1  UNL     1       1.358   3.109  23.832  1.00  0.00     0.005 C 
ENDBRANCH  34  35
ENDBRANCH   1  34
TORSDOF 9
ENDMDL
MODEL 5
REMARK VINA RESULT: -8.409190806      2.847      4.857
REMARK  9 active torsions:
REMARK  status: ('A' for Active; 'I' for Inactive)
REMARK    1  A    between atoms: C2_2  and  C3_3 
REMARK    2  A    between atoms: C3_3  and  C4_4 
REMARK    3  A    between atoms: C19_20  and  C20_21 
REMARK    4  A    between atoms: C21_24  and  C22_25 
REMARK       I    between atoms: C22_25  and  N1_27 
REMARK    5  A    between atoms: N1_27  and  C23_29 
REMARK    6  A    between atoms: C23_29  and  C24_30 
REMARK    7  A    between atoms: C24_30  and  C25_31 
REMARK    8  A    between atoms: C25_31  and  C26_32 
REMARK    9  A    between atoms: C26_32  and  N2_33 
ROOT
HETATM    1  C4  UNL     1       9.155   1.061  20.637  1.00  0.00    -0.040 C 
HETATM    2  C5  UNL     1       8.645   1.921  21.747  1.00  0.00     0.015 C 
HETATM    3  C6  UNL     1       9.348   1.781  19.337  1.00  0.00     0.010 C 
HETATM    4  C7  UNL     1       9.292   0.689  18.283  1.00  0.00     0.006 C 
HETATM    5  C8  UNL     1       8.653  -0.504  18.955  1.00  0.00     0.002 C 
HETATM    6  C9  UNL     1       8.178  -0.061  20.285  1.00  0.00    -0.001 C 
HETATM    7  C10 UNL     1       6.796   0.420  20.059  1.00  0.00     0.017 C 
HETATM    8  C11 UNL     1       6.212  -0.296  18.854  1.00  0.00    -0.015 C 
HETATM    9  C12 UNL     1       5.658   0.783  17.962  1.00  0.00     0.017 C 
HETATM   10  C13 UNL     1       7.414  -0.967  18.264  1.00  0.00     0.069 C 
HETATM   11  C14 UNL     1       7.181  -2.383  18.568  1.00  0.00     0.137 C 
HETATM   12  O1  UNL     1       7.773  -3.324  18.081  1.00  0.00    -0.297 OA
HETATM   13  C15 UNL     1       6.098  -2.524  19.577  1.00  0.00     0.075 C 
HETATM   14  C16 UNL     1       5.464  -3.852  19.599  1.00  0.00     0.013 C 
HETATM   15  C17 UNL     1       3.982  -3.906  19.568  1.00  0.00     0.002 C 
HETATM   16  C18 UNL     1       3.274  -2.733  19.039  1.00  0.00     0.017 C 
HETATM   17  C19 UNL     1       4.168  -1.724  18.324  1.00  0.00     0.106 C 
HETATM   18  C21 UNL     1       5.231  -1.345  19.268  1.00  0.00     0.072 C 
ENDROOT
BRANCH  18  19
HETATM   19  C22 UNL     1       4.541  -0.977  20.550  1.00  0.00     0.228 C 
HETATM   20  O4  UNL     1       3.529  -0.241  20.563  1.00  0.00    -0.273 OA
HETATM   21  N1  UNL     1       5.023  -1.464  21.811  1.00  0.00    -0.360 N 
ATOM     22  H1  UNL     1       5.846  -2.068  21.838  1.00  0.00     0.162 HD
BRANCH  21  23
HETATM   23  C23 UNL     1       4.361  -1.113  23.040  1.00  0.00     0.122 C 
BRANCH  23  24
HETATM   24  C24 UNL     1       5.167  -0.137  23.820  1.00  0.00     0.021 C 
BRANCH  24  25
HETATM   25  C25 UNL     1       4.879   1.293  23.508  1.00  0.00     0.029 C 
BRANCH  25  26
HETATM   26  C26 UNL     1       4.897   2.158  24.744  1.00  0.00     0.229 C 
BRANCH  26  27
HETATM   27  N2  UNL     1       5.773   3.294  24.521  1.00  0.00    -0.079 N 
ATOM     28  H23 UNL     1       6.353   3.501  25.334  1.00  0.00     0.274 HD
ATOM     29  H22 UNL     1       6.521   3.082  23.861  1.00  0.00     0.274 HD
ATOM     30  H21 UNL     1       5.216   4.098  24.229  1.00  0.00     0.274 HD
ENDBRANCH  26  27
ENDBRANCH  25  26
ENDBRANCH  24  25
ENDBRANCH  23  24
ENDBRANCH  21  23
ENDBRANCH  18  19
BRANCH  17  31
HETATM   31  C20 UNL     1       4.496  -2.261  17.022  1.00  0.00     0.178 C 
HETATM   32  O2  UNL     1       4.854  -1.496  16.068  1.00  0.00    -0.648 OA
HETATM   33  O3  UNL     1       4.472  -3.593  16.643  1.00  0.00    -0.648 OA
ENDBRANCH  17  31
BRANCH   1  34
HETATM   34  C3  UNL     1      10.423   0.357  21.096  1.00  0.00     0.009 C 
BRANCH  34  35
HETATM   35  C2  UNL     1      11.136   1.127  22.174  1.00  0.00    -0.004 C 
HETATM   36  C1  UNL     1      12.325   1.808  21.530  1.00  0.00     0.005 C 
ENDBRANCH  34  35
ENDBRANCH   1  34
TORSDOF 9
ENDMDL
