MODEL 1
REMARK VINA RESULT: -8.469132278      0.000      0.000
REMARK  12 active torsions:
REMARK  status: ('A' for Active; 'I' for Inactive)
REMARK       I    between atoms: C2_2  and  N1_4 
REMARK    1  A    between atoms: N1_4  and  C3_6 
REMARK    2  A    between atoms: C3_6  and  C4_7 
REMARK    3  A    between atoms: C4_7  and  S1_8 
REMARK    4  A    between atoms: S1_8  and  S2_9 
REMARK    5  A    between atoms: S2_9  and  C5_10 
REMARK    6  A    between atoms: C5_10  and  C6_11 
REMARK    7  A    between atoms: C6_11  and  N2_12 
REMARK    8  A    between atoms: C10_17  and  S3_18 
REMARK    9  A    between atoms: C11_22  and  N3_23 
REMARK   10  A    between atoms: C12_29  and  N6_30 
REMARK   11  A    between atoms: N6_30  and  N7_32 
REMARK   12  A    between atoms: N8_35  and  O5_36 
ROOT
HETATM    1  N2  UNL     1      29.635  -0.217  14.702  1.00  0.00    -0.390 N 
ATOM      2  H2  UNL     1      28.649  -0.475  14.693  1.00  0.00     0.159 HD
HETATM    3  C7  UNL     1      30.002   0.924  14.250  1.00  0.00     0.044 C 
HETATM    4  C8  UNL     1      29.202   2.001  13.683  1.00  0.00     0.065 A 
HETATM    5  C9  UNL     1      30.074   2.746  12.919  1.00  0.00     0.073 A 
HETATM    6  C10 UNL     1      29.611   3.855  12.239  1.00  0.00     0.153 A 
HETATM    7  C11 UNL     1      28.276   4.171  12.358  1.00  0.00     0.150 A 
HETATM    8  N4  UNL     1      27.440   3.420  13.118  1.00  0.00    -0.204 N 
HETATM    9  N5  UNL     1      26.151   3.498  13.397  1.00  0.00    -0.118 N 
ATOM     10  H5  UNL     1      25.516   4.214  13.045  1.00  0.00     0.206 HD
HETATM   11  C12 UNL     1      25.803   2.491  14.215  1.00  0.00     0.739 A 
HETATM   12  N8  UNL     1      26.891   1.744  14.471  1.00  0.00    -0.030 N 
HETATM   13  C13 UNL     1      27.884   2.323  13.794  1.00  0.00     0.190 A 
HETATM   14  N9  UNL     1      31.393   2.186  12.979  1.00  0.00    -0.378 N 
ATOM     15  H9  UNL     1      32.151   2.308  12.308  1.00  0.00     0.160 HD
HETATM   16  C14 UNL     1      31.414   1.401  14.213  1.00  0.00     0.128 C 
HETATM   17  C15 UNL     1      31.739   2.275  15.404  1.00  0.00     0.039 C 
ENDROOT
BRANCH   1  18
HETATM   18  C6  UNL     1      30.607  -1.124  15.217  1.00  0.00     0.130 C 
BRANCH  18  19
HETATM   19  C5  UNL     1      30.322  -1.596  16.621  1.00  0.00     0.105 C 
BRANCH  19  20
HETATM   20  S2  UNL     1      31.603  -0.814  17.678  1.00  0.00    -0.096 SA
BRANCH  20  21
HETATM   21  S1  UNL     1      30.579   0.582  18.915  1.00  0.00    -0.096 SA
BRANCH  21  22
HETATM   22  C4  UNL     1      29.115   1.126  17.952  1.00  0.00     0.105 C 
BRANCH  22  23
HETATM   23  C3  UNL     1      27.954   1.081  18.915  1.00  0.00     0.133 C 
BRANCH  23  24
HETATM   24  N1  UNL     1      27.989  -0.084  19.764  1.00  0.00    -0.361 N 
HETATM   25  C2  UNL     1      27.360  -0.110  21.028  1.00  0.00     0.213 C 
HETATM   26  C1  UNL     1      27.421  -1.335  21.885  1.00  0.00     0.117 C 
HETATM   27  O1  UNL     1      26.731   0.851  21.507  1.00  0.00    -0.274 OA
ATOM     28  H1  UNL     1      28.483  -0.915  19.440  1.00  0.00     0.162 HD
ENDBRANCH  23  24
ENDBRANCH  22  23
ENDBRANCH  21  22
ENDBRANCH  20  21
ENDBRANCH  19  20
ENDBRANCH  18  19
ENDBRANCH   1  18
BRANCH   6  29
HETATM   29  S3  UNL     1      30.700   4.817  11.262  1.00  0.00     0.143 S 
HETATM   30  O2  UNL     1      30.526   6.280  11.475  1.00  0.00    -0.591 OA
HETATM   31  O3  UNL     1      30.409   4.552   9.794  1.00  0.00    -0.591 OA
HETATM   32  O4  UNL     1      32.304   4.391  11.506  1.00  0.00    -0.591 OA
ENDBRANCH   6  29
BRANCH  12  33
HETATM   33  O5  UNL     1      26.848   0.646  15.274  1.00  0.00    -0.268 OA
ATOM     34  H5  UNL     1      26.735   0.710  16.216  1.00  0.00     0.246 HD
ENDBRANCH  12  33
BRANCH   7  35
HETATM   35  N3  UNL     1      27.833   5.205  11.725  1.00  0.00    -0.383 N 
ATOM     36  H32 UNL     1      28.268   5.502  10.851  1.00  0.00     0.157 HD
ATOM     37  H31 UNL     1      27.043   5.713  12.122  1.00  0.00     0.157 HD
ENDBRANCH   7  35
BRANCH  11  38
HETATM   38  N6  UNL     1      24.596   2.282  14.681  1.00  0.00    -0.135 N 
ATOM     39  H6  UNL     1      24.450   2.149  15.682  1.00  0.00     0.205 HD
BRANCH  38  40
HETATM   40  N7  UNL     1      23.511   2.243  13.803  1.00  0.00    -0.331 N 
ATOM     41  H72 UNL     1      23.620   1.787  12.898  1.00  0.00     0.177 HD
ATOM     42  H71 UNL     1      22.626   2.670  14.074  1.00  0.00     0.177 HD
ENDBRANCH  38  40
ENDBRANCH  11  38
TORSDOF 12
ENDMDL
MODEL 2
REMARK VINA RESULT: -8.225782703      3.010      5.202
REMARK  12 active torsions:
REMARK  status: ('A' for Active; 'I' for Inactive)
REMARK       I    between atoms: C2_2  and  N1_4 
REMARK    1  A    between atoms: N1_4  and  C3_6 
REMARK    2  A    between atoms: C3_6  and  C4_7 
REMARK    3  A    between atoms: C4_7  and  S1_8 
REMARK    4  A    between atoms: S1_8  and  S2_9 
REMARK    5  A    between atoms: S2_9  and  C5_10 
REMARK    6  A    between atoms: C5_10  and  C6_11 
REMARK    7  A    between atoms: C6_11  and  N2_12 
REMARK    8  A    between atoms: C10_17  and  S3_18 
REMARK    9  A    between atoms: C11_22  and  N3_23 
REMARK   10  A    between atoms: C12_29  and  N6_30 
REMARK   11  A    between atoms: N6_30  and  N7_32 
REMARK   12  A    between atoms: N8_35  and  O5_36 
ROOT
HETATM    1  N2  UNL     1      30.031  -0.133  14.458  1.00  0.00    -0.390 N 
ATOM      2  H2  UNL     1      29.059  -0.438  14.491  1.00  0.00     0.159 HD
HETATM    3  C7  UNL     1      30.322   1.034  14.019  1.00  0.00     0.044 C 
HETATM    4  C8  UNL     1      29.446   2.085  13.519  1.00  0.00     0.065 A 
HETATM    5  C9  UNL     1      30.243   2.888  12.733  1.00  0.00     0.073 A 
HETATM    6  C10 UNL     1      29.696   3.989  12.105  1.00  0.00     0.153 A 
HETATM    7  C11 UNL     1      28.356   4.240  12.298  1.00  0.00     0.150 A 
HETATM    8  N4  UNL     1      27.595   3.432  13.079  1.00  0.00    -0.204 N 
HETATM    9  N5  UNL     1      26.319   3.443  13.423  1.00  0.00    -0.118 N 
ATOM     10  H5  UNL     1      25.635   4.136  13.121  1.00  0.00     0.206 HD
HETATM   11  C12 UNL     1      26.059   2.402  14.231  1.00  0.00     0.739 A 
HETATM   12  N8  UNL     1      27.192   1.701  14.413  1.00  0.00    -0.030 N 
HETATM   13  C13 UNL     1      28.122   2.341  13.704  1.00  0.00     0.190 A 
HETATM   14  N9  UNL     1      31.588   2.389  12.714  1.00  0.00    -0.378 N 
ATOM     15  H9  UNL     1      32.305   2.563  12.009  1.00  0.00     0.160 HD
HETATM   16  C14 UNL     1      31.707   1.577  13.924  1.00  0.00     0.128 C 
HETATM   17  C15 UNL     1      32.051   2.437  15.120  1.00  0.00     0.039 C 
ENDROOT
BRANCH   1  18
HETATM   18  C6  UNL     1      31.069  -1.005  14.901  1.00  0.00     0.130 C 
BRANCH  18  19
HETATM   19  C5  UNL     1      31.446  -2.067  13.898  1.00  0.00     0.105 C 
BRANCH  19  20
HETATM   20  S2  UNL     1      33.001  -2.813  14.527  1.00  0.00    -0.096 SA
BRANCH  20  21
HETATM   21  S1  UNL     1      34.327  -2.911  12.866  1.00  0.00    -0.096 SA
BRANCH  21  22
HETATM   22  C4  UNL     1      35.388  -1.418  12.983  1.00  0.00     0.105 C 
BRANCH  22  23
HETATM   23  C3  UNL     1      34.472  -0.247  12.719  1.00  0.00     0.133 C 
BRANCH  23  24
HETATM   24  N1  UNL     1      35.196   0.985  12.529  1.00  0.00    -0.361 N 
HETATM   25  C2  UNL     1      34.846   1.914  11.525  1.00  0.00     0.213 C 
HETATM   26  C1  UNL     1      35.623   3.181  11.353  1.00  0.00     0.117 C 
HETATM   27  O1  UNL     1      33.898   1.753  10.735  1.00  0.00    -0.274 OA
ATOM     28  H1  UNL     1      35.986   1.192  13.140  1.00  0.00     0.162 HD
ENDBRANCH  23  24
ENDBRANCH  22  23
ENDBRANCH  21  22
ENDBRANCH  20  21
ENDBRANCH  19  20
ENDBRANCH  18  19
ENDBRANCH   1  18
BRANCH   6  29
HETATM   29  S3  UNL     1      30.690   5.025  11.101  1.00  0.00     0.143 S 
HETATM   30  O2  UNL     1      30.466   6.472  11.366  1.00  0.00    -0.591 OA
HETATM   31  O3  UNL     1      30.331   4.786   9.643  1.00  0.00    -0.591 OA
HETATM   32  O4  UNL     1      32.321   4.662  11.248  1.00  0.00    -0.591 OA
ENDBRANCH   6  29
BRANCH  12  33
HETATM   33  O5  UNL     1      27.239   0.584  15.190  1.00  0.00    -0.268 OA
ATOM     34  H5  UNL     1      27.277  -0.290  14.819  1.00  0.00     0.246 HD
ENDBRANCH  12  33
BRANCH   7  35
HETATM   35  N3  UNL     1      27.835   5.266  11.715  1.00  0.00    -0.383 N 
ATOM     36  H32 UNL     1      27.988   5.428  10.719  1.00  0.00     0.157 HD
ATOM     37  H31 UNL     1      27.272   5.906  12.274  1.00  0.00     0.157 HD
ENDBRANCH   7  35
BRANCH  11  38
HETATM   38  N6  UNL     1      24.889   2.126  14.751  1.00  0.00    -0.135 N 
ATOM     39  H6  UNL     1      24.821   1.800  15.715  1.00  0.00     0.205 HD
BRANCH  38  40
HETATM   40  N7  UNL     1      23.734   2.281  13.980  1.00  0.00    -0.331 N 
ATOM     41  H72 UNL     1      23.815   2.304  12.964  1.00  0.00     0.177 HD
ATOM     42  H71 UNL     1      22.828   2.368  14.438  1.00  0.00     0.177 HD
ENDBRANCH  38  40
ENDBRANCH  11  38
TORSDOF 12
ENDMDL
MODEL 3
REMARK VINA RESULT: -8.213142989      1.457      1.852
REMARK  12 active torsions:
REMARK  status: ('A' for Active; 'I' for Inactive)
REMARK       I    between atoms: C2_2  and  N1_4 
REMARK    1  A    between atoms: N1_4  and  C3_6 
REMARK    2  A    between atoms: C3_6  and  C4_7 
REMARK    3  A    between atoms: C4_7  and  S1_8 
REMARK    4  A    between atoms: S1_8  and  S2_9 
REMARK    5  A    between atoms: S2_9  and  C5_10 
REMARK    6  A    between atoms: C5_10  and  C6_11 
REMARK    7  A    between atoms: C6_11  and  N2_12 
REMARK    8  A    between atoms: C10_17  and  S3_18 
REMARK    9  A    between atoms: C11_22  and  N3_23 
REMARK   10  A    between atoms: C12_29  and  N6_30 
REMARK   11  A    between atoms: N6_30  and  N7_32 
REMARK   12  A    between atoms: N8_35  and  O5_36 
ROOT
HETATM    1  N2  UNL     1      30.090  -0.216  14.653  1.00  0.00    -0.390 N 
ATOM      2  H2  UNL     1      29.119  -0.529  14.673  1.00  0.00     0.159 HD
HETATM    3  C7  UNL     1      30.381   0.941  14.188  1.00  0.00     0.044 C 
HETATM    4  C8  UNL     1      29.507   1.969  13.639  1.00  0.00     0.065 A 
HETATM    5  C9  UNL     1      30.315   2.757  12.849  1.00  0.00     0.073 A 
HETATM    6  C10 UNL     1      29.773   3.835  12.178  1.00  0.00     0.153 A 
HETATM    7  C11 UNL     1      28.427   4.078  12.333  1.00  0.00     0.150 A 
HETATM    8  N4  UNL     1      27.654   3.286  13.119  1.00  0.00    -0.204 N 
HETATM    9  N5  UNL     1      26.371   3.294  13.433  1.00  0.00    -0.118 N 
ATOM     10  H5  UNL     1      25.688   3.973  13.096  1.00  0.00     0.206 HD
HETATM   11  C12 UNL     1      26.102   2.274  14.264  1.00  0.00     0.739 A 
HETATM   12  N8  UNL     1      27.236   1.589  14.492  1.00  0.00    -0.030 N 
HETATM   13  C13 UNL     1      28.177   2.218  13.786  1.00  0.00     0.190 A 
HETATM   14  N9  UNL     1      31.664   2.270  12.874  1.00  0.00    -0.378 N 
ATOM     15  H9  UNL     1      32.395   2.431  12.182  1.00  0.00     0.160 HD
HETATM   16  C14 UNL     1      31.762   1.494  14.110  1.00  0.00     0.128 C 
HETATM   17  C15 UNL     1      32.072   2.390  15.288  1.00  0.00     0.039 C 
ENDROOT
BRANCH   1  18
HETATM   18  C6  UNL     1      31.124  -1.066  15.144  1.00  0.00     0.130 C 
BRANCH  18  19
HETATM   19  C5  UNL     1      31.231  -2.384  14.418  1.00  0.00     0.105 C 
BRANCH  19  20
HETATM   20  S2  UNL     1      31.061  -3.677  15.710  1.00  0.00    -0.096 SA
BRANCH  20  21
HETATM   21  S1  UNL     1      31.334  -2.691  17.576  1.00  0.00    -0.096 SA
BRANCH  21  22
HETATM   22  C4  UNL     1      29.774  -2.945  18.509  1.00  0.00     0.105 C 
BRANCH  22  23
HETATM   23  C3  UNL     1      28.759  -2.034  17.861  1.00  0.00     0.133 C 
BRANCH  23  24
HETATM   24  N1  UNL     1      28.321  -0.982  18.743  1.00  0.00    -0.361 N 
HETATM   25  C2  UNL     1      28.609   0.377  18.492  1.00  0.00     0.213 C 
HETATM   26  C1  UNL     1      28.143   1.443  19.431  1.00  0.00     0.117 C 
HETATM   27  O1  UNL     1      29.252   0.776  17.502  1.00  0.00    -0.274 OA
ATOM     28  H1  UNL     1      27.786  -1.228  19.575  1.00  0.00     0.162 HD
ENDBRANCH  23  24
ENDBRANCH  22  23
ENDBRANCH  21  22
ENDBRANCH  20  21
ENDBRANCH  19  20
ENDBRANCH  18  19
ENDBRANCH   1  18
BRANCH   6  29
HETATM   29  S3  UNL     1      30.780   4.851  11.168  1.00  0.00     0.143 S 
HETATM   30  O2  UNL     1      30.550   6.303  11.399  1.00  0.00    -0.591 OA
HETATM   31  O3  UNL     1      30.445   4.582   9.710  1.00  0.00    -0.591 OA
HETATM   32  O4  UNL     1      32.410   4.495  11.347  1.00  0.00    -0.591 OA
ENDBRANCH   6  29
BRANCH  12  33
HETATM   33  O5  UNL     1      27.276   0.495  15.301  1.00  0.00    -0.268 OA
ATOM     34  H5  UNL     1      26.551  -0.117  15.363  1.00  0.00     0.246 HD
ENDBRANCH  12  33
BRANCH   7  35
HETATM   35  N3  UNL     1      27.911   5.083  11.709  1.00  0.00    -0.383 N 
ATOM     36  H32 UNL     1      28.449   5.938  11.571  1.00  0.00     0.157 HD
ATOM     37  H31 UNL     1      26.955   4.998  11.362  1.00  0.00     0.157 HD
ENDBRANCH   7  35
BRANCH  11  38
HETATM   38  N6  UNL     1      24.922   2.002  14.765  1.00  0.00    -0.135 N 
ATOM     39  H6  UNL     1      24.845   1.554  15.678  1.00  0.00     0.205 HD
BRANCH  38  40
HETATM   40  N7  UNL     1      23.771   2.327  14.043  1.00  0.00    -0.331 N 
ATOM     41  H72 UNL     1      23.699   2.039  13.068  1.00  0.00     0.177 HD
ATOM     42  H71 UNL     1      23.020   2.847  14.497  1.00  0.00     0.177 HD
ENDBRANCH  38  40
ENDBRANCH  11  38
TORSDOF 12
ENDMDL
MODEL 4
REMARK VINA RESULT: -8.099625023      2.496      3.564
REMARK  12 active torsions:
REMARK  status: ('A' for Active; 'I' for Inactive)
REMARK       I    between atoms: C2_2  and  N1_4 
REMARK    1  A    between atoms: N1_4  and  C3_6 
REMARK    2  A    between atoms: C3_6  and  C4_7 
REMARK    3  A    between atoms: C4_7  and  S1_8 
REMARK    4  A    between atoms: S1_8  and  S2_9 
REMARK    5  A    between atoms: S2_9  and  C5_10 
REMARK    6  A    between atoms: C5_10  and  C6_11 
REMARK    7  A    between atoms: C6_11  and  N2_12 
REMARK    8  A    between atoms: C10_17  and  S3_18 
REMARK    9  A    between atoms: C11_22  and  N3_23 
REMARK   10  A    between atoms: C12_29  and  N6_30 
REMARK   11  A    between atoms: N6_30  and  N7_32 
REMARK   12  A    between atoms: N8_35  and  O5_36 
ROOT
HETATM    1  N2  UNL     1      29.350  -1.745  16.654  1.00  0.00    -0.390 N 
ATOM      2  H2  UNL     1      28.494  -1.713  16.100  1.00  0.00     0.159 HD
HETATM    3  C7  UNL     1      30.291  -0.906  16.429  1.00  0.00     0.044 C 
HETATM    4  C8  UNL     1      30.364   0.168  15.447  1.00  0.00     0.065 A 
HETATM    5  C9  UNL     1      31.708   0.419  15.276  1.00  0.00     0.073 A 
HETATM    6  C10 UNL     1      32.112   1.401  14.392  1.00  0.00     0.153 A 
HETATM    7  C11 UNL     1      31.137   2.094  13.712  1.00  0.00     0.150 A 
HETATM    8  N4  UNL     1      29.820   1.826  13.901  1.00  0.00    -0.204 N 
HETATM    9  N5  UNL     1      28.709   2.328  13.391  1.00  0.00    -0.118 N 
ATOM     10  H5  UNL     1      28.666   3.077  12.701  1.00  0.00     0.206 HD
HETATM   11  C12 UNL     1      27.646   1.702  13.921  1.00  0.00     0.739 A 
HETATM   12  N8  UNL     1      28.077   0.774  14.792  1.00  0.00    -0.030 N 
HETATM   13  C13 UNL     1      29.408   0.860  14.771  1.00  0.00     0.190 A 
HETATM   14  N9  UNL     1      32.489  -0.450  16.108  1.00  0.00    -0.378 N 
ATOM     15  H9  UNL     1      33.464  -0.719  15.982  1.00  0.00     0.160 HD
HETATM   16  C14 UNL     1      31.580  -0.867  17.176  1.00  0.00     0.128 C 
HETATM   17  C15 UNL     1      31.549   0.157  18.289  1.00  0.00     0.039 C 
ENDROOT
BRANCH   1  18
HETATM   18  C6  UNL     1      29.499  -2.723  17.681  1.00  0.00     0.130 C 
BRANCH  18  19
HETATM   19  C5  UNL     1      28.748  -2.400  18.949  1.00  0.00     0.105 C 
BRANCH  19  20
HETATM   20  S2  UNL     1      29.956  -2.625  20.313  1.00  0.00    -0.096 SA
BRANCH  20  21
HETATM   21  S1  UNL     1      29.328  -1.332  21.881  1.00  0.00    -0.096 SA
BRANCH  21  22
HETATM   22  C4  UNL     1      27.510  -1.542  22.006  1.00  0.00     0.105 C 
BRANCH  22  23
HETATM   23  C3  UNL     1      26.922  -0.182  21.715  1.00  0.00     0.133 C 
BRANCH  23  24
HETATM   24  N1  UNL     1      26.984   0.156  20.315  1.00  0.00    -0.361 N 
HETATM   25  C2  UNL     1      27.860   1.147  19.820  1.00  0.00     0.213 C 
HETATM   26  C1  UNL     1      27.895   1.476  18.361  1.00  0.00     0.117 C 
HETATM   27  O1  UNL     1      28.641   1.799  20.537  1.00  0.00    -0.274 OA
ATOM     28  H1  UNL     1      26.376  -0.338  19.661  1.00  0.00     0.162 HD
ENDBRANCH  23  24
ENDBRANCH  22  23
ENDBRANCH  21  22
ENDBRANCH  20  21
ENDBRANCH  19  20
ENDBRANCH  18  19
ENDBRANCH   1  18
BRANCH   6  29
HETATM   29  S3  UNL     1      33.815   1.738  14.158  1.00  0.00     0.143 S 
HETATM   30  O2  UNL     1      34.148   3.177  14.343  1.00  0.00    -0.591 OA
HETATM   31  O3  UNL     1      34.194   1.383  12.729  1.00  0.00    -0.591 OA
HETATM   32  O4  UNL     1      34.784   0.794  15.149  1.00  0.00    -0.591 OA
ENDBRANCH   6  29
BRANCH  12  33
HETATM   33  O5  UNL     1      27.222  -0.025  15.488  1.00  0.00    -0.268 OA
ATOM     34  H5  UNL     1      26.970   0.162  16.385  1.00  0.00     0.246 HD
ENDBRANCH  12  33
BRANCH   7  35
HETATM   35  N3  UNL     1      31.505   3.013  12.883  1.00  0.00    -0.383 N 
ATOM     36  H32 UNL     1      32.462   3.365  12.893  1.00  0.00     0.157 HD
ATOM     37  H31 UNL     1      30.816   3.373  12.223  1.00  0.00     0.157 HD
ENDBRANCH   7  35
BRANCH  11  38
HETATM   38  N6  UNL     1      26.395   1.963  13.628  1.00  0.00    -0.135 N 
ATOM     39  H6  UNL     1      26.068   1.885  12.665  1.00  0.00     0.205 HD
BRANCH  38  40
HETATM   40  N7  UNL     1      25.513   2.349  14.640  1.00  0.00    -0.331 N 
ATOM     41  H72 UNL     1      24.802   1.691  14.957  1.00  0.00     0.177 HD
ATOM     42  H71 UNL     1      25.589   3.280  15.049  1.00  0.00     0.177 HD
ENDBRANCH  38  40
ENDBRANCH  11  38
TORSDOF 12
ENDMDL
MODEL 5
REMARK VINA RESULT: -8.079306183      3.778      6.737
REMARK  12 active torsions:
REMARK  status: ('A' for Active; 'I' for Inactive)
REMARK       I    between atoms: C2_2  and  N1_4 
REMARK    1  A    between atoms: N1_4  and  C3_6 
REMARK    2  A    between atoms: C3_6  and  C4_7 
REMARK    3  A    between atoms: C4_7  and  S1_8 
REMARK    4  A    between atoms: S1_8  and  S2_9 
REMARK    5  A    between atoms: S2_9  and  C5_10 
REMARK    6  A    between atoms: C5_10  and  C6_11 
REMARK    7  A    between atoms: C6_11  and  N2_12 
REMARK    8  A    between atoms: C10_17  and  S3_18 
REMARK    9  A    between atoms: C11_22  and  N3_23 
REMARK   10  A    between atoms: C12_29  and  N6_30 
REMARK   11  A    between atoms: N6_30  and  N7_32 
REMARK   12  A    between atoms: N8_35  and  O5_36 
ROOT
HETATM    1  N2  UNL     1      30.986   0.347  13.972  1.00  0.00    -0.390 N 
ATOM      2  H2  UNL     1      30.381   0.955  13.422  1.00  0.00     0.159 HD
HETATM    3  C7  UNL     1      32.256   0.397  13.818  1.00  0.00     0.044 C 
HETATM    4  C8  UNL     1      33.052   1.232  12.928  1.00  0.00     0.065 A 
HETATM    5  C9  UNL     1      34.253   0.572  12.779  1.00  0.00     0.073 A 
HETATM    6  C10 UNL     1      35.238   1.118  11.980  1.00  0.00     0.153 A 
HETATM    7  C11 UNL     1      34.971   2.317  11.359  1.00  0.00     0.150 A 
HETATM    8  N4  UNL     1      33.780   2.945  11.524  1.00  0.00    -0.204 N 
HETATM    9  N5  UNL     1      33.276   4.074  11.056  1.00  0.00    -0.118 N 
ATOM     10  H5  UNL     1      33.760   4.717  10.430  1.00  0.00     0.206 HD
HETATM   11  C12 UNL     1      32.032   4.246  11.531  1.00  0.00     0.739 A 
HETATM   12  N8  UNL     1      31.722   3.205  12.323  1.00  0.00    -0.030 N 
HETATM   13  C13 UNL     1      32.799   2.417  12.310  1.00  0.00     0.190 A 
HETATM   14  N9  UNL     1      34.250  -0.645  13.538  1.00  0.00    -0.378 N 
ATOM     15  H9  UNL     1      34.833  -1.470  13.391  1.00  0.00     0.160 HD
HETATM   16  C14 UNL     1      33.230  -0.447  14.567  1.00  0.00     0.128 C 
HETATM   17  C15 UNL     1      33.801   0.286  15.760  1.00  0.00     0.039 C 
ENDROOT
BRANCH   1  18
HETATM   18  C6  UNL     1      30.420  -0.561  14.915  1.00  0.00     0.130 C 
BRANCH  18  19
HETATM   19  C5  UNL     1      29.208  -0.021  15.634  1.00  0.00     0.105 C 
BRANCH  19  20
HETATM   20  S2  UNL     1      28.342   1.044  14.415  1.00  0.00    -0.096 SA
BRANCH  20  21
HETATM   21  S1  UNL     1      26.382   1.350  15.183  1.00  0.00    -0.096 SA
BRANCH  21  22
HETATM   22  C4  UNL     1      25.618   2.629  14.112  1.00  0.00     0.105 C 
BRANCH  22  23
HETATM   23  C3  UNL     1      26.709   3.073  13.167  1.00  0.00     0.133 C 
BRANCH  23  24
HETATM   24  N1  UNL     1      26.931   4.496  13.214  1.00  0.00    -0.361 N 
HETATM   25  C2  UNL     1      27.799   5.150  12.312  1.00  0.00     0.213 C 
HETATM   26  C1  UNL     1      28.011   6.629  12.393  1.00  0.00     0.117 C 
HETATM   27  O1  UNL     1      28.432   4.564  11.414  1.00  0.00    -0.274 OA
ATOM     28  H1  UNL     1      26.446   5.048  13.921  1.00  0.00     0.162 HD
ENDBRANCH  23  24
ENDBRANCH  22  23
ENDBRANCH  21  22
ENDBRANCH  20  21
ENDBRANCH  19  20
ENDBRANCH  18  19
ENDBRANCH   1  18
BRANCH   6  29
HETATM   29  S3  UNL     1      36.772   0.298  11.776  1.00  0.00     0.143 S 
HETATM   30  O2  UNL     1      36.890  -0.923  12.619  1.00  0.00    -0.591 OA
HETATM   31  O3  UNL     1      37.891   1.234  12.203  1.00  0.00    -0.591 OA
HETATM   32  O4  UNL     1      37.070  -0.085  10.170  1.00  0.00    -0.591 OA
ENDBRANCH   6  29
BRANCH  12  33
HETATM   33  O5  UNL     1      30.518   3.100  12.950  1.00  0.00    -0.268 OA
ATOM     34  H5  UNL     1      29.926   2.373  12.794  1.00  0.00     0.246 HD
ENDBRANCH  12  33
BRANCH   7  35
HETATM   35  N3  UNL     1      35.885   2.834  10.608  1.00  0.00    -0.383 N 
ATOM     36  H32 UNL     1      36.629   2.252  10.224  1.00  0.00     0.157 HD
ATOM     37  H31 UNL     1      35.842   3.834  10.413  1.00  0.00     0.157 HD
ENDBRANCH   7  35
BRANCH  11  38
HETATM   38  N6  UNL     1      31.257   5.267  11.260  1.00  0.00    -0.135 N 
ATOM     39  H6  UNL     1      30.939   5.882  12.009  1.00  0.00     0.205 HD
BRANCH  38  40
HETATM   40  N7  UNL     1      30.867   5.509   9.940  1.00  0.00    -0.331 N 
ATOM     41  H72 UNL     1      31.492   6.030   9.326  1.00  0.00     0.177 HD
ATOM     42  H71 UNL     1      29.967   5.165   9.608  1.00  0.00     0.177 HD
ENDBRANCH  38  40
ENDBRANCH  11  38
TORSDOF 12
ENDMDL
