MODEL 1
REMARK VINA RESULT: -7.678141554      0.000      0.000
REMARK  5 active torsions:
REMARK  status: ('A' for Active; 'I' for Inactive)
REMARK    1  A    between atoms: C3_3  and  N1_4 
REMARK    2  A    between atoms: N1_4  and  C4_5 
REMARK    3  A    between atoms: C4_5  and  C5_6 
REMARK    4  A    between atoms: C5_6  and  N2_7 
REMARK       I    between atoms: N2_7  and  C6_9 
REMARK       I    between atoms: C6_9  and  N4_13 
REMARK    5  A    between atoms: N4_13  and  C7_15 
ROOT
HETATM    1  C1  UNL     1     -32.366 -10.546  74.444  1.00  0.00     0.013 C 
HETATM    2  C2  UNL     1     -33.453 -10.327  73.946  1.00  0.00    -0.089 C 
HETATM    3  C3  UNL     1     -34.769 -10.063  73.356  1.00  0.00     0.330 C 
ENDROOT
BRANCH   3   4
HETATM    4  N1  UNL     1     -35.619  -9.284  74.263  1.00  0.00    -0.056 N 
HETATM    5  C11 UNL     1     -35.724  -9.942  75.555  1.00  0.00     0.238 C 
HETATM    6  C12 UNL     1     -35.267  -8.951  76.602  1.00  0.00     0.030 C 
HETATM    7  C13 UNL     1     -35.489  -7.628  75.858  1.00  0.00     0.030 C 
HETATM    8  C14 UNL     1     -34.950  -8.036  74.485  1.00  0.00     0.238 C 
BRANCH   4   9
HETATM    9  C4  UNL     1     -36.930  -9.189  73.716  1.00  0.00     0.258 C 
BRANCH   9  10
HETATM   10  C5  UNL     1     -37.022  -8.713  72.308  1.00  0.00     0.166 C 
BRANCH  10  11
HETATM   11  N2  UNL     1     -38.059  -7.672  72.277  1.00  0.00    -0.225 N 
HETATM   12  C6  UNL     1     -37.785  -6.315  72.575  1.00  0.00     0.668 C 
HETATM   13  N3  UNL     1     -37.433  -5.536  71.624  1.00  0.00    -0.235 N 
HETATM   14  N4  UNL     1     -37.892  -5.815  73.896  1.00  0.00    -0.213 N 
ATOM     15  H32 UNL     1     -37.356  -5.896  70.673  1.00  0.00     0.174 HD
ATOM     16  H31 UNL     1     -37.235  -4.559  71.839  1.00  0.00     0.174 HD
ATOM     17  H4  UNL     1     -38.113  -6.445  74.667  1.00  0.00     0.178 HD
ATOM     18  H2  UNL     1     -39.012  -7.938  72.031  1.00  0.00     0.177 HD
BRANCH  14  19
HETATM   19  C7  UNL     1     -37.685  -4.389  74.148  1.00  0.00     0.193 C 
HETATM   20  C8  UNL     1     -38.756  -3.808  75.010  1.00  0.00     0.055 C 
HETATM   21  C9  UNL     1     -38.127  -3.456  76.333  1.00  0.00     0.125 C 
HETATM   22  N5  UNL     1     -36.817  -4.088  76.304  1.00  0.00    -0.359 N 
HETATM   23  C10 UNL     1     -36.452  -4.185  74.941  1.00  0.00     0.241 C 
ATOM     24  H5  UNL     1     -36.270  -4.399  77.107  1.00  0.00     0.162 HD
HETATM   25  O1  UNL     1     -35.269  -4.108  74.495  1.00  0.00    -0.271 OA
ENDBRANCH  14  19
ENDBRANCH  10  11
ENDBRANCH   9  10
ENDBRANCH   4   9
ENDBRANCH   3   4
TORSDOF 5
ENDMDL
MODEL 2
REMARK VINA RESULT: -7.524068123     12.104     15.152
REMARK  5 active torsions:
REMARK  status: ('A' for Active; 'I' for Inactive)
REMARK    1  A    between atoms: C3_3  and  N1_4 
REMARK    2  A    between atoms: N1_4  and  C4_5 
REMARK    3  A    between atoms: C4_5  and  C5_6 
REMARK    4  A    between atoms: C5_6  and  N2_7 
REMARK       I    between atoms: N2_7  and  C6_9 
REMARK       I    between atoms: C6_9  and  N4_13 
REMARK    5  A    between atoms: N4_13  and  C7_15 
ROOT
HETATM    1  C1  UNL     1     -27.275 -10.813  65.029  1.00  0.00     0.013 C 
HETATM    2  C2  UNL     1     -26.068 -10.688  65.100  1.00  0.00    -0.089 C 
HETATM    3  C3  UNL     1     -24.610 -10.549  65.184  1.00  0.00     0.330 C 
ENDROOT
BRANCH   3   4
HETATM    4  N1  UNL     1     -23.928 -11.501  64.299  1.00  0.00    -0.056 N 
HETATM    5  C11 UNL     1     -24.257 -11.232  62.909  1.00  0.00     0.238 C 
HETATM    6  C12 UNL     1     -22.955 -11.014  62.173  1.00  0.00     0.030 C 
HETATM    7  C13 UNL     1     -21.977 -11.748  63.100  1.00  0.00     0.030 C 
HETATM    8  C14 UNL     1     -22.521 -11.265  64.446  1.00  0.00     0.238 C 
BRANCH   4   9
HETATM    9  C4  UNL     1     -24.364 -12.822  64.602  1.00  0.00     0.258 C 
BRANCH   9  10
HETATM   10  C5  UNL     1     -23.695 -13.489  65.753  1.00  0.00     0.166 C 
BRANCH  10  11
HETATM   11  N2  UNL     1     -24.660 -14.444  66.312  1.00  0.00    -0.225 N 
HETATM   12  C6  UNL     1     -26.039 -14.147  66.437  1.00  0.00     0.668 C 
HETATM   13  N3  UNL     1     -26.819 -14.426  65.463  1.00  0.00    -0.235 N 
HETATM   14  N4  UNL     1     -26.561 -13.550  67.612  1.00  0.00    -0.213 N 
ATOM     15  H32 UNL     1     -26.444 -14.856  64.618  1.00  0.00     0.174 HD
ATOM     16  H31 UNL     1     -27.812 -14.212  65.553  1.00  0.00     0.174 HD
ATOM     17  H4  UNL     1     -25.935 -13.270  68.366  1.00  0.00     0.178 HD
ATOM     18  H2  UNL     1     -24.325 -15.356  66.622  1.00  0.00     0.177 HD
BRANCH  14  19
HETATM   19  C7  UNL     1     -28.003 -13.339  67.736  1.00  0.00     0.193 C 
HETATM   20  C8  UNL     1     -28.679 -14.468  68.441  1.00  0.00     0.055 C 
HETATM   21  C9  UNL     1     -29.158 -13.945  69.770  1.00  0.00     0.125 C 
HETATM   22  N5  UNL     1     -28.514 -12.649  69.916  1.00  0.00    -0.359 N 
HETATM   23  C10 UNL     1     -28.275 -12.173  68.605  1.00  0.00     0.241 C 
ATOM     24  H5  UNL     1     -28.281 -12.177  70.790  1.00  0.00     0.162 HD
HETATM   25  O1  UNL     1     -28.295 -10.956  68.256  1.00  0.00    -0.271 OA
ENDBRANCH  14  19
ENDBRANCH  10  11
ENDBRANCH   9  10
ENDBRANCH   4   9
ENDBRANCH   3   4
TORSDOF 5
ENDMDL
MODEL 3
REMARK VINA RESULT: -7.433029653     11.434     13.934
REMARK  5 active torsions:
REMARK  status: ('A' for Active; 'I' for Inactive)
REMARK    1  A    between atoms: C3_3  and  N1_4 
REMARK    2  A    between atoms: N1_4  and  C4_5 
REMARK    3  A    between atoms: C4_5  and  C5_6 
REMARK    4  A    between atoms: C5_6  and  N2_7 
REMARK       I    between atoms: N2_7  and  C6_9 
REMARK       I    between atoms: C6_9  and  N4_13 
REMARK    5  A    between atoms: N4_13  and  C7_15 
ROOT
HETATM    1  C1  UNL     1     -25.475 -14.797  67.981  1.00  0.00     0.013 C 
HETATM    2  C2  UNL     1     -26.670 -14.586  67.916  1.00  0.00    -0.089 C 
HETATM    3  C3  UNL     1     -28.113 -14.333  67.849  1.00  0.00     0.330 C 
ENDROOT
BRANCH   3   4
HETATM    4  N1  UNL     1     -28.592 -13.629  69.045  1.00  0.00    -0.056 N 
HETATM    5  C11 UNL     1     -29.987 -13.948  69.300  1.00  0.00     0.238 C 
HETATM    6  C12 UNL     1     -30.071 -14.498  70.706  1.00  0.00     0.030 C 
HETATM    7  C13 UNL     1     -28.798 -13.904  71.322  1.00  0.00     0.030 C 
HETATM    8  C14 UNL     1     -27.838 -14.139  70.152  1.00  0.00     0.238 C 
BRANCH   4   9
HETATM    9  C4  UNL     1     -28.498 -12.224  68.833  1.00  0.00     0.258 C 
BRANCH   9  10
HETATM   10  C5  UNL     1     -28.891 -11.734  67.483  1.00  0.00     0.166 C 
BRANCH  10  11
HETATM   11  N2  UNL     1     -27.801 -10.871  67.009  1.00  0.00    -0.225 N 
HETATM   12  C6  UNL     1     -27.054 -11.159  65.841  1.00  0.00     0.668 C 
HETATM   13  N3  UNL     1     -27.467 -10.702  64.720  1.00  0.00    -0.235 N 
HETATM   14  N4  UNL     1     -25.872 -11.938  65.895  1.00  0.00    -0.213 N 
ATOM     15  H32 UNL     1     -28.318 -10.142  64.681  1.00  0.00     0.174 HD
ATOM     16  H31 UNL     1     -26.930 -10.910  63.878  1.00  0.00     0.174 HD
ATOM     17  H4  UNL     1     -25.573 -12.355  66.776  1.00  0.00     0.178 HD
ATOM     18  H2  UNL     1     -27.573 -10.032  67.542  1.00  0.00     0.177 HD
BRANCH  14  19
HETATM   19  C7  UNL     1     -25.084 -12.141  64.680  1.00  0.00     0.193 C 
HETATM   20  C8  UNL     1     -24.536 -10.859  64.144  1.00  0.00     0.055 C 
HETATM   21  C9  UNL     1     -23.041 -10.899  64.325  1.00  0.00     0.125 C 
HETATM   22  N5  UNL     1     -22.800 -12.039  65.195  1.00  0.00    -0.359 N 
HETATM   23  C10 UNL     1     -23.873 -12.936  64.983  1.00  0.00     0.241 C 
ATOM     24  H5  UNL     1     -22.013 -12.167  65.832  1.00  0.00     0.162 HD
HETATM   25  O1  UNL     1     -23.793 -14.198  65.047  1.00  0.00    -0.271 OA
ENDBRANCH  14  19
ENDBRANCH  10  11
ENDBRANCH   9  10
ENDBRANCH   4   9
ENDBRANCH   3   4
TORSDOF 5
ENDMDL
MODEL 4
REMARK VINA RESULT: -7.286613496      0.823      2.003
REMARK  5 active torsions:
REMARK  status: ('A' for Active; 'I' for Inactive)
REMARK    1  A    between atoms: C3_3  and  N1_4 
REMARK    2  A    between atoms: N1_4  and  C4_5 
REMARK    3  A    between atoms: C4_5  and  C5_6 
REMARK    4  A    between atoms: C5_6  and  N2_7 
REMARK       I    between atoms: N2_7  and  C6_9 
REMARK       I    between atoms: C6_9  and  N4_13 
REMARK    5  A    between atoms: N4_13  and  C7_15 
ROOT
HETATM    1  C1  UNL     1     -36.380 -11.204  76.857  1.00  0.00     0.013 C 
HETATM    2  C2  UNL     1     -36.658 -10.424  75.968  1.00  0.00    -0.089 C 
HETATM    3  C3  UNL     1     -36.982  -9.479  74.894  1.00  0.00     0.330 C 
ENDROOT
BRANCH   3   4
HETATM    4  N1  UNL     1     -35.816  -9.208  74.045  1.00  0.00    -0.056 N 
HETATM    5  C11 UNL     1     -34.714  -8.694  74.842  1.00  0.00     0.238 C 
HETATM    6  C12 UNL     1     -33.529  -9.604  74.608  1.00  0.00     0.030 C 
HETATM    7  C13 UNL     1     -33.904 -10.218  73.253  1.00  0.00     0.030 C 
HETATM    8  C14 UNL     1     -35.392 -10.469  73.512  1.00  0.00     0.238 C 
BRANCH   4   9
HETATM    9  C4  UNL     1     -36.155  -8.216  73.082  1.00  0.00     0.258 C 
BRANCH   9  10
HETATM   10  C5  UNL     1     -37.222  -8.580  72.109  1.00  0.00     0.166 C 
BRANCH  10  11
HETATM   11  N2  UNL     1     -38.205  -7.489  72.128  1.00  0.00    -0.225 N 
HETATM   12  C6  UNL     1     -37.866  -6.164  72.495  1.00  0.00     0.668 C 
HETATM   13  N3  UNL     1     -37.469  -5.356  71.587  1.00  0.00    -0.235 N 
HETATM   14  N4  UNL     1     -37.956  -5.726  73.840  1.00  0.00    -0.213 N 
ATOM     15  H32 UNL     1     -37.404  -5.672  70.619  1.00  0.00     0.174 HD
ATOM     16  H31 UNL     1     -37.224  -4.402  71.851  1.00  0.00     0.174 HD
ATOM     17  H4  UNL     1     -38.213  -6.383  74.577  1.00  0.00     0.178 HD
ATOM     18  H2  UNL     1     -39.169  -7.693  71.865  1.00  0.00     0.177 HD
BRANCH  14  19
HETATM   19  C7  UNL     1     -37.679  -4.328  74.165  1.00  0.00     0.193 C 
HETATM   20  C8  UNL     1     -38.732  -3.734  75.041  1.00  0.00     0.055 C 
HETATM   21  C9  UNL     1     -38.107  -3.480  76.387  1.00  0.00     0.125 C 
HETATM   22  N5  UNL     1     -36.831  -4.178  76.344  1.00  0.00    -0.359 N 
HETATM   23  C10 UNL     1     -36.450  -4.227  74.982  1.00  0.00     0.241 C 
ATOM     24  H5  UNL     1     -36.313  -4.556  77.137  1.00  0.00     0.162 HD
HETATM   25  O1  UNL     1     -35.258  -4.191  74.556  1.00  0.00    -0.271 OA
ENDBRANCH  14  19
ENDBRANCH  10  11
ENDBRANCH   9  10
ENDBRANCH   4   9
ENDBRANCH   3   4
TORSDOF 5
ENDMDL
MODEL 5
REMARK VINA RESULT: -7.271525634      2.025      3.446
REMARK  5 active torsions:
REMARK  status: ('A' for Active; 'I' for Inactive)
REMARK    1  A    between atoms: C3_3  and  N1_4 
REMARK    2  A    between atoms: N1_4  and  C4_5 
REMARK    3  A    between atoms: C4_5  and  C5_6 
REMARK    4  A    between atoms: C5_6  and  N2_7 
REMARK       I    between atoms: N2_7  and  C6_9 
REMARK       I    between atoms: C6_9  and  N4_13 
REMARK    5  A    between atoms: N4_13  and  C7_15 
ROOT
HETATM    1  C1  UNL     1     -31.050 -11.422  74.086  1.00  0.00     0.013 C 
HETATM    2  C2  UNL     1     -31.744 -10.737  74.811  1.00  0.00    -0.089 C 
HETATM    3  C3  UNL     1     -32.586  -9.906  75.678  1.00  0.00     0.330 C 
ENDROOT
BRANCH   3   4
HETATM    4  N1  UNL     1     -33.921  -9.708  75.101  1.00  0.00    -0.056 N 
HETATM    5  C11 UNL     1     -33.829  -9.021  73.824  1.00  0.00     0.238 C 
HETATM    6  C12 UNL     1     -34.512  -9.892  72.795  1.00  0.00     0.030 C 
HETATM    7  C13 UNL     1     -35.432 -10.728  73.694  1.00  0.00     0.030 C 
HETATM    8  C14 UNL     1     -34.452 -11.013  74.835  1.00  0.00     0.238 C 
BRANCH   4   9
HETATM    9  C4  UNL     1     -34.697  -8.897  75.977  1.00  0.00     0.258 C 
BRANCH   9  10
HETATM   10  C5  UNL     1     -35.648  -9.615  76.871  1.00  0.00     0.166 C 
BRANCH  10  11
HETATM   11  N2  UNL     1     -36.892  -8.834  76.884  1.00  0.00    -0.225 N 
HETATM   12  C6  UNL     1     -37.423  -8.227  75.720  1.00  0.00     0.668 C 
HETATM   13  N3  UNL     1     -38.233  -8.897  74.992  1.00  0.00    -0.235 N 
HETATM   14  N4  UNL     1     -37.072  -6.905  75.352  1.00  0.00    -0.213 N 
ATOM     15  H32 UNL     1     -38.486  -9.850  75.257  1.00  0.00     0.174 HD
ATOM     16  H31 UNL     1     -38.615  -8.461  74.153  1.00  0.00     0.174 HD
ATOM     17  H4  UNL     1     -36.379  -6.389  75.895  1.00  0.00     0.178 HD
ATOM     18  H2  UNL     1     -37.393  -8.725  77.766  1.00  0.00     0.177 HD
BRANCH  14  19
HETATM   19  C7  UNL     1     -37.707  -6.284  74.191  1.00  0.00     0.193 C 
HETATM   20  C8  UNL     1     -37.523  -4.803  74.172  1.00  0.00     0.055 C 
HETATM   21  C9  UNL     1     -36.613  -4.477  73.017  1.00  0.00     0.125 C 
HETATM   22  N5  UNL     1     -36.081  -5.761  72.587  1.00  0.00    -0.359 N 
HETATM   23  C10 UNL     1     -37.045  -6.732  72.946  1.00  0.00     0.241 C 
ATOM     24  H5  UNL     1     -35.189  -5.928  72.120  1.00  0.00     0.162 HD
HETATM   25  O1  UNL     1     -37.285  -7.795  72.300  1.00  0.00    -0.271 OA
ENDBRANCH  14  19
ENDBRANCH  10  11
ENDBRANCH   9  10
ENDBRANCH   4   9
ENDBRANCH   3   4
TORSDOF 5
ENDMDL
