MODEL 1
REMARK VINA RESULT: -7.746517055      0.000      0.000
REMARK  6 active torsions:
REMARK  status: ('A' for Active; 'I' for Inactive)
REMARK       I    between atoms: N1_3  and  C3_5 
REMARK       I    between atoms: C3_5  and  N2_7 
REMARK    1  A    between atoms: N2_7  and  C4_9 
REMARK    2  A    between atoms: C4_9  and  C5_10 
REMARK    3  A    between atoms: C5_10  and  N3_11 
REMARK       I    between atoms: N3_11  and  C6_13 
REMARK       I    between atoms: C6_13  and  N5_17 
REMARK    4  A    between atoms: N5_17  and  C7_19 
REMARK    5  A    between atoms: C7_19  and  C8_20 
REMARK    6  A    between atoms: C8_20  and  N6_21 
ROOT
HETATM    1  C1  UNL     1     -29.706 -13.719  72.819  1.00  0.00     0.037 C 
HETATM    2  C2  UNL     1     -29.809 -14.022  71.653  1.00  0.00     0.003 C 
HETATM    3  N1  UNL     1     -29.910 -14.389  70.310  1.00  0.00    -0.268 N 
ATOM      4  H1  UNL     1     -30.819 -14.660  69.932  1.00  0.00     0.181 HD
HETATM    5  C3  UNL     1     -28.776 -14.392  69.458  1.00  0.00     0.327 C 
HETATM    6  O1  UNL     1     -27.634 -14.060  69.885  1.00  0.00    -0.246 OA
HETATM    7  N2  UNL     1     -28.963 -14.782  68.104  1.00  0.00    -0.341 N 
ATOM      8  H2  UNL     1     -29.880 -15.052  67.747  1.00  0.00     0.164 HD
ENDROOT
BRANCH   7   9
HETATM    9  C4  UNL     1     -27.772 -14.777  67.244  1.00  0.00     0.144 C 
BRANCH   9  10
HETATM   10  C5  UNL     1     -28.053 -13.942  66.036  1.00  0.00     0.157 C 
BRANCH  10  11
HETATM   11  N3  UNL     1     -26.962 -13.027  65.818  1.00  0.00    -0.225 N 
HETATM   12  C6  UNL     1     -27.009 -11.683  66.261  1.00  0.00     0.667 C 
HETATM   13  N4  UNL     1     -27.150 -11.301  67.457  1.00  0.00    -0.235 N 
HETATM   14  N5  UNL     1     -26.873 -10.699  65.188  1.00  0.00    -0.225 N 
ATOM     15  H42 UNL     1     -27.245 -11.987  68.206  1.00  0.00     0.174 HD
ATOM     16  H41 UNL     1     -27.184 -10.333  67.777  1.00  0.00     0.174 HD
ATOM     17  H5  UNL     1     -27.584  -9.992  65.003  1.00  0.00     0.177 HD
ATOM     18  H3  UNL     1     -26.130 -13.357  65.328  1.00  0.00     0.177 HD
BRANCH  14  19
HETATM   19  C7  UNL     1     -25.684 -10.796  64.425  1.00  0.00     0.166 C 
BRANCH  19  20
HETATM   20  C8  UNL     1     -24.393 -10.980  65.098  1.00  0.00     0.257 C 
BRANCH  20  21
HETATM   21  N6  UNL     1     -23.457 -11.837  64.471  1.00  0.00    -0.069 N 
HETATM   22  C9  UNL     1     -23.817 -13.219  64.798  1.00  0.00     0.272 C 
HETATM   23  C10 UNL     1     -22.069 -11.617  64.565  1.00  0.00     0.237 C 
HETATM   24  C11 UNL     1     -21.907 -10.383  63.664  1.00  0.00     0.029 C 
HETATM   25  C12 UNL     1     -22.690 -10.829  62.450  1.00  0.00     0.029 C 
HETATM   26  C13 UNL     1     -23.704 -11.781  62.988  1.00  0.00     0.237 C 
ENDBRANCH  20  21
ENDBRANCH  19  20
ENDBRANCH  14  19
ENDBRANCH  10  11
ENDBRANCH   9  10
ENDBRANCH   7   9
TORSDOF 6
ENDMDL
MODEL 2
REMARK VINA RESULT: -7.732175263      1.425      2.463
REMARK  6 active torsions:
REMARK  status: ('A' for Active; 'I' for Inactive)
REMARK       I    between atoms: N1_3  and  C3_5 
REMARK       I    between atoms: C3_5  and  N2_7 
REMARK    1  A    between atoms: N2_7  and  C4_9 
REMARK    2  A    between atoms: C4_9  and  C5_10 
REMARK    3  A    between atoms: C5_10  and  N3_11 
REMARK       I    between atoms: N3_11  and  C6_13 
REMARK       I    between atoms: C6_13  and  N5_17 
REMARK    4  A    between atoms: N5_17  and  C7_19 
REMARK    5  A    between atoms: C7_19  and  C8_20 
REMARK    6  A    between atoms: C8_20  and  N6_21 
ROOT
HETATM    1  C1  UNL     1     -28.419 -13.421  74.884  1.00  0.00     0.037 C 
HETATM    2  C2  UNL     1     -28.948 -13.694  73.831  1.00  0.00     0.003 C 
HETATM    3  N1  UNL     1     -29.540 -14.025  72.611  1.00  0.00    -0.268 N 
ATOM      4  H1  UNL     1     -30.527 -14.283  72.588  1.00  0.00     0.181 HD
HETATM    5  C3  UNL     1     -28.799 -14.009  71.402  1.00  0.00     0.327 C 
HETATM    6  O1  UNL     1     -27.577 -13.691  71.386  1.00  0.00    -0.246 OA
HETATM    7  N2  UNL     1     -29.477 -14.362  70.203  1.00  0.00    -0.341 N 
ATOM      8  H2  UNL     1     -30.464 -14.620  70.202  1.00  0.00     0.164 HD
ENDROOT
BRANCH   7   9
HETATM    9  C4  UNL     1     -28.686 -14.338  68.965  1.00  0.00     0.144 C 
BRANCH   9  10
HETATM   10  C5  UNL     1     -29.044 -13.112  68.188  1.00  0.00     0.157 C 
BRANCH  10  11
HETATM   11  N3  UNL     1     -28.054 -12.881  67.168  1.00  0.00    -0.225 N 
HETATM   12  C6  UNL     1     -27.613 -13.911  66.303  1.00  0.00     0.667 C 
HETATM   13  N4  UNL     1     -28.338 -14.577  65.511  1.00  0.00    -0.235 N 
HETATM   14  N5  UNL     1     -26.176 -14.174  66.379  1.00  0.00    -0.225 N 
ATOM     15  H42 UNL     1     -29.340 -14.393  65.459  1.00  0.00     0.174 HD
ATOM     16  H41 UNL     1     -28.020 -15.320  64.889  1.00  0.00     0.174 HD
ATOM     17  H5  UNL     1     -25.802 -15.091  66.621  1.00  0.00     0.177 HD
ATOM     18  H3  UNL     1     -27.659 -11.946  67.065  1.00  0.00     0.177 HD
BRANCH  14  19
HETATM   19  C7  UNL     1     -25.341 -13.067  66.092  1.00  0.00     0.166 C 
BRANCH  19  20
HETATM   20  C8  UNL     1     -24.842 -12.858  64.728  1.00  0.00     0.257 C 
BRANCH  20  21
HETATM   21  N6  UNL     1     -24.831 -11.528  64.245  1.00  0.00    -0.069 N 
HETATM   22  C9  UNL     1     -26.067 -10.874  64.681  1.00  0.00     0.272 C 
HETATM   23  C10 UNL     1     -24.521 -11.228  62.903  1.00  0.00     0.237 C 
HETATM   24  C11 UNL     1     -23.010 -11.504  62.884  1.00  0.00     0.029 C 
HETATM   25  C12 UNL     1     -22.579 -10.749  64.121  1.00  0.00     0.029 C 
HETATM   26  C13 UNL     1     -23.778 -10.770  65.007  1.00  0.00     0.237 C 
ENDBRANCH  20  21
ENDBRANCH  19  20
ENDBRANCH  14  19
ENDBRANCH  10  11
ENDBRANCH   9  10
ENDBRANCH   7   9
TORSDOF 6
ENDMDL
MODEL 3
REMARK VINA RESULT: -7.682357820      9.044     13.617
REMARK  6 active torsions:
REMARK  status: ('A' for Active; 'I' for Inactive)
REMARK       I    between atoms: N1_3  and  C3_5 
REMARK       I    between atoms: C3_5  and  N2_7 
REMARK    1  A    between atoms: N2_7  and  C4_9 
REMARK    2  A    between atoms: C4_9  and  C5_10 
REMARK    3  A    between atoms: C5_10  and  N3_11 
REMARK       I    between atoms: N3_11  and  C6_13 
REMARK       I    between atoms: C6_13  and  N5_17 
REMARK    4  A    between atoms: N5_17  and  C7_19 
REMARK    5  A    between atoms: C7_19  and  C8_20 
REMARK    6  A    between atoms: C8_20  and  N6_21 
ROOT
HETATM    1  C1  UNL     1     -28.488 -14.056  73.627  1.00  0.00     0.037 C 
HETATM    2  C2  UNL     1     -29.133 -13.347  74.364  1.00  0.00     0.003 C 
HETATM    3  N1  UNL     1     -29.898 -12.537  75.205  1.00  0.00    -0.268 N 
ATOM      4  H1  UNL     1     -29.766 -12.600  76.215  1.00  0.00     0.181 HD
HETATM    5  C3  UNL     1     -30.854 -11.628  74.685  1.00  0.00     0.327 C 
HETATM    6  O1  UNL     1     -31.045 -11.518  73.441  1.00  0.00    -0.246 OA
HETATM    7  N2  UNL     1     -31.594 -10.842  75.610  1.00  0.00    -0.341 N 
ATOM      8  H2  UNL     1     -31.449 -10.921  76.616  1.00  0.00     0.164 HD
ENDROOT
BRANCH   7   9
HETATM    9  C4  UNL     1     -32.578  -9.909  75.044  1.00  0.00     0.144 C 
BRANCH   9  10
HETATM   10  C5  UNL     1     -33.952 -10.408  75.359  1.00  0.00     0.157 C 
BRANCH  10  11
HETATM   11  N3  UNL     1     -34.880  -9.306  75.352  1.00  0.00    -0.225 N 
HETATM   12  C6  UNL     1     -35.463  -8.809  76.542  1.00  0.00     0.667 C 
HETATM   13  N4  UNL     1     -34.838  -8.336  77.534  1.00  0.00    -0.235 N 
HETATM   14  N5  UNL     1     -36.923  -8.873  76.559  1.00  0.00    -0.225 N 
ATOM     15  H42 UNL     1     -33.819  -8.291  77.522  1.00  0.00     0.174 HD
ATOM     16  H41 UNL     1     -35.258  -7.977  78.391  1.00  0.00     0.174 HD
ATOM     17  H5  UNL     1     -37.439  -9.383  77.277  1.00  0.00     0.177 HD
ATOM     18  H3  UNL     1     -35.124  -8.871  74.462  1.00  0.00     0.177 HD
BRANCH  14  19
HETATM   19  C7  UNL     1     -37.572  -8.178  75.510  1.00  0.00     0.166 C 
BRANCH  19  20
HETATM   20  C8  UNL     1     -37.428  -6.722  75.395  1.00  0.00     0.257 C 
BRANCH  20  21
HETATM   21  N6  UNL     1     -37.396  -6.180  74.088  1.00  0.00    -0.069 N 
HETATM   22  C9  UNL     1     -38.770  -6.126  73.583  1.00  0.00     0.272 C 
HETATM   23  C10 UNL     1     -36.494  -6.649  73.112  1.00  0.00     0.237 C 
HETATM   24  C11 UNL     1     -35.169  -6.079  73.642  1.00  0.00     0.029 C 
HETATM   25  C12 UNL     1     -35.576  -4.648  73.911  1.00  0.00     0.029 C 
HETATM   26  C13 UNL     1     -37.036  -4.724  74.203  1.00  0.00     0.237 C 
ENDBRANCH  20  21
ENDBRANCH  19  20
ENDBRANCH  14  19
ENDBRANCH  10  11
ENDBRANCH   9  10
ENDBRANCH   7   9
TORSDOF 6
ENDMDL
MODEL 4
REMARK VINA RESULT: -7.662530432     11.289     13.782
REMARK  6 active torsions:
REMARK  status: ('A' for Active; 'I' for Inactive)
REMARK       I    between atoms: N1_3  and  C3_5 
REMARK       I    between atoms: C3_5  and  N2_7 
REMARK    1  A    between atoms: N2_7  and  C4_9 
REMARK    2  A    between atoms: C4_9  and  C5_10 
REMARK    3  A    between atoms: C5_10  and  N3_11 
REMARK       I    between atoms: N3_11  and  C6_13 
REMARK       I    between atoms: C6_13  and  N5_17 
REMARK    4  A    between atoms: N5_17  and  C7_19 
REMARK    5  A    between atoms: C7_19  and  C8_20 
REMARK    6  A    between atoms: C8_20  and  N6_21 
ROOT
HETATM    1  C1  UNL     1     -30.407  -9.439  77.774  1.00  0.00     0.037 C 
HETATM    2  C2  UNL     1     -30.830  -9.892  76.736  1.00  0.00     0.003 C 
HETATM    3  N1  UNL     1     -31.321 -10.393  75.529  1.00  0.00    -0.268 N 
ATOM      4  H1  UNL     1     -30.769 -11.075  75.008  1.00  0.00     0.181 HD
HETATM    5  C3  UNL     1     -32.574  -9.974  75.011  1.00  0.00     0.327 C 
HETATM    6  O1  UNL     1     -33.290  -9.135  75.627  1.00  0.00    -0.246 OA
HETATM    7  N2  UNL     1     -33.000 -10.530  73.774  1.00  0.00    -0.341 N 
ATOM      8  H2  UNL     1     -32.431 -11.209  73.268  1.00  0.00     0.164 HD
ENDROOT
BRANCH   7   9
HETATM    9  C4  UNL     1     -34.300 -10.079  73.260  1.00  0.00     0.144 C 
BRANCH   9  10
HETATM   10  C5  UNL     1     -35.385 -10.801  73.994  1.00  0.00     0.157 C 
BRANCH  10  11
HETATM   11  N3  UNL     1     -36.018  -9.902  74.925  1.00  0.00    -0.225 N 
HETATM   12  C6  UNL     1     -37.352 -10.089  75.359  1.00  0.00     0.667 C 
HETATM   13  N4  UNL     1     -37.801 -11.104  75.964  1.00  0.00    -0.235 N 
HETATM   14  N5  UNL     1     -38.239  -8.967  75.054  1.00  0.00    -0.225 N 
ATOM     15  H42 UNL     1     -37.183 -11.887  76.177  1.00  0.00     0.174 HD
ATOM     16  H41 UNL     1     -38.763 -11.239  76.277  1.00  0.00     0.174 HD
ATOM     17  H5  UNL     1     -39.082  -9.075  74.490  1.00  0.00     0.177 HD
ATOM     18  H3  UNL     1     -35.489  -9.107  75.283  1.00  0.00     0.177 HD
BRANCH  14  19
HETATM   19  C7  UNL     1     -37.844  -7.719  75.594  1.00  0.00     0.166 C 
BRANCH  19  20
HETATM   20  C8  UNL     1     -37.480  -6.614  74.701  1.00  0.00     0.257 C 
BRANCH  20  21
HETATM   21  N6  UNL     1     -36.228  -5.993  74.922  1.00  0.00    -0.069 N 
HETATM   22  C9  UNL     1     -35.709  -6.462  76.209  1.00  0.00     0.272 C 
HETATM   23  C10 UNL     1     -36.047  -4.606  74.755  1.00  0.00     0.237 C 
HETATM   24  C11 UNL     1     -36.108  -4.486  73.224  1.00  0.00     0.029 C 
HETATM   25  C12 UNL     1     -35.159  -5.594  72.827  1.00  0.00     0.029 C 
HETATM   26  C13 UNL     1     -35.246  -6.578  73.945  1.00  0.00     0.237 C 
ENDBRANCH  20  21
ENDBRANCH  19  20
ENDBRANCH  14  19
ENDBRANCH  10  11
ENDBRANCH   9  10
ENDBRANCH   7   9
TORSDOF 6
ENDMDL
MODEL 5
REMARK VINA RESULT: -7.523113560      9.048     13.388
REMARK  6 active torsions:
REMARK  status: ('A' for Active; 'I' for Inactive)
REMARK       I    between atoms: N1_3  and  C3_5 
REMARK       I    between atoms: C3_5  and  N2_7 
REMARK    1  A    between atoms: N2_7  and  C4_9 
REMARK    2  A    between atoms: C4_9  and  C5_10 
REMARK    3  A    between atoms: C5_10  and  N3_11 
REMARK       I    between atoms: N3_11  and  C6_13 
REMARK       I    between atoms: C6_13  and  N5_17 
REMARK    4  A    between atoms: N5_17  and  C7_19 
REMARK    5  A    between atoms: C7_19  and  C8_20 
REMARK    6  A    between atoms: C8_20  and  N6_21 
ROOT
HETATM    1  C1  UNL     1     -28.478 -14.022  73.627  1.00  0.00     0.037 C 
HETATM    2  C2  UNL     1     -29.120 -13.328  74.381  1.00  0.00     0.003 C 
HETATM    3  N1  UNL     1     -29.881 -12.534  75.240  1.00  0.00    -0.268 N 
ATOM      4  H1  UNL     1     -29.734 -12.605  76.248  1.00  0.00     0.181 HD
HETATM    5  C3  UNL     1     -30.855 -11.631  74.743  1.00  0.00     0.327 C 
HETATM    6  O1  UNL     1     -31.065 -11.511  73.503  1.00  0.00    -0.246 OA
HETATM    7  N2  UNL     1     -31.590 -10.862  75.685  1.00  0.00    -0.341 N 
ATOM      8  H2  UNL     1     -31.429 -10.949  76.689  1.00  0.00     0.164 HD
ENDROOT
BRANCH   7   9
HETATM    9  C4  UNL     1     -32.593  -9.935  75.143  1.00  0.00     0.144 C 
BRANCH   9  10
HETATM   10  C5  UNL     1     -33.903 -10.648  75.040  1.00  0.00     0.157 C 
BRANCH  10  11
HETATM   11  N3  UNL     1     -34.935  -9.852  75.653  1.00  0.00    -0.225 N 
HETATM   12  C6  UNL     1     -36.233 -10.363  75.895  1.00  0.00     0.667 C 
HETATM   13  N4  UNL     1     -36.514 -11.363  76.614  1.00  0.00    -0.235 N 
HETATM   14  N5  UNL     1     -37.298  -9.617  75.228  1.00  0.00    -0.225 N 
ATOM     15  H42 UNL     1     -35.771 -11.883  77.080  1.00  0.00     0.174 HD
ATOM     16  H41 UNL     1     -37.449 -11.732  76.789  1.00  0.00     0.174 HD
ATOM     17  H5  UNL     1     -37.942 -10.057  74.570  1.00  0.00     0.177 HD
ATOM     18  H3  UNL     1     -34.724  -8.890  75.921  1.00  0.00     0.177 HD
BRANCH  14  19
HETATM   19  C7  UNL     1     -37.374  -8.242  75.558  1.00  0.00     0.166 C 
BRANCH  19  20
HETATM   20  C8  UNL     1     -37.271  -7.227  74.503  1.00  0.00     0.257 C 
BRANCH  20  21
HETATM   21  N6  UNL     1     -36.389  -6.145  74.737  1.00  0.00    -0.069 N 
HETATM   22  C9  UNL     1     -35.866  -6.270  76.099  1.00  0.00     0.272 C 
HETATM   23  C10 UNL     1     -36.746  -4.817  74.429  1.00  0.00     0.237 C 
HETATM   24  C11 UNL     1     -36.689  -4.848  72.894  1.00  0.00     0.029 C 
HETATM   25  C12 UNL     1     -35.348  -5.514  72.685  1.00  0.00     0.029 C 
HETATM   26  C13 UNL     1     -35.160  -6.363  73.897  1.00  0.00     0.237 C 
ENDBRANCH  20  21
ENDBRANCH  19  20
ENDBRANCH  14  19
ENDBRANCH  10  11
ENDBRANCH   9  10
ENDBRANCH   7   9
TORSDOF 6
ENDMDL
