MODEL 1
REMARK VINA RESULT: -8.156346207      0.000      0.000
REMARK  5 active torsions:
REMARK  status: ('A' for Active; 'I' for Inactive)
REMARK    1  A    between atoms: C3_3  and  N1_4 
REMARK    2  A    between atoms: C3_3  and  C4_8 
REMARK       I    between atoms: N2_12  and  C8_13 
REMARK       I    between atoms: C8_13  and  N4_17 
REMARK    3  A    between atoms: N4_17  and  C9_19 
REMARK    4  A    between atoms: C9_19  and  C10_20 
REMARK    5  A    between atoms: C10_20  and  N5_21 
ROOT
HETATM    1  C1  UNL     1     -30.666 -14.691  70.160  1.00  0.00     0.014 C 
HETATM    2  C2  UNL     1     -29.578 -14.472  69.677  1.00  0.00    -0.082 C 
HETATM    3  C3  UNL     1     -28.255 -14.185  69.088  1.00  0.00     0.284 C 
ENDROOT
BRANCH   3   4
HETATM    4  N1  UNL     1     -27.385 -13.768  70.135  1.00  0.00    -0.063 N 
ATOM      5  H13 UNL     1     -27.284 -14.472  70.867  1.00  0.00     0.275 HD
ATOM      6  H12 UNL     1     -26.408 -13.732  69.845  1.00  0.00     0.275 HD
ATOM      7  H11 UNL     1     -27.723 -12.875  70.492  1.00  0.00     0.275 HD
ENDBRANCH   3   4
BRANCH   3   8
HETATM    8  C4  UNL     1     -28.447 -13.171  68.005  1.00  0.00     0.144 C 
HETATM    9  C5  UNL     1     -28.405 -11.757  68.473  1.00  0.00     0.030 C 
HETATM   10  C6  UNL     1     -28.071 -10.994  67.205  1.00  0.00     0.022 C 
HETATM   11  C7  UNL     1     -27.672 -12.037  66.184  1.00  0.00     0.142 C 
HETATM   12  N2  UNL     1     -27.405 -13.202  67.002  1.00  0.00    -0.211 N 
HETATM   13  C8  UNL     1     -26.340 -14.113  66.794  1.00  0.00     0.670 C 
HETATM   14  N3  UNL     1     -26.548 -15.384  66.833  1.00  0.00    -0.235 N 
HETATM   15  N4  UNL     1     -24.992 -13.697  66.532  1.00  0.00    -0.225 N 
ATOM     16  H32 UNL     1     -27.507 -15.680  67.019  1.00  0.00     0.174 HD
ATOM     17  H31 UNL     1     -25.781 -16.039  66.683  1.00  0.00     0.174 HD
ATOM     18  H4  UNL     1     -24.418 -13.355  67.302  1.00  0.00     0.177 HD
BRANCH  15  19
HETATM   19  C9  UNL     1     -24.425 -13.753  65.197  1.00  0.00     0.166 C 
BRANCH  19  20
HETATM   20  C10 UNL     1     -24.855 -12.546  64.448  1.00  0.00     0.259 C 
BRANCH  20  21
HETATM   21  N5  UNL     1     -23.824 -11.611  64.149  1.00  0.00    -0.044 N 
HETATM   22  C11 UNL     1     -24.056 -10.409  64.929  1.00  0.00     0.274 C 
HETATM   23  C12 UNL     1     -23.768 -11.236  62.750  1.00  0.00     0.266 C 
HETATM   24  C13 UNL     1     -22.387 -10.623  62.644  1.00  0.00     0.262 C 
HETATM   25  N6  UNL     1     -21.620 -11.169  63.737  1.00  0.00    -0.049 N 
HETATM   26  C14 UNL     1     -22.496 -12.079  64.447  1.00  0.00     0.467 C 
ATOM     27  H62 UNL     1     -20.746 -11.602  63.438  1.00  0.00     0.279 HD
ATOM     28  H61 UNL     1     -21.210 -10.454  64.337  1.00  0.00     0.279 HD
ENDBRANCH  20  21
ENDBRANCH  19  20
ENDBRANCH  15  19
ENDBRANCH   3   8
TORSDOF 5
ENDMDL
MODEL 2
REMARK VINA RESULT: -7.853542203      1.432      2.603
REMARK  5 active torsions:
REMARK  status: ('A' for Active; 'I' for Inactive)
REMARK    1  A    between atoms: C3_3  and  N1_4 
REMARK    2  A    between atoms: C3_3  and  C4_8 
REMARK       I    between atoms: N2_12  and  C8_13 
REMARK       I    between atoms: C8_13  and  N4_17 
REMARK    3  A    between atoms: N4_17  and  C9_19 
REMARK    4  A    between atoms: C9_19  and  C10_20 
REMARK    5  A    between atoms: C10_20  and  N5_21 
ROOT
HETATM    1  C1  UNL     1     -29.891 -14.437  70.420  1.00  0.00     0.014 C 
HETATM    2  C2  UNL     1     -29.397 -13.761  69.546  1.00  0.00    -0.082 C 
HETATM    3  C3  UNL     1     -28.791 -12.953  68.469  1.00  0.00     0.284 C 
ENDROOT
BRANCH   3   4
HETATM    4  N1  UNL     1     -29.769 -12.765  67.452  1.00  0.00    -0.063 N 
ATOM      5  H13 UNL     1     -30.230 -13.635  67.183  1.00  0.00     0.275 HD
ATOM      6  H12 UNL     1     -30.596 -12.271  67.787  1.00  0.00     0.275 HD
ATOM      7  H11 UNL     1     -29.322 -12.296  66.664  1.00  0.00     0.275 HD
ENDBRANCH   3   4
BRANCH   3   8
HETATM    8  C4  UNL     1     -27.552 -13.656  68.012  1.00  0.00     0.144 C 
HETATM    9  C5  UNL     1     -27.800 -14.963  67.339  1.00  0.00     0.030 C 
HETATM   10  C6  UNL     1     -26.535 -15.169  66.528  1.00  0.00     0.022 C 
HETATM   11  C7  UNL     1     -25.793 -13.850  66.573  1.00  0.00     0.142 C 
HETATM   12  N2  UNL     1     -26.815 -12.921  67.008  1.00  0.00    -0.211 N 
HETATM   13  C8  UNL     1     -26.981 -11.605  66.508  1.00  0.00     0.670 C 
HETATM   14  N3  UNL     1     -27.165 -10.617  67.313  1.00  0.00    -0.235 N 
HETATM   15  N4  UNL     1     -26.958 -11.289  65.108  1.00  0.00    -0.225 N 
ATOM     16  H32 UNL     1     -27.182 -10.841  68.309  1.00  0.00     0.174 HD
ATOM     17  H31 UNL     1     -27.285  -9.670  66.953  1.00  0.00     0.174 HD
ATOM     18  H4  UNL     1     -27.774 -11.504  64.536  1.00  0.00     0.177 HD
BRANCH  15  19
HETATM   19  C9  UNL     1     -25.802 -10.670  64.488  1.00  0.00     0.166 C 
BRANCH  19  20
HETATM   20  C10 UNL     1     -24.579 -11.140  65.186  1.00  0.00     0.259 C 
BRANCH  20  21
HETATM   21  N5  UNL     1     -23.475 -11.453  64.344  1.00  0.00    -0.044 N 
HETATM   22  C11 UNL     1     -23.957 -11.568  62.979  1.00  0.00     0.274 C 
HETATM   23  C12 UNL     1     -22.813 -12.694  64.694  1.00  0.00     0.266 C 
HETATM   24  C13 UNL     1     -21.489 -12.558  63.970  1.00  0.00     0.262 C 
HETATM   25  N6  UNL     1     -21.286 -11.144  63.765  1.00  0.00    -0.049 N 
HETATM   26  C14 UNL     1     -22.424 -10.470  64.357  1.00  0.00     0.467 C 
ATOM     27  H62 UNL     1     -20.390 -10.811  64.121  1.00  0.00     0.279 HD
ATOM     28  H61 UNL     1     -21.135 -10.897  62.787  1.00  0.00     0.279 HD
ENDBRANCH  20  21
ENDBRANCH  19  20
ENDBRANCH  15  19
ENDBRANCH   3   8
TORSDOF 5
ENDMDL
MODEL 3
REMARK VINA RESULT: -7.414667598     13.588     16.658
REMARK  5 active torsions:
REMARK  status: ('A' for Active; 'I' for Inactive)
REMARK    1  A    between atoms: C3_3  and  N1_4 
REMARK    2  A    between atoms: C3_3  and  C4_8 
REMARK       I    between atoms: N2_12  and  C8_13 
REMARK       I    between atoms: C8_13  and  N4_17 
REMARK    3  A    between atoms: N4_17  and  C9_19 
REMARK    4  A    between atoms: C9_19  and  C10_20 
REMARK    5  A    between atoms: C10_20  and  N5_21 
ROOT
HETATM    1  C1  UNL     1     -31.132  -9.929  76.373  1.00  0.00     0.014 C 
HETATM    2  C2  UNL     1     -30.381  -9.682  77.289  1.00  0.00    -0.082 C 
HETATM    3  C3  UNL     1     -29.480  -9.378  78.419  1.00  0.00     0.284 C 
ENDROOT
BRANCH   3   4
HETATM    4  N1  UNL     1     -29.249 -10.586  79.137  1.00  0.00    -0.063 N 
ATOM      5  H13 UNL     1     -28.347 -10.594  79.613  1.00  0.00     0.275 HD
ATOM      6  H12 UNL     1     -29.840 -10.673  79.963  1.00  0.00     0.275 HD
ATOM      7  H11 UNL     1     -29.360 -11.366  78.489  1.00  0.00     0.275 HD
ENDBRANCH   3   4
BRANCH   3   8
HETATM    8  C4  UNL     1     -30.113  -8.291  79.228  1.00  0.00     0.144 C 
HETATM    9  C5  UNL     1     -30.940  -8.775  80.369  1.00  0.00     0.030 C 
HETATM   10  C6  UNL     1     -30.982  -7.569  81.289  1.00  0.00     0.022 C 
HETATM   11  C7  UNL     1     -29.957  -6.597  80.748  1.00  0.00     0.142 C 
HETATM   12  N2  UNL     1     -29.150  -7.430  79.879  1.00  0.00    -0.211 N 
HETATM   13  C8  UNL     1     -27.741  -7.350  79.759  1.00  0.00     0.670 C 
HETATM   14  N3  UNL     1     -27.181  -7.349  78.599  1.00  0.00    -0.235 N 
HETATM   15  N4  UNL     1     -26.860  -7.269  80.890  1.00  0.00    -0.225 N 
ATOM     16  H32 UNL     1     -27.807  -7.407  77.795  1.00  0.00     0.174 HD
ATOM     17  H31 UNL     1     -26.167  -7.292  78.512  1.00  0.00     0.174 HD
ATOM     18  H4  UNL     1     -26.667  -8.110  81.432  1.00  0.00     0.177 HD
BRANCH  15  19
HETATM   19  C9  UNL     1     -26.236  -6.018  81.278  1.00  0.00     0.166 C 
BRANCH  19  20
HETATM   20  C10 UNL     1     -27.171  -5.273  82.158  1.00  0.00     0.259 C 
BRANCH  20  21
HETATM   21  N5  UNL     1     -26.774  -5.162  83.520  1.00  0.00    -0.044 N 
HETATM   22  C11 UNL     1     -26.748  -3.755  83.877  1.00  0.00     0.274 C 
HETATM   23  C12 UNL     1     -25.464  -5.719  83.790  1.00  0.00     0.266 C 
HETATM   24  C13 UNL     1     -25.488  -5.864  85.298  1.00  0.00     0.262 C 
HETATM   25  N6  UNL     1     -26.880  -5.920  85.674  1.00  0.00    -0.049 N 
HETATM   26  C14 UNL     1     -27.647  -5.834  84.447  1.00  0.00     0.467 C 
ATOM     27  H62 UNL     1     -27.112  -6.738  86.237  1.00  0.00     0.279 HD
ATOM     28  H61 UNL     1     -27.140  -5.213  86.361  1.00  0.00     0.279 HD
ENDBRANCH  20  21
ENDBRANCH  19  20
ENDBRANCH  15  19
ENDBRANCH   3   8
TORSDOF 5
ENDMDL
MODEL 4
REMARK VINA RESULT: -7.328701192     13.625     16.617
REMARK  5 active torsions:
REMARK  status: ('A' for Active; 'I' for Inactive)
REMARK    1  A    between atoms: C3_3  and  N1_4 
REMARK    2  A    between atoms: C3_3  and  C4_8 
REMARK       I    between atoms: N2_12  and  C8_13 
REMARK       I    between atoms: C8_13  and  N4_17 
REMARK    3  A    between atoms: N4_17  and  C9_19 
REMARK    4  A    between atoms: C9_19  and  C10_20 
REMARK    5  A    between atoms: C10_20  and  N5_21 
ROOT
HETATM    1  C1  UNL     1     -31.144  -9.944  76.348  1.00  0.00     0.014 C 
HETATM    2  C2  UNL     1     -30.404  -9.697  77.273  1.00  0.00    -0.082 C 
HETATM    3  C3  UNL     1     -29.516  -9.394  78.414  1.00  0.00     0.284 C 
ENDROOT
BRANCH   3   4
HETATM    4  N1  UNL     1     -29.297 -10.601  79.137  1.00  0.00    -0.063 N 
ATOM      5  H13 UNL     1     -29.700 -10.579  80.073  1.00  0.00     0.275 HD
ATOM      6  H12 UNL     1     -29.841 -11.383  78.772  1.00  0.00     0.275 HD
ATOM      7  H11 UNL     1     -28.294 -10.788  79.144  1.00  0.00     0.275 HD
ENDBRANCH   3   4
BRANCH   3   8
HETATM    8  C4  UNL     1     -30.156  -8.303  79.213  1.00  0.00     0.144 C 
HETATM    9  C5  UNL     1     -30.984  -8.783  80.355  1.00  0.00     0.030 C 
HETATM   10  C6  UNL     1     -31.035  -7.570  81.266  1.00  0.00     0.022 C 
HETATM   11  C7  UNL     1     -30.011  -6.598  80.721  1.00  0.00     0.142 C 
HETATM   12  N2  UNL     1     -29.199  -7.434  79.861  1.00  0.00    -0.211 N 
HETATM   13  C8  UNL     1     -27.789  -7.350  79.744  1.00  0.00     0.670 C 
HETATM   14  N3  UNL     1     -27.226  -7.355  78.586  1.00  0.00    -0.235 N 
HETATM   15  N4  UNL     1     -26.912  -7.257  80.877  1.00  0.00    -0.225 N 
ATOM     16  H32 UNL     1     -27.849  -7.421  77.780  1.00  0.00     0.174 HD
ATOM     17  H31 UNL     1     -26.212  -7.294  78.502  1.00  0.00     0.174 HD
ATOM     18  H4  UNL     1     -26.718  -8.093  81.426  1.00  0.00     0.177 HD
BRANCH  15  19
HETATM   19  C9  UNL     1     -26.294  -6.000  81.258  1.00  0.00     0.166 C 
BRANCH  19  20
HETATM   20  C10 UNL     1     -27.211  -5.279  82.175  1.00  0.00     0.259 C 
BRANCH  20  21
HETATM   21  N5  UNL     1     -26.714  -5.058  83.491  1.00  0.00    -0.044 N 
HETATM   22  C11 UNL     1     -27.579  -5.749  84.430  1.00  0.00     0.274 C 
HETATM   23  C12 UNL     1     -26.667  -3.659  83.866  1.00  0.00     0.266 C 
HETATM   24  C13 UNL     1     -25.736  -3.685  85.061  1.00  0.00     0.262 C 
HETATM   25  N6  UNL     1     -24.945  -4.884  84.927  1.00  0.00    -0.049 N 
HETATM   26  C14 UNL     1     -25.370  -5.530  83.702  1.00  0.00     0.467 C 
ATOM     27  H62 UNL     1     -23.940  -4.710  84.963  1.00  0.00     0.279 HD
ATOM     28  H61 UNL     1     -24.997  -5.494  85.743  1.00  0.00     0.279 HD
ENDBRANCH  20  21
ENDBRANCH  19  20
ENDBRANCH  15  19
ENDBRANCH   3   8
TORSDOF 5
ENDMDL
MODEL 5
REMARK VINA RESULT: -7.258840468     13.448     16.545
REMARK  5 active torsions:
REMARK  status: ('A' for Active; 'I' for Inactive)
REMARK    1  A    between atoms: C3_3  and  N1_4 
REMARK    2  A    between atoms: C3_3  and  C4_8 
REMARK       I    between atoms: N2_12  and  C8_13 
REMARK       I    between atoms: C8_13  and  N4_17 
REMARK    3  A    between atoms: N4_17  and  C9_19 
REMARK    4  A    between atoms: C9_19  and  C10_20 
REMARK    5  A    between atoms: C10_20  and  N5_21 
ROOT
HETATM    1  C1  UNL     1     -31.075  -9.942  76.452  1.00  0.00     0.014 C 
HETATM    2  C2  UNL     1     -30.329  -9.707  77.376  1.00  0.00    -0.082 C 
HETATM    3  C3  UNL     1     -29.434  -9.419  78.514  1.00  0.00     0.284 C 
ENDROOT
BRANCH   3   4
HETATM    4  N1  UNL     1     -29.220 -10.632  79.227  1.00  0.00    -0.063 N 
ATOM      5  H13 UNL     1     -28.487 -10.552  79.931  1.00  0.00     0.275 HD
ATOM      6  H12 UNL     1     -29.989 -10.860  79.857  1.00  0.00     0.275 HD
ATOM      7  H11 UNL     1     -29.036 -11.371  78.548  1.00  0.00     0.275 HD
ENDBRANCH   3   4
BRANCH   3   8
HETATM    8  C4  UNL     1     -30.061  -8.329  79.324  1.00  0.00     0.144 C 
HETATM    9  C5  UNL     1     -30.831  -8.807  80.507  1.00  0.00     0.030 C 
HETATM   10  C6  UNL     1     -30.868  -7.583  81.401  1.00  0.00     0.022 C 
HETATM   11  C7  UNL     1     -29.888  -6.599  80.801  1.00  0.00     0.142 C 
HETATM   12  N2  UNL     1     -29.095  -7.432  79.919  1.00  0.00    -0.211 N 
HETATM   13  C8  UNL     1     -27.694  -7.322  79.743  1.00  0.00     0.670 C 
HETATM   14  N3  UNL     1     -27.179  -7.333  78.562  1.00  0.00    -0.235 N 
HETATM   15  N4  UNL     1     -26.772  -7.196  80.837  1.00  0.00    -0.225 N 
ATOM     16  H32 UNL     1     -27.834  -7.424  77.785  1.00  0.00     0.174 HD
ATOM     17  H31 UNL     1     -26.170  -7.254  78.435  1.00  0.00     0.174 HD
ATOM     18  H4  UNL     1     -26.539  -8.020  81.389  1.00  0.00     0.177 HD
BRANCH  15  19
HETATM   19  C9  UNL     1     -26.164  -5.922  81.175  1.00  0.00     0.166 C 
BRANCH  19  20
HETATM   20  C10 UNL     1     -26.104  -5.801  82.652  1.00  0.00     0.259 C 
BRANCH  20  21
HETATM   21  N5  UNL     1     -27.024  -4.882  83.230  1.00  0.00    -0.044 N 
HETATM   22  C11 UNL     1     -26.313  -4.074  84.205  1.00  0.00     0.274 C 
HETATM   23  C12 UNL     1     -28.138  -5.521  83.901  1.00  0.00     0.266 C 
HETATM   24  C13 UNL     1     -29.129  -4.381  84.021  1.00  0.00     0.262 C 
HETATM   25  N6  UNL     1     -28.774  -3.431  82.994  1.00  0.00    -0.049 N 
HETATM   26  C14 UNL     1     -27.640  -3.989  82.285  1.00  0.00     0.467 C 
ATOM     27  H62 UNL     1     -29.554  -3.191  82.382  1.00  0.00     0.279 HD
ATOM     28  H61 UNL     1     -28.601  -2.493  83.356  1.00  0.00     0.279 HD
ENDBRANCH  20  21
ENDBRANCH  19  20
ENDBRANCH  15  19
ENDBRANCH   3   8
TORSDOF 5
ENDMDL
