MODEL 1
REMARK VINA RESULT: -8.449942696      0.000      0.000
REMARK  6 active torsions:
REMARK  status: ('A' for Active; 'I' for Inactive)
REMARK    1  A    between atoms: C2_2  and  C3_3 
REMARK    2  A    between atoms: C3_3  and  C4_4 
REMARK       I    between atoms: C4_4  and  N1_6 
REMARK    3  A    between atoms: N1_6  and  C5_8 
REMARK    4  A    between atoms: N4_19  and  C11_20 
REMARK    5  A    between atoms: C11_20  and  C12_21 
REMARK    6  A    between atoms: C12_21  and  O2_23 
ROOT
HETATM    1  C5  UNL     1     -28.419 -13.324  68.745  1.00  0.00     0.113 C 
HETATM    2  C6  UNL     1     -28.434 -11.814  68.600  1.00  0.00     0.061 C 
HETATM    3  C7  UNL     1     -27.405 -11.504  67.562  1.00  0.00     0.203 C 
HETATM    4  C8  UNL     1     -27.949 -10.396  66.708  1.00  0.00     0.054 C 
HETATM    5  C9  UNL     1     -29.179 -10.811  65.939  1.00  0.00     0.125 C 
HETATM    6  N2  UNL     1     -29.129 -12.169  65.503  1.00  0.00    -0.356 N 
ATOM      7  H2  UNL     1     -29.799 -12.480  64.798  1.00  0.00     0.162 HD
HETATM    8  C10 UNL     1     -28.183 -13.112  66.010  1.00  0.00     0.274 C 
HETATM    9  N3  UNL     1     -28.371 -14.328  65.618  1.00  0.00    -0.365 N 
ATOM     10  H31 UNL     1     -27.696 -15.001  65.981  1.00  0.00     0.159 HD
ATOM     11  H32 UNL     1     -29.133 -14.598  64.996  1.00  0.00     0.159 HD
HETATM   12  N4  UNL     1     -27.142 -12.742  66.862  1.00  0.00     0.001 N 
HETATM   13  C14 UNL     1     -27.166 -13.683  68.009  1.00  0.00     0.273 C 
ENDROOT
BRANCH   1  14
HETATM   14  N1  UNL     1     -28.388 -13.612  70.159  1.00  0.00    -0.355 N 
HETATM   15  C4  UNL     1     -29.515 -14.186  70.773  1.00  0.00     0.217 C 
HETATM   16  O1  UNL     1     -30.560 -14.451  70.088  1.00  0.00    -0.274 OA
ATOM     17  H1  UNL     1     -27.555 -13.401  70.708  1.00  0.00     0.162 HD
BRANCH  15  18
HETATM   18  C3  UNL     1     -29.475 -14.478  72.230  1.00  0.00     0.102 C 
BRANCH  18  19
HETATM   19  C2  UNL     1     -29.911 -13.243  72.983  1.00  0.00     0.005 C 
HETATM   20  C1  UNL     1     -29.278 -13.260  74.350  1.00  0.00     0.005 C 
ENDBRANCH  18  19
ENDBRANCH  15  18
ENDBRANCH   1  14
BRANCH  12  21
HETATM   21  C11 UNL     1     -25.819 -12.815  66.334  1.00  0.00     0.279 C 
BRANCH  21  22
HETATM   22  C12 UNL     1     -25.378 -11.683  65.471  1.00  0.00     0.140 C 
HETATM   23  C13 UNL     1     -24.876 -12.220  64.121  1.00  0.00     0.041 C 
BRANCH  22  24
HETATM   24  O2  UNL     1     -24.341 -10.923  65.978  1.00  0.00    -0.394 OA
ATOM     25  H2  UNL     1     -24.510 -10.515  66.818  1.00  0.00     0.210 HD
ENDBRANCH  22  24
ENDBRANCH  21  22
ENDBRANCH  12  21
TORSDOF 6
ENDMDL
MODEL 2
REMARK VINA RESULT: -8.371829099      9.437     11.295
REMARK  6 active torsions:
REMARK  status: ('A' for Active; 'I' for Inactive)
REMARK    1  A    between atoms: C2_2  and  C3_3 
REMARK    2  A    between atoms: C3_3  and  C4_4 
REMARK       I    between atoms: C4_4  and  N1_6 
REMARK    3  A    between atoms: N1_6  and  C5_8 
REMARK    4  A    between atoms: N4_19  and  C11_20 
REMARK    5  A    between atoms: C11_20  and  C12_21 
REMARK    6  A    between atoms: C12_21  and  O2_23 
ROOT
HETATM    1  C5  UNL     1     -33.818  -9.816  75.150  1.00  0.00     0.113 C 
HETATM    2  C6  UNL     1     -34.935 -10.436  75.967  1.00  0.00     0.061 C 
HETATM    3  C7  UNL     1     -36.194  -9.814  75.457  1.00  0.00     0.203 C 
HETATM    4  C8  UNL     1     -37.241 -10.889  75.417  1.00  0.00     0.054 C 
HETATM    5  C9  UNL     1     -36.910 -11.982  74.433  1.00  0.00     0.125 C 
HETATM    6  N2  UNL     1     -36.259 -11.495  73.260  1.00  0.00    -0.356 N 
ATOM      7  H2  UNL     1     -36.191 -12.111  72.449  1.00  0.00     0.162 HD
HETATM    8  C10 UNL     1     -35.698 -10.184  73.173  1.00  0.00     0.274 C 
HETATM    9  N3  UNL     1     -35.020  -9.959  72.097  1.00  0.00    -0.365 N 
ATOM     10  H31 UNL     1     -34.620  -9.022  72.035  1.00  0.00     0.159 HD
ATOM     11  H32 UNL     1     -34.893 -10.658  71.365  1.00  0.00     0.159 HD
HETATM   12  N4  UNL     1     -35.872  -9.229  74.174  1.00  0.00     0.001 N 
HETATM   13  C14 UNL     1     -34.529  -8.678  74.485  1.00  0.00     0.273 C 
ENDROOT
BRANCH   1  14
HETATM   14  N1  UNL     1     -32.786  -9.419  76.078  1.00  0.00    -0.355 N 
HETATM   15  C4  UNL     1     -31.575 -10.131  76.112  1.00  0.00     0.217 C 
HETATM   16  O1  UNL     1     -31.385 -11.123  75.330  1.00  0.00    -0.274 OA
ATOM     17  H1  UNL     1     -32.935  -8.628  76.703  1.00  0.00     0.162 HD
BRANCH  15  18
HETATM   18  C3  UNL     1     -30.518  -9.716  77.072  1.00  0.00     0.102 C 
BRANCH  18  19
HETATM   19  C2  UNL     1     -31.174  -9.022  78.242  1.00  0.00     0.005 C 
HETATM   20  C1  UNL     1     -30.451  -9.412  79.505  1.00  0.00     0.005 C 
ENDBRANCH  18  19
ENDBRANCH  15  18
ENDBRANCH   1  14
BRANCH  12  21
HETATM   21  C11 UNL     1     -36.683  -8.100  73.856  1.00  0.00     0.279 C 
BRANCH  21  22
HETATM   22  C12 UNL     1     -37.133  -7.254  74.998  1.00  0.00     0.140 C 
HETATM   23  C13 UNL     1     -38.669  -7.200  75.034  1.00  0.00     0.041 C 
BRANCH  22  24
HETATM   24  O2  UNL     1     -36.715  -5.937  74.959  1.00  0.00    -0.394 OA
ATOM     25  H2  UNL     1     -36.994  -5.401  75.691  1.00  0.00     0.210 HD
ENDBRANCH  22  24
ENDBRANCH  21  22
ENDBRANCH  12  21
TORSDOF 6
ENDMDL
MODEL 3
REMARK VINA RESULT: -8.017820545      1.861      3.211
REMARK  6 active torsions:
REMARK  status: ('A' for Active; 'I' for Inactive)
REMARK    1  A    between atoms: C2_2  and  C3_3 
REMARK    2  A    between atoms: C3_3  and  C4_4 
REMARK       I    between atoms: C4_4  and  N1_6 
REMARK    3  A    between atoms: N1_6  and  C5_8 
REMARK    4  A    between atoms: N4_19  and  C11_20 
REMARK    5  A    between atoms: C11_20  and  C12_21 
REMARK    6  A    between atoms: C12_21  and  O2_23 
ROOT
HETATM    1  C5  UNL     1     -28.288 -13.121  68.865  1.00  0.00     0.113 C 
HETATM    2  C6  UNL     1     -28.123 -14.413  68.089  1.00  0.00     0.061 C 
HETATM    3  C7  UNL     1     -28.308 -14.042  66.654  1.00  0.00     0.203 C 
HETATM    4  C8  UNL     1     -27.312 -14.831  65.855  1.00  0.00     0.054 C 
HETATM    5  C9  UNL     1     -25.887 -14.461  66.181  1.00  0.00     0.125 C 
HETATM    6  N2  UNL     1     -25.724 -13.072  66.462  1.00  0.00    -0.356 N 
ATOM      7  H2  UNL     1     -24.780 -12.684  66.478  1.00  0.00     0.162 HD
HETATM    8  C10 UNL     1     -26.826 -12.199  66.722  1.00  0.00     0.274 C 
HETATM    9  N3  UNL     1     -26.493 -11.010  67.101  1.00  0.00    -0.365 N 
ATOM     10  H31 UNL     1     -27.280 -10.388  67.287  1.00  0.00     0.159 HD
ATOM     11  H32 UNL     1     -25.524 -10.713  67.207  1.00  0.00     0.159 HD
HETATM   12  N4  UNL     1     -28.152 -12.606  66.578  1.00  0.00     0.001 N 
HETATM   13  C14 UNL     1     -28.863 -12.215  67.821  1.00  0.00     0.273 C 
ENDROOT
BRANCH   1  14
HETATM   14  N1  UNL     1     -29.174 -13.401  69.970  1.00  0.00    -0.355 N 
HETATM   15  C4  UNL     1     -28.634 -13.775  71.212  1.00  0.00     0.217 C 
HETATM   16  O1  UNL     1     -27.370 -13.868  71.367  1.00  0.00    -0.274 OA
ATOM     17  H1  UNL     1     -30.184 -13.328  69.849  1.00  0.00     0.162 HD
BRANCH  15  18
HETATM   18  C3  UNL     1     -29.554 -14.064  72.344  1.00  0.00     0.102 C 
BRANCH  18  19
HETATM   19  C2  UNL     1     -28.816 -13.824  73.640  1.00  0.00     0.005 C 
HETATM   20  C1  UNL     1     -29.649 -12.921  74.512  1.00  0.00     0.005 C 
ENDBRANCH  18  19
ENDBRANCH  15  18
ENDBRANCH   1  14
BRANCH  12  21
HETATM   21  C11 UNL     1     -28.895 -12.019  65.511  1.00  0.00     0.279 C 
BRANCH  21  22
HETATM   22  C12 UNL     1     -29.459 -10.661  65.755  1.00  0.00     0.140 C 
HETATM   23  C13 UNL     1     -30.875 -10.570  65.166  1.00  0.00     0.041 C 
BRANCH  22  24
HETATM   24  O2  UNL     1     -28.752  -9.618  65.187  1.00  0.00    -0.394 OA
ATOM     25  H2  UNL     1     -29.225  -9.113  64.537  1.00  0.00     0.210 HD
ENDBRANCH  22  24
ENDBRANCH  21  22
ENDBRANCH  12  21
TORSDOF 6
ENDMDL
MODEL 4
REMARK VINA RESULT: -7.829256304      7.587     11.175
REMARK  6 active torsions:
REMARK  status: ('A' for Active; 'I' for Inactive)
REMARK    1  A    between atoms: C2_2  and  C3_3 
REMARK    2  A    between atoms: C3_3  and  C4_4 
REMARK       I    between atoms: C4_4  and  N1_6 
REMARK    3  A    between atoms: N1_6  and  C5_8 
REMARK    4  A    between atoms: N4_19  and  C11_20 
REMARK    5  A    between atoms: C11_20  and  C12_21 
REMARK    6  A    between atoms: C12_21  and  O2_23 
ROOT
HETATM    1  C5  UNL     1     -33.685  -9.429  74.424  1.00  0.00     0.113 C 
HETATM    2  C6  UNL     1     -34.177  -8.399  73.426  1.00  0.00     0.061 C 
HETATM    3  C7  UNL     1     -35.663  -8.381  73.573  1.00  0.00     0.203 C 
HETATM    4  C8  UNL     1     -36.108  -6.952  73.460  1.00  0.00     0.054 C 
HETATM    5  C9  UNL     1     -35.586  -6.094  74.586  1.00  0.00     0.125 C 
HETATM    6  N2  UNL     1     -35.526  -6.788  75.831  1.00  0.00    -0.356 N 
ATOM      7  H2  UNL     1     -35.398  -6.245  76.686  1.00  0.00     0.162 HD
HETATM    8  C10 UNL     1     -35.637  -8.208  75.933  1.00  0.00     0.274 C 
HETATM    9  N3  UNL     1     -35.415  -8.683  77.113  1.00  0.00    -0.365 N 
ATOM     10  H31 UNL     1     -35.495  -9.697  77.186  1.00  0.00     0.159 HD
ATOM     11  H32 UNL     1     -35.180  -8.094  77.912  1.00  0.00     0.159 HD
HETATM   12  N4  UNL     1     -35.958  -9.013  74.840  1.00  0.00     0.001 N 
HETATM   13  C14 UNL     1     -34.962 -10.113  74.804  1.00  0.00     0.273 C 
ENDROOT
BRANCH   1  14
HETATM   14  N1  UNL     1     -32.738 -10.270  73.731  1.00  0.00    -0.355 N 
HETATM   15  C4  UNL     1     -31.734 -10.929  74.461  1.00  0.00     0.217 C 
HETATM   16  O1  UNL     1     -31.657 -10.788  75.728  1.00  0.00    -0.274 OA
ATOM     17  H1  UNL     1     -32.797 -10.384  72.719  1.00  0.00     0.162 HD
BRANCH  15  18
HETATM   18  C3  UNL     1     -30.762 -11.791  73.739  1.00  0.00     0.102 C 
BRANCH  18  19
HETATM   19  C2  UNL     1     -29.928 -12.535  74.755  1.00  0.00     0.005 C 
HETATM   20  C1  UNL     1     -29.109 -13.578  74.041  1.00  0.00     0.005 C 
ENDBRANCH  18  19
ENDBRANCH  15  18
ENDBRANCH   1  14
BRANCH  12  21
HETATM   21  C11 UNL     1     -37.233  -9.653  74.862  1.00  0.00     0.279 C 
BRANCH  21  22
HETATM   22  C12 UNL     1     -37.269 -11.059  75.356  1.00  0.00     0.140 C 
HETATM   23  C13 UNL     1     -37.085 -12.031  74.179  1.00  0.00     0.041 C 
BRANCH  22  24
HETATM   24  O2  UNL     1     -38.446 -11.439  75.972  1.00  0.00    -0.394 OA
ATOM     25  H2  UNL     1     -38.944 -10.733  76.366  1.00  0.00     0.210 HD
ENDBRANCH  22  24
ENDBRANCH  21  22
ENDBRANCH  12  21
TORSDOF 6
ENDMDL
MODEL 5
REMARK VINA RESULT: -7.808219812      9.508     11.213
REMARK  6 active torsions:
REMARK  status: ('A' for Active; 'I' for Inactive)
REMARK    1  A    between atoms: C2_2  and  C3_3 
REMARK    2  A    between atoms: C3_3  and  C4_4 
REMARK       I    between atoms: C4_4  and  N1_6 
REMARK    3  A    between atoms: N1_6  and  C5_8 
REMARK    4  A    between atoms: N4_19  and  C11_20 
REMARK    5  A    between atoms: C11_20  and  C12_21 
REMARK    6  A    between atoms: C12_21  and  O2_23 
ROOT
HETATM    1  C5  UNL     1     -34.455  -9.057  75.275  1.00  0.00     0.113 C 
HETATM    2  C6  UNL     1     -35.242  -8.108  76.157  1.00  0.00     0.061 C 
HETATM    3  C7  UNL     1     -35.782  -7.063  75.235  1.00  0.00     0.203 C 
HETATM    4  C8  UNL     1     -37.176  -6.740  75.689  1.00  0.00     0.054 C 
HETATM    5  C9  UNL     1     -38.113  -7.914  75.553  1.00  0.00     0.125 C 
HETATM    6  N2  UNL     1     -37.842  -8.712  74.401  1.00  0.00    -0.356 N 
ATOM      7  H2  UNL     1     -38.542  -9.390  74.101  1.00  0.00     0.162 HD
HETATM    8  C10 UNL     1     -36.631  -8.601  73.650  1.00  0.00     0.274 C 
HETATM    9  N3  UNL     1     -36.485  -9.495  72.730  1.00  0.00    -0.365 N 
ATOM     10  H31 UNL     1     -35.620  -9.416  72.194  1.00  0.00     0.159 HD
ATOM     11  H32 UNL     1     -37.176 -10.223  72.549  1.00  0.00     0.159 HD
HETATM   12  N4  UNL     1     -35.686  -7.606  73.898  1.00  0.00     0.001 N 
HETATM   13  C14 UNL     1     -34.366  -8.277  73.999  1.00  0.00     0.273 C 
ENDROOT
BRANCH   1  14
HETATM   14  N1  UNL     1     -33.188  -9.288  75.927  1.00  0.00    -0.355 N 
HETATM   15  C4  UNL     1     -32.285 -10.213  75.377  1.00  0.00     0.217 C 
HETATM   16  O1  UNL     1     -32.579 -10.847  74.308  1.00  0.00    -0.274 OA
ATOM     17  H1  UNL     1     -32.951  -8.783  76.780  1.00  0.00     0.162 HD
BRANCH  15  18
HETATM   18  C3  UNL     1     -30.984 -10.446  76.056  1.00  0.00     0.102 C 
BRANCH  18  19
HETATM   19  C2  UNL     1     -30.810  -9.406  77.137  1.00  0.00     0.005 C 
HETATM   20  C1  UNL     1     -30.025 -10.012  78.271  1.00  0.00     0.005 C 
ENDBRANCH  18  19
ENDBRANCH  15  18
ENDBRANCH   1  14
BRANCH  12  21
HETATM   21  C11 UNL     1     -35.528  -6.602  72.897  1.00  0.00     0.279 C 
BRANCH  21  22
HETATM   22  C12 UNL     1     -35.084  -5.256  73.361  1.00  0.00     0.140 C 
HETATM   23  C13 UNL     1     -36.185  -4.220  73.086  1.00  0.00     0.041 C 
BRANCH  22  24
HETATM   24  O2  UNL     1     -33.948  -4.765  72.747  1.00  0.00    -0.394 OA
ATOM     25  H2  UNL     1     -33.384  -5.420  72.354  1.00  0.00     0.210 HD
ENDBRANCH  22  24
ENDBRANCH  21  22
ENDBRANCH  12  21
TORSDOF 6
ENDMDL
