MODEL 1
REMARK VINA RESULT: -8.017399244      0.000      0.000
REMARK  7 active torsions:
REMARK  status: ('A' for Active; 'I' for Inactive)
REMARK    1  A    between atoms: N1_1  and  C1_4 
REMARK    2  A    between atoms: C2_9  and  C3_10 
REMARK    3  A    between atoms: C6_13  and  C7_14 
REMARK    4  A    between atoms: C7_14  and  N4_15 
REMARK    5  A    between atoms: C9_19  and  C10_20 
REMARK    6  A    between atoms: C10_20  and  S1_21 
REMARK    7  A    between atoms: S1_21  and  C11_22 
ROOT
HETATM    1  C3  UNL     1      11.219  22.024  -9.379  1.00  0.00     0.017 A 
HETATM    2  C4  UNL     1      11.790  21.404  -8.288  1.00  0.00     0.016 A 
HETATM    3  C5  UNL     1      12.891  20.574  -8.486  1.00  0.00     0.010 A 
HETATM    4  C6  UNL     1      13.427  20.353  -9.727  1.00  0.00    -0.040 A 
HETATM    5  C16 UNL     1      12.839  20.985 -10.803  1.00  0.00     0.010 A 
HETATM    6  C17 UNL     1      11.747  21.815 -10.647  1.00  0.00     0.016 A 
ENDROOT
BRANCH   4   7
HETATM    7  C7  UNL     1      14.580  19.492  -9.982  1.00  0.00     0.167 C 
BRANCH   7   8
HETATM    8  N4  UNL     1      14.597  18.281  -9.232  1.00  0.00    -0.347 N 
HETATM    9  C8  UNL     1      15.681  17.590  -8.880  1.00  0.00     0.183 A 
HETATM   10  N5  UNL     1      15.325  16.506  -8.180  1.00  0.00    -0.354 N 
HETATM   11  C9  UNL     1      13.985  16.517  -8.089  1.00  0.00     0.035 A 
ATOM     12  H5  UNL     1      15.953  15.803  -7.789  1.00  0.00     0.166 HD
HETATM   13  C15 UNL     1      13.530  17.636  -8.753  1.00  0.00     0.117 A 
BRANCH  11  14
HETATM   14  C10 UNL     1      13.094  15.515  -7.400  1.00  0.00     0.132 C 
BRANCH  14  15
HETATM   15  S1  UNL     1      13.269  15.654  -5.601  1.00  0.00    -0.158 SA
BRANCH  15  16
HETATM   16  C11 UNL     1      12.144  16.917  -4.950  1.00  0.00     0.047 C 
HETATM   17  C12 UNL     1      11.087  17.361  -5.966  1.00  0.00     0.015 C 
HETATM   18  C13 UNL     1      11.399  18.797  -5.527  1.00  0.00     0.002 C 
HETATM   19  C14 UNL     1      12.761  18.290  -5.092  1.00  0.00     0.015 C 
ENDBRANCH  15  16
ENDBRANCH  14  15
ENDBRANCH  11  14
ENDBRANCH   7   8
ENDBRANCH   4   7
BRANCH   1  20
HETATM   20  C2  UNL     1      10.068  22.899  -9.211  1.00  0.00     0.176 A 
HETATM   21  N3  UNL     1      10.022  24.210  -9.514  1.00  0.00    -0.276 N 
HETATM   22  N2  UNL     1       8.831  24.687  -9.236  1.00  0.00    -0.263 N 
ATOM     23  H3  UNL     1      10.795  24.751  -9.901  1.00  0.00     0.189 HD
HETATM   24  C1  UNL     1       8.108  23.647  -8.745  1.00  0.00     0.238 A 
ATOM     25  H2  UNL     1       8.512  25.647  -9.362  1.00  0.00     0.190 HD
HETATM   26  O1  UNL     1       8.894  22.605  -8.752  1.00  0.00    -0.259 OA
BRANCH  24  27
HETATM   27  N1  UNL     1       6.887  23.664  -8.346  1.00  0.00    -0.364 N 
ATOM     28  H12 UNL     1       6.078  23.918  -8.913  1.00  0.00     0.159 HD
ATOM     29  H11 UNL     1       6.535  23.432  -7.418  1.00  0.00     0.159 HD
ENDBRANCH  24  27
ENDBRANCH   1  20
TORSDOF 7
ENDMDL
MODEL 2
REMARK VINA RESULT: -7.998446927      1.373      1.877
REMARK  7 active torsions:
REMARK  status: ('A' for Active; 'I' for Inactive)
REMARK    1  A    between atoms: N1_1  and  C1_4 
REMARK    2  A    between atoms: C2_9  and  C3_10 
REMARK    3  A    between atoms: C6_13  and  C7_14 
REMARK    4  A    between atoms: C7_14  and  N4_15 
REMARK    5  A    between atoms: C9_19  and  C10_20 
REMARK    6  A    between atoms: C10_20  and  S1_21 
REMARK    7  A    between atoms: S1_21  and  C11_22 
ROOT
HETATM    1  C3  UNL     1      11.208  22.081  -9.502  1.00  0.00     0.017 A 
HETATM    2  C4  UNL     1      11.732  21.915 -10.766  1.00  0.00     0.016 A 
HETATM    3  C5  UNL     1      12.840  21.087 -10.932  1.00  0.00     0.010 A 
HETATM    4  C6  UNL     1      13.426  20.432  -9.882  1.00  0.00    -0.040 A 
HETATM    5  C16 UNL     1      12.883  20.613  -8.626  1.00  0.00     0.010 A 
HETATM    6  C17 UNL     1      11.786  21.425  -8.422  1.00  0.00     0.016 A 
ENDROOT
BRANCH   4   7
HETATM    7  C7  UNL     1      14.588  19.555 -10.007  1.00  0.00     0.167 C 
BRANCH   7   8
HETATM    8  N4  UNL     1      14.500  18.337  -9.274  1.00  0.00    -0.347 N 
HETATM    9  C8  UNL     1      15.523  17.633  -8.790  1.00  0.00     0.183 A 
HETATM   10  N5  UNL     1      15.071  16.546  -8.154  1.00  0.00    -0.354 N 
HETATM   11  C9  UNL     1      13.731  16.568  -8.238  1.00  0.00     0.035 A 
ATOM     12  H5  UNL     1      15.638  15.835  -7.692  1.00  0.00     0.166 HD
HETATM   13  C15 UNL     1      13.375  17.697  -8.945  1.00  0.00     0.117 A 
BRANCH  11  14
HETATM   14  C10 UNL     1      12.750  15.567  -7.682  1.00  0.00     0.132 C 
BRANCH  14  15
HETATM   15  S1  UNL     1      11.172  15.676  -8.568  1.00  0.00    -0.158 SA
BRANCH  15  16
HETATM   16  C11 UNL     1       9.912  16.456  -7.525  1.00  0.00     0.047 C 
HETATM   17  C12 UNL     1       8.620  16.778  -8.283  1.00  0.00     0.015 C 
HETATM   18  C13 UNL     1       8.656  18.142  -7.583  1.00  0.00     0.002 C 
HETATM   19  C14 UNL     1      10.153  17.947  -7.439  1.00  0.00     0.015 C 
ENDBRANCH  15  16
ENDBRANCH  14  15
ENDBRANCH  11  14
ENDBRANCH   7   8
ENDBRANCH   4   7
BRANCH   1  20
HETATM   20  C2  UNL     1      10.050  22.938  -9.291  1.00  0.00     0.176 A 
HETATM   21  N3  UNL     1       9.993  24.261  -9.533  1.00  0.00    -0.276 N 
HETATM   22  N2  UNL     1       8.799  24.715  -9.231  1.00  0.00    -0.263 N 
ATOM     23  H3  UNL     1      10.761  24.826  -9.895  1.00  0.00     0.189 HD
HETATM   24  C1  UNL     1       8.085  23.648  -8.788  1.00  0.00     0.238 A 
ATOM     25  H2  UNL     1       8.472  25.678  -9.311  1.00  0.00     0.190 HD
HETATM   26  O1  UNL     1       8.879  22.614  -8.844  1.00  0.00    -0.259 OA
BRANCH  24  27
HETATM   27  N1  UNL     1       6.865  23.637  -8.387  1.00  0.00    -0.364 N 
ATOM     28  H12 UNL     1       6.553  23.471  -7.430  1.00  0.00     0.159 HD
ATOM     29  H11 UNL     1       6.027  23.791  -8.947  1.00  0.00     0.159 HD
ENDBRANCH  24  27
ENDBRANCH   1  20
TORSDOF 7
ENDMDL
MODEL 3
REMARK VINA RESULT: -7.925916024      1.843      2.350
REMARK  7 active torsions:
REMARK  status: ('A' for Active; 'I' for Inactive)
REMARK    1  A    between atoms: N1_1  and  C1_4 
REMARK    2  A    between atoms: C2_9  and  C3_10 
REMARK    3  A    between atoms: C6_13  and  C7_14 
REMARK    4  A    between atoms: C7_14  and  N4_15 
REMARK    5  A    between atoms: C9_19  and  C10_20 
REMARK    6  A    between atoms: C10_20  and  S1_21 
REMARK    7  A    between atoms: S1_21  and  C11_22 
ROOT
HETATM    1  C3  UNL     1      10.848  21.629  -8.340  1.00  0.00     0.017 A 
HETATM    2  C4  UNL     1      10.890  20.820  -7.224  1.00  0.00     0.016 A 
HETATM    3  C5  UNL     1      11.944  19.919  -7.086  1.00  0.00     0.010 A 
HETATM    4  C6  UNL     1      12.940  19.811  -8.020  1.00  0.00    -0.040 A 
HETATM    5  C16 UNL     1      12.876  20.631  -9.127  1.00  0.00     0.010 A 
HETATM    6  C17 UNL     1      11.848  21.536  -9.299  1.00  0.00     0.016 A 
ENDROOT
BRANCH   4   7
HETATM    7  C7  UNL     1      14.064  18.881  -7.917  1.00  0.00     0.167 C 
BRANCH   7   8
HETATM    8  N4  UNL     1      13.777  17.673  -7.220  1.00  0.00    -0.347 N 
HETATM    9  C8  UNL     1      14.187  17.358  -5.991  1.00  0.00     0.183 A 
HETATM   10  N5  UNL     1      13.730  16.146  -5.653  1.00  0.00    -0.354 N 
HETATM   11  C9  UNL     1      13.015  15.689  -6.694  1.00  0.00     0.035 A 
ATOM     12  H5  UNL     1      13.894  15.661  -4.771  1.00  0.00     0.166 HD
HETATM   13  C15 UNL     1      13.047  16.653  -7.679  1.00  0.00     0.117 A 
BRANCH  11  14
HETATM   14  C10 UNL     1      12.291  14.373  -6.815  1.00  0.00     0.132 C 
BRANCH  14  15
HETATM   15  S1  UNL     1      10.721  14.435  -5.910  1.00  0.00    -0.158 SA
BRANCH  15  16
HETATM   16  C11 UNL     1       9.376  14.951  -7.010  1.00  0.00     0.047 C 
HETATM   17  C12 UNL     1       9.786  14.984  -8.486  1.00  0.00     0.015 C 
HETATM   18  C13 UNL     1       9.066  16.336  -8.562  1.00  0.00     0.002 C 
HETATM   19  C14 UNL     1       9.296  16.460  -7.068  1.00  0.00     0.015 C 
ENDBRANCH  15  16
ENDBRANCH  14  15
ENDBRANCH  11  14
ENDBRANCH   7   8
ENDBRANCH   4   7
BRANCH   1  20
HETATM   20  C2  UNL     1       9.763  22.582  -8.518  1.00  0.00     0.176 A 
HETATM   21  N3  UNL     1       9.875  23.818  -9.039  1.00  0.00    -0.276 N 
HETATM   22  N2  UNL     1       8.700  24.403  -9.050  1.00  0.00    -0.263 N 
ATOM     23  H3  UNL     1      10.742  24.238  -9.375  1.00  0.00     0.189 HD
HETATM   24  C1  UNL     1       7.823  23.509  -8.523  1.00  0.00     0.238 A 
ATOM     25  H2  UNL     1       8.487  25.341  -9.387  1.00  0.00     0.190 HD
HETATM   26  O1  UNL     1       8.510  22.441  -8.221  1.00  0.00    -0.259 OA
BRANCH  24  27
HETATM   27  N1  UNL     1       6.561  23.665  -8.345  1.00  0.00    -0.364 N 
ATOM     28  H12 UNL     1       5.976  24.363  -8.805  1.00  0.00     0.159 HD
ATOM     29  H11 UNL     1       5.951  23.128  -7.730  1.00  0.00     0.159 HD
ENDBRANCH  24  27
ENDBRANCH   1  20
TORSDOF 7
ENDMDL
MODEL 4
REMARK VINA RESULT: -7.915232460      1.763      2.382
REMARK  7 active torsions:
REMARK  status: ('A' for Active; 'I' for Inactive)
REMARK    1  A    between atoms: N1_1  and  C1_4 
REMARK    2  A    between atoms: C2_9  and  C3_10 
REMARK    3  A    between atoms: C6_13  and  C7_14 
REMARK    4  A    between atoms: C7_14  and  N4_15 
REMARK    5  A    between atoms: C9_19  and  C10_20 
REMARK    6  A    between atoms: C10_20  and  S1_21 
REMARK    7  A    between atoms: S1_21  and  C11_22 
ROOT
HETATM    1  C3  UNL     1      10.939  21.675  -8.572  1.00  0.00     0.017 A 
HETATM    2  C4  UNL     1      11.856  21.611  -9.601  1.00  0.00     0.016 A 
HETATM    3  C5  UNL     1      12.931  20.731  -9.489  1.00  0.00     0.010 A 
HETATM    4  C6  UNL     1      13.108  19.927  -8.395  1.00  0.00    -0.040 A 
HETATM    5  C16 UNL     1      12.177  20.009  -7.379  1.00  0.00     0.010 A 
HETATM    6  C17 UNL     1      11.099  20.868  -7.453  1.00  0.00     0.016 A 
ENDROOT
BRANCH   4   7
HETATM    7  C7  UNL     1      14.219  18.992  -8.234  1.00  0.00     0.167 C 
BRANCH   7   8
HETATM    8  N4  UNL     1      13.895  17.795  -7.533  1.00  0.00    -0.347 N 
HETATM    9  C8  UNL     1      14.263  17.488  -6.289  1.00  0.00     0.183 A 
HETATM   10  N5  UNL     1      13.779  16.286  -5.952  1.00  0.00    -0.354 N 
HETATM   11  C9  UNL     1      13.090  15.827  -7.010  1.00  0.00     0.035 A 
ATOM     12  H5  UNL     1      13.910  15.809  -5.060  1.00  0.00     0.166 HD
HETATM   13  C15 UNL     1      13.165  16.780  -8.003  1.00  0.00     0.117 A 
BRANCH  11  14
HETATM   14  C10 UNL     1      12.352  14.519  -7.139  1.00  0.00     0.132 C 
BRANCH  14  15
HETATM   15  S1  UNL     1      10.869  14.530  -6.095  1.00  0.00    -0.158 SA
BRANCH  15  16
HETATM   16  C11 UNL     1       9.423  15.054  -7.054  1.00  0.00     0.047 C 
HETATM   17  C12 UNL     1       9.693  15.120  -8.561  1.00  0.00     0.015 C 
HETATM   18  C13 UNL     1       8.959  16.466  -8.542  1.00  0.00     0.002 C 
HETATM   19  C14 UNL     1       9.326  16.563  -7.074  1.00  0.00     0.015 C 
ENDBRANCH  15  16
ENDBRANCH  14  15
ENDBRANCH  11  14
ENDBRANCH   7   8
ENDBRANCH   4   7
BRANCH   1  20
HETATM   20  C2  UNL     1       9.804  22.581  -8.654  1.00  0.00     0.176 A 
HETATM   21  N3  UNL     1       9.842  23.858  -9.079  1.00  0.00    -0.276 N 
HETATM   22  N2  UNL     1       8.638  24.380  -9.022  1.00  0.00    -0.263 N 
ATOM     23  H3  UNL     1      10.679  24.346  -9.398  1.00  0.00     0.189 HD
HETATM   24  C1  UNL     1       7.821  23.404  -8.549  1.00  0.00     0.238 A 
ATOM     25  H2  UNL     1       8.371  25.329  -9.281  1.00  0.00     0.190 HD
HETATM   26  O1  UNL     1       8.567  22.353  -8.345  1.00  0.00    -0.259 OA
BRANCH  24  27
HETATM   27  N1  UNL     1       6.557  23.480  -8.335  1.00  0.00    -0.364 N 
ATOM     28  H12 UNL     1       6.116  23.748  -7.455  1.00  0.00     0.159 HD
ATOM     29  H11 UNL     1       5.804  23.291  -8.996  1.00  0.00     0.159 HD
ENDBRANCH  24  27
ENDBRANCH   1  20
TORSDOF 7
ENDMDL
MODEL 5
REMARK VINA RESULT: -7.839071725      4.191      7.122
REMARK  7 active torsions:
REMARK  status: ('A' for Active; 'I' for Inactive)
REMARK    1  A    between atoms: N1_1  and  C1_4 
REMARK    2  A    between atoms: C2_9  and  C3_10 
REMARK    3  A    between atoms: C6_13  and  C7_14 
REMARK    4  A    between atoms: C7_14  and  N4_15 
REMARK    5  A    between atoms: C9_19  and  C10_20 
REMARK    6  A    between atoms: C10_20  and  S1_21 
REMARK    7  A    between atoms: S1_21  and  C11_22 
ROOT
HETATM    1  C3  UNL     1      10.247  14.848  -6.771  1.00  0.00     0.017 A 
HETATM    2  C4  UNL     1      10.983  15.143  -5.643  1.00  0.00     0.016 A 
HETATM    3  C5  UNL     1      12.312  15.534  -5.790  1.00  0.00     0.010 A 
HETATM    4  C6  UNL     1      12.912  15.637  -7.017  1.00  0.00    -0.040 A 
HETATM    5  C16 UNL     1      12.154  15.338  -8.131  1.00  0.00     0.010 A 
HETATM    6  C17 UNL     1      10.835  14.946  -8.025  1.00  0.00     0.016 A 
ENDROOT
BRANCH   4   7
HETATM    7  C7  UNL     1      14.301  16.043  -7.220  1.00  0.00     0.167 C 
BRANCH   7   8
HETATM    8  N4  UNL     1      14.473  17.192  -8.043  1.00  0.00    -0.347 N 
HETATM    9  C8  UNL     1      15.482  17.412  -8.887  1.00  0.00     0.183 A 
HETATM   10  N5  UNL     1      15.320  18.593  -9.496  1.00  0.00    -0.354 N 
HETATM   11  C9  UNL     1      14.181  19.127  -9.025  1.00  0.00     0.035 A 
ATOM     12  H5  UNL     1      15.943  19.008 -10.188  1.00  0.00     0.166 HD
HETATM   13  C15 UNL     1      13.651  18.243  -8.110  1.00  0.00     0.117 A 
BRANCH  11  14
HETATM   14  C10 UNL     1      13.554  20.447  -9.395  1.00  0.00     0.132 C 
BRANCH  14  15
HETATM   15  S1  UNL     1      13.487  20.626 -11.197  1.00  0.00    -0.158 SA
BRANCH  15  16
HETATM   16  C11 UNL     1      12.142  21.743 -11.674  1.00  0.00     0.047 C 
HETATM   17  C12 UNL     1      12.621  23.167 -11.976  1.00  0.00     0.015 C 
HETATM   18  C13 UNL     1      11.426  23.648 -11.143  1.00  0.00     0.002 C 
HETATM   19  C14 UNL     1      11.466  22.304 -10.443  1.00  0.00     0.015 C 
ENDBRANCH  15  16
ENDBRANCH  14  15
ENDBRANCH  11  14
ENDBRANCH   7   8
ENDBRANCH   4   7
BRANCH   1  20
HETATM   20  C2  UNL     1       8.856  14.436  -6.655  1.00  0.00     0.176 A 
HETATM   21  N3  UNL     1       8.418  13.177  -6.469  1.00  0.00    -0.276 N 
HETATM   22  N2  UNL     1       7.107  13.168  -6.411  1.00  0.00    -0.263 N 
ATOM     23  H3  UNL     1       9.015  12.354  -6.386  1.00  0.00     0.189 HD
HETATM   24  C1  UNL     1       6.708  14.457  -6.563  1.00  0.00     0.238 A 
ATOM     25  H2  UNL     1       6.506  12.354  -6.278  1.00  0.00     0.190 HD
HETATM   26  O1  UNL     1       7.791  15.172  -6.706  1.00  0.00    -0.259 OA
BRANCH  24  27
HETATM   27  N1  UNL     1       5.505  14.907  -6.570  1.00  0.00    -0.364 N 
ATOM     28  H12 UNL     1       4.787  14.679  -7.257  1.00  0.00     0.159 HD
ATOM     29  H11 UNL     1       5.081  15.551  -5.903  1.00  0.00     0.159 HD
ENDBRANCH  24  27
ENDBRANCH   1  20
TORSDOF 7
ENDMDL
