MODEL 1
REMARK VINA RESULT: -7.666092346      0.000      0.000
REMARK  7 active torsions:
REMARK  status: ('A' for Active; 'I' for Inactive)
REMARK    1  A    between atoms: C2_2  and  C3_3 
REMARK    2  A    between atoms: C3_3  and  C4_4 
REMARK    3  A    between atoms: C4_4  and  C5_5 
REMARK    4  A    between atoms: C5_5  and  C6_6 
REMARK    5  A    between atoms: C6_6  and  N1_7 
REMARK    6  A    between atoms: N1_7  and  C7_9 
REMARK    7  A    between atoms: C19_24  and  O4_25 
ROOT
HETATM    1  C7  UNL     1      10.208  20.776  -6.461  1.00  0.00     0.245 C 
HETATM    2  O1  UNL     1       8.852  20.605  -6.827  1.00  0.00    -0.362 OA
HETATM    3  C8  UNL     1       8.743  19.775  -7.975  1.00  0.00     0.197 C 
HETATM    4  C9  UNL     1       8.695  18.361  -7.516  1.00  0.00     0.205 C 
HETATM    5  O2  UNL     1       7.955  17.506  -8.363  1.00  0.00    -0.319 OA
HETATM    6  C10 UNL     1       7.944  16.146  -8.081  1.00  0.00     0.258 C 
HETATM    7  O3  UNL     1       6.878  15.503  -8.312  1.00  0.00    -0.265 OA
HETATM    8  C11 UNL     1       9.091  15.403  -7.529  1.00  0.00     0.111 C 
HETATM    9  C12 UNL     1       9.122  15.365  -6.023  1.00  0.00     0.010 C 
HETATM   10  C13 UNL     1      10.336  14.607  -5.544  1.00  0.00     0.000 C 
HETATM   11  C14 UNL     1      11.570  15.425  -5.383  1.00  0.00     0.000 C 
HETATM   12  C15 UNL     1      11.605  16.257  -4.115  1.00  0.00     0.000 C 
HETATM   13  C16 UNL     1      11.072  17.650  -4.357  1.00  0.00     0.000 C 
HETATM   14  C17 UNL     1      11.958  18.747  -3.881  1.00  0.00     0.003 C 
HETATM   15  C18 UNL     1      11.815  20.019  -4.674  1.00  0.00     0.036 C 
HETATM   16  C19 UNL     1      10.387  20.357  -5.042  1.00  0.00     0.166 C 
ENDROOT
BRANCH   1  17
HETATM   17  N1  UNL     1      10.652  22.095  -6.805  1.00  0.00    -0.395 N 
ATOM     18  H1  UNL     1      10.085  22.925  -6.638  1.00  0.00     0.155 HD
BRANCH  17  19
HETATM   19  C6  UNL     1      11.948  22.159  -7.400  1.00  0.00     0.116 C 
BRANCH  19  20
HETATM   20  C5  UNL     1      11.956  21.130  -8.547  1.00  0.00     0.019 C 
BRANCH  20  21
HETATM   21  C4  UNL     1      13.248  20.374  -8.569  1.00  0.00     0.002 C 
BRANCH  21  22
HETATM   22  C3  UNL     1      13.102  18.974  -8.016  1.00  0.00    -0.000 C 
BRANCH  22  23
HETATM   23  C2  UNL     1      14.458  18.406  -7.625  1.00  0.00    -0.005 C 
HETATM   24  C1  UNL     1      14.404  17.535  -6.409  1.00  0.00     0.005 C 
ENDBRANCH  22  23
ENDBRANCH  21  22
ENDBRANCH  20  21
ENDBRANCH  19  20
ENDBRANCH  17  19
ENDBRANCH   1  17
BRANCH  16  25
HETATM   25  O4  UNL     1       9.801  21.149  -4.089  1.00  0.00    -0.391 OA
ATOM     26  H4  UNL     1      10.219  21.983  -3.912  1.00  0.00     0.210 HD
ENDBRANCH  16  25
TORSDOF 7
ENDMDL
MODEL 2
REMARK VINA RESULT: -7.633901974      1.597      2.777
REMARK  7 active torsions:
REMARK  status: ('A' for Active; 'I' for Inactive)
REMARK    1  A    between atoms: C2_2  and  C3_3 
REMARK    2  A    between atoms: C3_3  and  C4_4 
REMARK    3  A    between atoms: C4_4  and  C5_5 
REMARK    4  A    between atoms: C5_5  and  C6_6 
REMARK    5  A    between atoms: C6_6  and  N1_7 
REMARK    6  A    between atoms: N1_7  and  C7_9 
REMARK    7  A    between atoms: C19_24  and  O4_25 
ROOT
HETATM    1  C7  UNL     1      10.202  20.786  -6.533  1.00  0.00     0.245 C 
HETATM    2  O1  UNL     1       8.859  20.621  -6.946  1.00  0.00    -0.362 OA
HETATM    3  C8  UNL     1       8.781  19.745  -8.062  1.00  0.00     0.197 C 
HETATM    4  C9  UNL     1       8.692  18.352  -7.547  1.00  0.00     0.205 C 
HETATM    5  O2  UNL     1       7.972  17.473  -8.387  1.00  0.00    -0.319 OA
HETATM    6  C10 UNL     1       7.926  16.127  -8.049  1.00  0.00     0.258 C 
HETATM    7  O3  UNL     1       6.860  15.491  -8.296  1.00  0.00    -0.265 OA
HETATM    8  C11 UNL     1       9.039  15.390  -7.421  1.00  0.00     0.111 C 
HETATM    9  C12 UNL     1       9.009  15.415  -5.915  1.00  0.00     0.010 C 
HETATM   10  C13 UNL     1      10.190  14.660  -5.356  1.00  0.00     0.000 C 
HETATM   11  C14 UNL     1      11.431  15.465  -5.180  1.00  0.00     0.000 C 
HETATM   12  C15 UNL     1      11.430  16.349  -3.948  1.00  0.00     0.000 C 
HETATM   13  C16 UNL     1      10.930  17.739  -4.269  1.00  0.00     0.000 C 
HETATM   14  C17 UNL     1      11.815  18.841  -3.803  1.00  0.00     0.003 C 
HETATM   15  C18 UNL     1      11.725  20.081  -4.653  1.00  0.00     0.036 C 
HETATM   16  C19 UNL     1      10.318  20.425  -5.092  1.00  0.00     0.166 C 
ENDROOT
BRANCH   1  17
HETATM   17  N1  UNL     1      10.682  22.082  -6.914  1.00  0.00    -0.395 N 
ATOM     18  H1  UNL     1      10.222  22.944  -6.622  1.00  0.00     0.155 HD
BRANCH  17  19
HETATM   19  C6  UNL     1      11.851  22.077  -7.732  1.00  0.00     0.116 C 
BRANCH  19  20
HETATM   20  C5  UNL     1      11.365  22.136  -9.193  1.00  0.00     0.019 C 
BRANCH  20  21
HETATM   21  C4  UNL     1      10.568  23.379  -9.434  1.00  0.00     0.002 C 
BRANCH  21  22
HETATM   22  C3  UNL     1      11.058  24.151 -10.638  1.00  0.00    -0.000 C 
BRANCH  22  23
HETATM   23  C2  UNL     1      11.971  23.287 -11.496  1.00  0.00    -0.005 C 
HETATM   24  C1  UNL     1      11.540  23.213 -12.927  1.00  0.00     0.005 C 
ENDBRANCH  22  23
ENDBRANCH  21  22
ENDBRANCH  20  21
ENDBRANCH  19  20
ENDBRANCH  17  19
ENDBRANCH   1  17
BRANCH  16  25
HETATM   25  O4  UNL     1       9.708  21.265  -4.197  1.00  0.00    -0.391 OA
ATOM     26  H4  UNL     1       9.426  20.879  -3.375  1.00  0.00     0.210 HD
ENDBRANCH  16  25
TORSDOF 7
ENDMDL
MODEL 3
REMARK VINA RESULT: -7.377216136      3.034      5.626
REMARK  7 active torsions:
REMARK  status: ('A' for Active; 'I' for Inactive)
REMARK    1  A    between atoms: C2_2  and  C3_3 
REMARK    2  A    between atoms: C3_3  and  C4_4 
REMARK    3  A    between atoms: C4_4  and  C5_5 
REMARK    4  A    between atoms: C5_5  and  C6_6 
REMARK    5  A    between atoms: C6_6  and  N1_7 
REMARK    6  A    between atoms: N1_7  and  C7_9 
REMARK    7  A    between atoms: C19_24  and  O4_25 
ROOT
HETATM    1  C7  UNL     1      13.923  16.089  -6.967  1.00  0.00     0.245 C 
HETATM    2  O1  UNL     1      14.061  16.039  -5.560  1.00  0.00    -0.362 OA
HETATM    3  C8  UNL     1      14.101  17.350  -5.014  1.00  0.00     0.197 C 
HETATM    4  C9  UNL     1      12.701  17.786  -4.763  1.00  0.00     0.205 C 
HETATM    5  O2  UNL     1      12.563  18.684  -3.680  1.00  0.00    -0.319 OA
HETATM    6  C10 UNL     1      11.312  19.234  -3.436  1.00  0.00     0.258 C 
HETATM    7  O3  UNL     1      10.982  19.441  -2.231  1.00  0.00    -0.265 OA
HETATM    8  C11 UNL     1      10.343  19.594  -4.488  1.00  0.00     0.111 C 
HETATM    9  C12 UNL     1       9.400  18.477  -4.851  1.00  0.00     0.010 C 
HETATM   10  C13 UNL     1       8.460  18.921  -5.946  1.00  0.00     0.000 C 
HETATM   11  C14 UNL     1       8.966  18.723  -7.332  1.00  0.00     0.000 C 
HETATM   12  C15 UNL     1       8.857  17.296  -7.836  1.00  0.00     0.000 C 
HETATM   13  C16 UNL     1      10.132  16.525  -7.581  1.00  0.00     0.000 C 
HETATM   14  C17 UNL     1      10.680  15.819  -8.770  1.00  0.00     0.003 C 
HETATM   15  C18 UNL     1      12.178  15.658  -8.733  1.00  0.00     0.036 C 
HETATM   16  C19 UNL     1      12.724  15.300  -7.368  1.00  0.00     0.166 C 
ENDROOT
BRANCH   1  17
HETATM   17  N1  UNL     1      15.163  15.744  -7.600  1.00  0.00    -0.395 N 
ATOM     18  H1  UNL     1      15.705  14.924  -7.330  1.00  0.00     0.155 HD
BRANCH  17  19
HETATM   19  C6  UNL     1      15.581  16.633  -8.634  1.00  0.00     0.116 C 
BRANCH  19  20
HETATM   20  C5  UNL     1      15.119  18.043  -8.214  1.00  0.00     0.019 C 
BRANCH  20  21
HETATM   21  C4  UNL     1      14.777  18.866  -9.417  1.00  0.00     0.002 C 
BRANCH  21  22
HETATM   22  C3  UNL     1      13.293  19.135  -9.523  1.00  0.00    -0.000 C 
BRANCH  22  23
HETATM   23  C2  UNL     1      12.676  19.306  -8.143  1.00  0.00    -0.005 C 
HETATM   24  C1  UNL     1      12.152  20.685  -7.897  1.00  0.00     0.005 C 
ENDBRANCH  22  23
ENDBRANCH  21  22
ENDBRANCH  20  21
ENDBRANCH  19  20
ENDBRANCH  17  19
ENDBRANCH   1  17
BRANCH  16  25
HETATM   25  O4  UNL     1      12.798  13.941  -7.202  1.00  0.00    -0.391 OA
ATOM     26  H4  UNL     1      12.011  13.506  -6.894  1.00  0.00     0.210 HD
ENDBRANCH  16  25
TORSDOF 7
ENDMDL
MODEL 4
REMARK VINA RESULT: -7.336714376      2.341      3.971
REMARK  7 active torsions:
REMARK  status: ('A' for Active; 'I' for Inactive)
REMARK    1  A    between atoms: C2_2  and  C3_3 
REMARK    2  A    between atoms: C3_3  and  C4_4 
REMARK    3  A    between atoms: C4_4  and  C5_5 
REMARK    4  A    between atoms: C5_5  and  C6_6 
REMARK    5  A    between atoms: C6_6  and  N1_7 
REMARK    6  A    between atoms: N1_7  and  C7_9 
REMARK    7  A    between atoms: C19_24  and  O4_25 
ROOT
HETATM    1  C7  UNL     1       9.672  20.152  -6.705  1.00  0.00     0.245 C 
HETATM    2  O1  UNL     1       9.094  19.614  -5.531  1.00  0.00    -0.362 OA
HETATM    3  C8  UNL     1       8.465  18.370  -5.807  1.00  0.00     0.197 C 
HETATM    4  C9  UNL     1       9.489  17.299  -5.677  1.00  0.00     0.205 C 
HETATM    5  O2  UNL     1       8.969  16.052  -5.262  1.00  0.00    -0.319 OA
HETATM    6  C10 UNL     1       9.826  14.961  -5.218  1.00  0.00     0.258 C 
HETATM    7  O3  UNL     1       9.652  14.109  -4.298  1.00  0.00    -0.265 OA
HETATM    8  C11 UNL     1      10.927  14.730  -6.172  1.00  0.00     0.111 C 
HETATM    9  C12 UNL     1      12.237  15.341  -5.746  1.00  0.00     0.010 C 
HETATM   10  C13 UNL     1      13.299  15.078  -6.785  1.00  0.00     0.000 C 
HETATM   11  C14 UNL     1      13.375  16.084  -7.881  1.00  0.00     0.000 C 
HETATM   12  C15 UNL     1      14.087  17.367  -7.498  1.00  0.00     0.000 C 
HETATM   13  C16 UNL     1      13.110  18.413  -7.010  1.00  0.00     0.000 C 
HETATM   14  C17 UNL     1      13.242  19.742  -7.668  1.00  0.00     0.003 C 
HETATM   15  C18 UNL     1      11.949  20.512  -7.723  1.00  0.00     0.036 C 
HETATM   16  C19 UNL     1      11.119  20.412  -6.462  1.00  0.00     0.166 C 
ENDROOT
BRANCH   1  17
HETATM   17  N1  UNL     1       8.890  21.255  -7.182  1.00  0.00    -0.395 N 
ATOM     18  H1  UNL     1       8.406  21.896  -6.553  1.00  0.00     0.155 HD
BRANCH  17  19
HETATM   19  C6  UNL     1       8.838  21.389  -8.602  1.00  0.00     0.116 C 
BRANCH  19  20
HETATM   20  C5  UNL     1       8.512  22.867  -8.892  1.00  0.00     0.019 C 
BRANCH  20  21
HETATM   21  C4  UNL     1       9.420  23.769  -8.116  1.00  0.00     0.002 C 
BRANCH  21  22
HETATM   22  C3  UNL     1      10.795  23.870  -8.736  1.00  0.00    -0.000 C 
BRANCH  22  23
HETATM   23  C2  UNL     1      10.707  24.403 -10.158  1.00  0.00    -0.005 C 
HETATM   24  C1  UNL     1      11.460  23.570 -11.147  1.00  0.00     0.005 C 
ENDBRANCH  22  23
ENDBRANCH  21  22
ENDBRANCH  20  21
ENDBRANCH  19  20
ENDBRANCH  17  19
ENDBRANCH   1  17
BRANCH  16  25
HETATM   25  O4  UNL     1      11.423  21.421  -5.584  1.00  0.00    -0.391 OA
ATOM     26  H4  UNL     1      12.124  22.010  -5.839  1.00  0.00     0.210 HD
ENDBRANCH  16  25
TORSDOF 7
ENDMDL
MODEL 5
REMARK VINA RESULT: -7.335513273      1.490      2.981
REMARK  7 active torsions:
REMARK  status: ('A' for Active; 'I' for Inactive)
REMARK    1  A    between atoms: C2_2  and  C3_3 
REMARK    2  A    between atoms: C3_3  and  C4_4 
REMARK    3  A    between atoms: C4_4  and  C5_5 
REMARK    4  A    between atoms: C5_5  and  C6_6 
REMARK    5  A    between atoms: C6_6  and  N1_7 
REMARK    6  A    between atoms: N1_7  and  C7_9 
REMARK    7  A    between atoms: C19_24  and  O4_25 
ROOT
HETATM    1  C7  UNL     1      10.315  20.667  -6.360  1.00  0.00     0.245 C 
HETATM    2  O1  UNL     1       8.956  20.549  -6.734  1.00  0.00    -0.362 OA
HETATM    3  C8  UNL     1       8.824  19.747  -7.899  1.00  0.00     0.197 C 
HETATM    4  C9  UNL     1       8.727  18.326  -7.470  1.00  0.00     0.205 C 
HETATM    5  O2  UNL     1       7.963  17.513  -8.337  1.00  0.00    -0.319 OA
HETATM    6  C10 UNL     1       7.905  16.150  -8.082  1.00  0.00     0.258 C 
HETATM    7  O3  UNL     1       6.819  15.548  -8.331  1.00  0.00    -0.265 OA
HETATM    8  C11 UNL     1       9.024  15.357  -7.542  1.00  0.00     0.111 C 
HETATM    9  C12 UNL     1       9.047  15.288  -6.036  1.00  0.00     0.010 C 
HETATM   10  C13 UNL     1      10.233  14.480  -5.568  1.00  0.00     0.000 C 
HETATM   11  C14 UNL     1      11.493  15.253  -5.387  1.00  0.00     0.000 C 
HETATM   12  C15 UNL     1      11.550  16.057  -4.102  1.00  0.00     0.000 C 
HETATM   13  C16 UNL     1      11.065  17.472  -4.317  1.00  0.00     0.000 C 
HETATM   14  C17 UNL     1      11.985  18.529  -3.815  1.00  0.00     0.003 C 
HETATM   15  C18 UNL     1      11.889  19.821  -4.583  1.00  0.00     0.036 C 
HETATM   16  C19 UNL     1      10.474  20.214  -4.949  1.00  0.00     0.166 C 
ENDROOT
BRANCH   1  17
HETATM   17  N1  UNL     1      10.805  21.977  -6.675  1.00  0.00    -0.395 N 
ATOM     18  H1  UNL     1      10.436  22.820  -6.236  1.00  0.00     0.155 HD
BRANCH  17  19
HETATM   19  C6  UNL     1      11.847  22.013  -7.650  1.00  0.00     0.116 C 
BRANCH  19  20
HETATM   20  C5  UNL     1      11.176  22.341  -8.998  1.00  0.00     0.019 C 
BRANCH  20  21
HETATM   21  C4  UNL     1      11.086  23.822  -9.197  1.00  0.00     0.002 C 
BRANCH  21  22
HETATM   22  C3  UNL     1       9.685  24.270  -9.546  1.00  0.00    -0.000 C 
BRANCH  22  23
HETATM   23  C2  UNL     1       8.773  24.184  -8.331  1.00  0.00    -0.005 C 
HETATM   24  C1  UNL     1       7.560  23.339  -8.562  1.00  0.00     0.005 C 
ENDBRANCH  22  23
ENDBRANCH  21  22
ENDBRANCH  20  21
ENDBRANCH  19  20
ENDBRANCH  17  19
ENDBRANCH   1  17
BRANCH  16  25
HETATM   25  O4  UNL     1       9.910  21.005  -3.982  1.00  0.00    -0.391 OA
ATOM     26  H4  UNL     1      10.062  20.748  -3.080  1.00  0.00     0.210 HD
ENDBRANCH  16  25
TORSDOF 7
ENDMDL
