MODEL 1
REMARK VINA RESULT: -7.121287716      0.000      0.000
REMARK  6 active torsions:
REMARK  status: ('A' for Active; 'I' for Inactive)
REMARK       I    between atoms: N1_2  and  C2_4 
REMARK    1  A    between atoms: C2_4  and  C3_6 
REMARK    2  A    between atoms: C4_9  and  C5_10 
REMARK    3  A    between atoms: N3_13  and  C8_14 
REMARK    4  A    between atoms: C11_17  and  S1_18 
REMARK    5  A    between atoms: S1_18  and  C12_19 
REMARK    6  A    between atoms: C12_19  and  C13_20 
ROOT
HETATM    1  C13 UNL     1      11.719  15.367  -7.247  1.00  0.00     0.026 A 
HETATM    2  C14 UNL     1      13.055  15.572  -7.332  1.00  0.00     0.122 A 
HETATM    3  N4  UNL     1      13.369  16.061  -8.580  1.00  0.00    -0.310 N 
ATOM      4  H4  UNL     1      14.299  16.303  -8.920  1.00  0.00     0.186 HD
HETATM    5  N5  UNL     1      12.242  16.155  -9.251  1.00  0.00    -0.290 N 
ATOM      6  H5  UNL     1      12.168  16.491 -10.212  1.00  0.00     0.188 HD
HETATM    7  C15 UNL     1      11.203  15.752  -8.505  1.00  0.00     0.140 A 
HETATM    8  C16 UNL     1       9.817  15.698  -8.873  1.00  0.00     0.120 C 
HETATM    9  N6  UNL     1       8.689  15.659  -9.196  1.00  0.00    -0.190 NA
ENDROOT
BRANCH   1  10
HETATM   10  C12 UNL     1      10.860  14.923  -6.189  1.00  0.00     0.067 C 
BRANCH  10  11
HETATM   11  S1  UNL     1      10.155  16.018  -4.992  1.00  0.00    -0.081 SA
BRANCH  11  12
HETATM   12  C11 UNL     1       9.488  17.483  -5.744  1.00  0.00     0.110 A 
HETATM   13  C3  UNL     1       8.218  17.737  -6.176  1.00  0.00     0.136 A 
HETATM   14  N2  UNL     1       8.246  18.947  -6.796  1.00  0.00    -0.339 N 
HETATM   15  C4  UNL     1       9.484  19.452  -6.760  1.00  0.00     0.088 A 
ATOM     16  H2  UNL     1       7.440  19.403  -7.225  1.00  0.00     0.167 HD
HETATM   17  N3  UNL     1      10.253  18.571  -6.117  1.00  0.00    -0.324 N 
BRANCH  13  18
HETATM   18  C2  UNL     1       7.027  16.931  -5.959  1.00  0.00     0.270 C 
HETATM   19  N1  UNL     1       6.515  16.119  -6.987  1.00  0.00    -0.360 N 
HETATM   20  C1  UNL     1       5.328  15.293  -6.835  1.00  0.00     0.149 C 
ATOM     21  H1  UNL     1       7.000  16.109  -7.884  1.00  0.00     0.162 HD
HETATM   22  O1  UNL     1       6.466  16.971  -4.851  1.00  0.00    -0.266 OA
ENDBRANCH  13  18
BRANCH  15  23
HETATM   23  C5  UNL     1       9.872  20.723  -7.334  1.00  0.00     0.045 C 
HETATM   24  C6  UNL     1       8.983  21.109  -8.543  1.00  0.00     0.017 C 
HETATM   25  C7  UNL     1       9.557  21.805  -6.296  1.00  0.00     0.017 C 
ENDBRANCH  15  23
BRANCH  17  26
HETATM   26  C8  UNL     1      11.623  18.687  -5.820  1.00  0.00     0.084 C 
HETATM   27  C9  UNL     1      11.862  19.580  -4.576  1.00  0.00     0.032 C 
HETATM   28  C10 UNL     1      12.535  19.186  -6.874  1.00  0.00     0.032 C 
ENDBRANCH  17  26
ENDBRANCH  11  12
ENDBRANCH  10  11
ENDBRANCH   1  10
TORSDOF 6
ENDMDL
MODEL 2
REMARK VINA RESULT: -7.018336473      2.172      5.196
REMARK  6 active torsions:
REMARK  status: ('A' for Active; 'I' for Inactive)
REMARK       I    between atoms: N1_2  and  C2_4 
REMARK    1  A    between atoms: C2_4  and  C3_6 
REMARK    2  A    between atoms: C4_9  and  C5_10 
REMARK    3  A    between atoms: N3_13  and  C8_14 
REMARK    4  A    between atoms: C11_17  and  S1_18 
REMARK    5  A    between atoms: S1_18  and  C12_19 
REMARK    6  A    between atoms: C12_19  and  C13_20 
ROOT
HETATM    1  C13 UNL     1       6.403  15.333  -7.481  1.00  0.00     0.026 A 
HETATM    2  C14 UNL     1       5.300  14.933  -8.155  1.00  0.00     0.122 A 
HETATM    3  N4  UNL     1       4.189  15.558  -7.636  1.00  0.00    -0.310 N 
ATOM      4  H4  UNL     1       3.225  15.444  -7.950  1.00  0.00     0.186 HD
HETATM    5  N5  UNL     1       4.605  16.331  -6.657  1.00  0.00    -0.290 N 
ATOM      6  H5  UNL     1       3.997  16.919  -6.087  1.00  0.00     0.188 HD
HETATM    7  C15 UNL     1       5.935  16.244  -6.508  1.00  0.00     0.140 A 
HETATM    8  C16 UNL     1       6.765  16.922  -5.554  1.00  0.00     0.120 C 
HETATM    9  N6  UNL     1       7.425  17.485  -4.762  1.00  0.00    -0.190 NA
ENDROOT
BRANCH   1  10
HETATM   10  C12 UNL     1       7.800  15.043  -7.624  1.00  0.00     0.067 C 
BRANCH  10  11
HETATM   11  S1  UNL     1       8.926  16.109  -8.474  1.00  0.00    -0.081 SA
BRANCH  11  12
HETATM   12  C11 UNL     1       9.908  17.070  -7.348  1.00  0.00     0.110 A 
HETATM   13  C3  UNL     1       9.982  18.424  -7.196  1.00  0.00     0.136 A 
HETATM   14  N2  UNL     1      10.974  18.669  -6.298  1.00  0.00    -0.339 N 
HETATM   15  C4  UNL     1      11.514  17.516  -5.886  1.00  0.00     0.088 A 
ATOM     16  H2  UNL     1      11.264  19.596  -5.985  1.00  0.00     0.167 HD
HETATM   17  N3  UNL     1      10.870  16.530  -6.516  1.00  0.00    -0.324 N 
BRANCH  13  18
HETATM   18  C2  UNL     1       9.126  19.435  -7.799  1.00  0.00     0.270 C 
HETATM   19  N1  UNL     1       9.643  20.695  -8.148  1.00  0.00    -0.360 N 
HETATM   20  C1  UNL     1       8.841  21.747  -8.751  1.00  0.00     0.149 C 
ATOM     21  H1  UNL     1      10.631  20.880  -7.971  1.00  0.00     0.162 HD
HETATM   22  O1  UNL     1       7.929  19.168  -7.999  1.00  0.00    -0.266 OA
ENDBRANCH  13  18
BRANCH  15  23
HETATM   23  C5  UNL     1      12.599  17.409  -4.935  1.00  0.00     0.045 C 
HETATM   24  C6  UNL     1      13.980  17.621  -5.605  1.00  0.00     0.017 C 
HETATM   25  C7  UNL     1      12.480  18.595  -3.973  1.00  0.00     0.017 C 
ENDBRANCH  15  23
BRANCH  17  26
HETATM   26  C8  UNL     1      11.080  15.147  -6.377  1.00  0.00     0.084 C 
HETATM   27  C9  UNL     1      10.498  14.612  -5.044  1.00  0.00     0.032 C 
HETATM   28  C10 UNL     1      12.465  14.629  -6.465  1.00  0.00     0.032 C 
ENDBRANCH  17  26
ENDBRANCH  11  12
ENDBRANCH  10  11
ENDBRANCH   1  10
TORSDOF 6
ENDMDL
MODEL 3
REMARK VINA RESULT: -6.988663714      2.209      4.739
REMARK  6 active torsions:
REMARK  status: ('A' for Active; 'I' for Inactive)
REMARK       I    between atoms: N1_2  and  C2_4 
REMARK    1  A    between atoms: C2_4  and  C3_6 
REMARK    2  A    between atoms: C4_9  and  C5_10 
REMARK    3  A    between atoms: N3_13  and  C8_14 
REMARK    4  A    between atoms: C11_17  and  S1_18 
REMARK    5  A    between atoms: S1_18  and  C12_19 
REMARK    6  A    between atoms: C12_19  and  C13_20 
ROOT
HETATM    1  C13 UNL     1       8.476  16.565  -6.715  1.00  0.00     0.026 A 
HETATM    2  C14 UNL     1       8.440  15.266  -7.091  1.00  0.00     0.122 A 
HETATM    3  N4  UNL     1       8.344  15.182  -8.462  1.00  0.00    -0.310 N 
ATOM      4  H4  UNL     1       8.299  14.328  -9.016  1.00  0.00     0.186 HD
HETATM    5  N5  UNL     1       8.320  16.414  -8.921  1.00  0.00    -0.290 N 
ATOM      6  H5  UNL     1       8.253  16.661  -9.908  1.00  0.00     0.188 HD
HETATM    7  C15 UNL     1       8.397  17.303  -7.919  1.00  0.00     0.140 A 
HETATM    8  C16 UNL     1       8.395  18.735  -8.004  1.00  0.00     0.120 C 
HETATM    9  N6  UNL     1       8.389  19.905  -8.096  1.00  0.00    -0.190 NA
ENDROOT
BRANCH   1  10
HETATM   10  C12 UNL     1       8.613  17.217  -5.446  1.00  0.00     0.067 C 
BRANCH  10  11
HETATM   11  S1  UNL     1      10.172  17.457  -4.647  1.00  0.00    -0.081 SA
BRANCH  11  12
HETATM   12  C11 UNL     1      11.414  18.040  -5.776  1.00  0.00     0.110 A 
HETATM   13  C3  UNL     1      11.662  19.307  -6.218  1.00  0.00     0.136 A 
HETATM   14  N2  UNL     1      12.628  19.213  -7.171  1.00  0.00    -0.339 N 
HETATM   15  C4  UNL     1      12.989  17.934  -7.332  1.00  0.00     0.088 A 
ATOM     16  H2  UNL     1      13.020  20.000  -7.687  1.00  0.00     0.167 HD
HETATM   17  N3  UNL     1      12.259  17.206  -6.484  1.00  0.00    -0.324 N 
BRANCH  13  18
HETATM   18  C2  UNL     1      11.084  20.549  -5.728  1.00  0.00     0.270 C 
HETATM   19  N1  UNL     1      10.443  21.437  -6.610  1.00  0.00    -0.360 N 
HETATM   20  C1  UNL     1       9.848  22.693  -6.185  1.00  0.00     0.149 C 
ATOM     21  H1  UNL     1      10.393  21.188  -7.598  1.00  0.00     0.162 HD
HETATM   22  O1  UNL     1      11.165  20.814  -4.517  1.00  0.00    -0.266 OA
ENDBRANCH  13  18
BRANCH  15  23
HETATM   23  C5  UNL     1      13.989  17.474  -8.271  1.00  0.00     0.045 C 
HETATM   24  C6  UNL     1      14.052  18.366  -9.536  1.00  0.00     0.017 C 
HETATM   25  C7  UNL     1      15.359  17.681  -7.617  1.00  0.00     0.017 C 
ENDBRANCH  15  23
BRANCH  17  26
HETATM   26  C8  UNL     1      12.314  15.815  -6.284  1.00  0.00     0.084 C 
HETATM   27  C9  UNL     1      13.603  15.397  -5.532  1.00  0.00     0.032 C 
HETATM   28  C10 UNL     1      12.213  14.927  -7.465  1.00  0.00     0.032 C 
ENDBRANCH  17  26
ENDBRANCH  11  12
ENDBRANCH  10  11
ENDBRANCH   1  10
TORSDOF 6
ENDMDL
MODEL 4
REMARK VINA RESULT: -6.921803057      2.213      4.684
REMARK  6 active torsions:
REMARK  status: ('A' for Active; 'I' for Inactive)
REMARK       I    between atoms: N1_2  and  C2_4 
REMARK    1  A    between atoms: C2_4  and  C3_6 
REMARK    2  A    between atoms: C4_9  and  C5_10 
REMARK    3  A    between atoms: N3_13  and  C8_14 
REMARK    4  A    between atoms: C11_17  and  S1_18 
REMARK    5  A    between atoms: S1_18  and  C12_19 
REMARK    6  A    between atoms: C12_19  and  C13_20 
ROOT
HETATM    1  C13 UNL     1       8.309  16.153  -6.861  1.00  0.00     0.026 A 
HETATM    2  C14 UNL     1       8.071  15.010  -7.544  1.00  0.00     0.122 A 
HETATM    3  N4  UNL     1       7.997  15.283  -8.892  1.00  0.00    -0.310 N 
ATOM      4  H4  UNL     1       7.827  14.611  -9.639  1.00  0.00     0.186 HD
HETATM    5  N5  UNL     1       8.187  16.577  -9.033  1.00  0.00    -0.290 N 
ATOM      6  H5  UNL     1       8.187  17.066  -9.927  1.00  0.00     0.188 HD
HETATM    7  C15 UNL     1       8.383  17.166  -7.844  1.00  0.00     0.140 A 
HETATM    8  C16 UNL     1       8.617  18.555  -7.573  1.00  0.00     0.120 C 
HETATM    9  N6  UNL     1       8.805  19.697  -7.373  1.00  0.00    -0.190 NA
ENDROOT
BRANCH   1  10
HETATM   10  C12 UNL     1       8.519  16.442  -5.472  1.00  0.00     0.067 C 
BRANCH  10  11
HETATM   11  S1  UNL     1      10.084  16.251  -4.672  1.00  0.00    -0.081 SA
BRANCH  11  12
HETATM   12  C11 UNL     1      11.332  17.287  -5.398  1.00  0.00     0.110 A 
HETATM   13  C3  UNL     1      11.685  18.568  -5.091  1.00  0.00     0.136 A 
HETATM   14  N2  UNL     1      12.599  18.961  -6.018  1.00  0.00    -0.339 N 
HETATM   15  C4  UNL     1      12.827  17.968  -6.886  1.00  0.00     0.088 A 
ATOM     16  H2  UNL     1      13.045  19.878  -6.049  1.00  0.00     0.167 HD
HETATM   17  N3  UNL     1      12.063  16.937  -6.517  1.00  0.00    -0.324 N 
BRANCH  13  18
HETATM   18  C2  UNL     1      11.250  19.362  -3.952  1.00  0.00     0.270 C 
HETATM   19  N1  UNL     1      11.137  18.781  -2.676  1.00  0.00    -0.360 N 
HETATM   20  C1  UNL     1      10.706  19.518  -1.499  1.00  0.00     0.149 C 
ATOM     21  H1  UNL     1      11.368  17.793  -2.571  1.00  0.00     0.162 HD
HETATM   22  O1  UNL     1      10.979  20.563  -4.122  1.00  0.00    -0.266 OA
ENDBRANCH  13  18
BRANCH  15  23
HETATM   23  C5  UNL     1      13.739  18.047  -8.006  1.00  0.00     0.045 C 
HETATM   24  C6  UNL     1      13.731  19.451  -8.664  1.00  0.00     0.017 C 
HETATM   25  C7  UNL     1      15.159  17.921  -7.447  1.00  0.00     0.017 C 
ENDBRANCH  15  23
BRANCH  17  26
HETATM   26  C8  UNL     1      11.990  15.669  -7.120  1.00  0.00     0.084 C 
HETATM   27  C9  UNL     1      13.251  14.821  -6.820  1.00  0.00     0.032 C 
HETATM   28  C10 UNL     1      11.774  15.593  -8.583  1.00  0.00     0.032 C 
ENDBRANCH  17  26
ENDBRANCH  11  12
ENDBRANCH  10  11
ENDBRANCH   1  10
TORSDOF 6
ENDMDL
MODEL 5
REMARK VINA RESULT: -6.848954658      2.164      4.847
REMARK  6 active torsions:
REMARK  status: ('A' for Active; 'I' for Inactive)
REMARK       I    between atoms: N1_2  and  C2_4 
REMARK    1  A    between atoms: C2_4  and  C3_6 
REMARK    2  A    between atoms: C4_9  and  C5_10 
REMARK    3  A    between atoms: N3_13  and  C8_14 
REMARK    4  A    between atoms: C11_17  and  S1_18 
REMARK    5  A    between atoms: S1_18  and  C12_19 
REMARK    6  A    between atoms: C12_19  and  C13_20 
ROOT
HETATM    1  C13 UNL     1       8.019  16.317  -7.630  1.00  0.00     0.026 A 
HETATM    2  C14 UNL     1       8.532  16.306  -8.883  1.00  0.00     0.122 A 
HETATM    3  N4  UNL     1       7.893  15.346  -9.636  1.00  0.00    -0.310 N 
ATOM      4  H4  UNL     1       8.077  15.120 -10.613  1.00  0.00     0.186 HD
HETATM    5  N5  UNL     1       7.000  14.777  -8.856  1.00  0.00    -0.290 N 
ATOM      6  H5  UNL     1       6.374  14.026  -9.147  1.00  0.00     0.188 HD
HETATM    7  C15 UNL     1       7.022  15.316  -7.627  1.00  0.00     0.140 A 
HETATM    8  C16 UNL     1       6.212  14.969  -6.495  1.00  0.00     0.120 C 
HETATM    9  N6  UNL     1       5.540  14.668  -5.580  1.00  0.00    -0.190 NA
ENDROOT
BRANCH   1  10
HETATM   10  C12 UNL     1       8.273  17.124  -6.473  1.00  0.00     0.067 C 
BRANCH  10  11
HETATM   11  S1  UNL     1       9.688  16.905  -5.435  1.00  0.00    -0.081 SA
BRANCH  11  12
HETATM   12  C11 UNL     1      11.150  17.620  -6.147  1.00  0.00     0.110 A 
HETATM   13  C3  UNL     1      11.559  18.922  -6.171  1.00  0.00     0.136 A 
HETATM   14  N2  UNL     1      12.673  18.973  -6.949  1.00  0.00    -0.339 N 
HETATM   15  C4  UNL     1      12.971  17.751  -7.405  1.00  0.00     0.088 A 
ATOM     16  H2  UNL     1      13.204  19.820  -7.156  1.00  0.00     0.167 HD
HETATM   17  N3  UNL     1      12.052  16.913  -6.920  1.00  0.00    -0.324 N 
BRANCH  13  18
HETATM   18  C2  UNL     1      10.987  20.047  -5.448  1.00  0.00     0.270 C 
HETATM   19  N1  UNL     1       9.776  20.627  -5.869  1.00  0.00    -0.360 N 
HETATM   20  C1  UNL     1       9.154  21.754  -5.193  1.00  0.00     0.149 C 
ATOM     21  H1  UNL     1       9.311  20.238  -6.689  1.00  0.00     0.162 HD
HETATM   22  O1  UNL     1      11.584  20.490  -4.453  1.00  0.00    -0.266 OA
ENDBRANCH  13  18
BRANCH  15  23
HETATM   23  C5  UNL     1      14.091  17.444  -8.268  1.00  0.00     0.045 C 
HETATM   24  C6  UNL     1      14.193  18.431  -9.459  1.00  0.00     0.017 C 
HETATM   25  C7  UNL     1      15.369  17.712  -7.468  1.00  0.00     0.017 C 
ENDBRANCH  15  23
BRANCH  17  26
HETATM   26  C8  UNL     1      11.976  15.522  -7.113  1.00  0.00     0.084 C 
HETATM   27  C9  UNL     1      13.183  14.790  -6.474  1.00  0.00     0.032 C 
HETATM   28  C10 UNL     1      11.859  15.005  -8.496  1.00  0.00     0.032 C 
ENDBRANCH  17  26
ENDBRANCH  11  12
ENDBRANCH  10  11
ENDBRANCH   1  10
TORSDOF 6
ENDMDL
