MODEL 1
REMARK VINA RESULT: -8.220245477      0.000      0.000
REMARK  7 active torsions:
REMARK  status: ('A' for Active; 'I' for Inactive)
REMARK    1  A    between atoms: C2_2  and  C4_4 
REMARK    2  A    between atoms: C7_7  and  N1_8 
REMARK    3  A    between atoms: N1_8  and  C8_11 
REMARK    4  A    between atoms: C8_11  and  C9_12 
REMARK    5  A    between atoms: C10_16  and  C11_17 
REMARK    6  A    between atoms: C11_17  and  N3_18 
REMARK    7  A    between atoms: C16_24  and  O3_25 
ROOT
HETATM    1  C9  UNL     1       9.283  21.179  -5.396  1.00  0.00     0.137 A 
HETATM    2  O1  UNL     1       8.380  21.259  -4.468  1.00  0.00    -0.237 OA
HETATM    3  N2  UNL     1       7.868  20.083  -4.212  1.00  0.00    -0.261 N 
ATOM      4  H2  UNL     1       7.141  19.902  -3.519  1.00  0.00     0.194 HD
HETATM    5  C10 UNL     1       8.435  19.150  -4.990  1.00  0.00     0.096 A 
HETATM    6  C16 UNL     1       9.352  19.858  -5.759  1.00  0.00     0.125 A 
ENDROOT
BRANCH   1   7
HETATM    7  C8  UNL     1      10.129  22.258  -6.011  1.00  0.00     0.302 C 
BRANCH   7   8
HETATM    8  N1  UNL     1       9.408  22.992  -7.004  1.00  0.00    -0.065 N 
ATOM      9  H12 UNL     1       9.334  23.983  -6.773  1.00  0.00     0.278 HD
ATOM     10  H11 UNL     1       8.413  22.768  -7.003  1.00  0.00     0.278 HD
BRANCH   8  11
HETATM   11  C7  UNL     1      10.008  22.780  -8.283  1.00  0.00     0.186 C 
HETATM   12  C6  UNL     1       9.970  23.993  -9.191  1.00  0.00     0.034 C 
HETATM   13  C5  UNL     1      10.907  23.810 -10.372  1.00  0.00     0.011 C 
HETATM   14  C4  UNL     1      11.119  22.339 -10.674  1.00  0.00     0.013 C 
HETATM   15  C18 UNL     1      11.721  21.578  -9.532  1.00  0.00     0.011 C 
HETATM   16  C17 UNL     1      11.445  22.328  -8.230  1.00  0.00     0.034 C 
BRANCH  14  17
HETATM   17  C2  UNL     1      12.025  22.226 -11.837  1.00  0.00    -0.089 C 
HETATM   18  C1  UNL     1      12.911  21.242 -11.863  1.00  0.00     0.014 C 
HETATM   19  C3  UNL     1      11.984  23.173 -12.977  1.00  0.00     0.043 C 
ENDBRANCH  14  17
ENDBRANCH   8  11
ENDBRANCH   7   8
ENDBRANCH   1   7
BRANCH   6  20
HETATM   20  O3  UNL     1      10.179  19.290  -6.718  1.00  0.00    -0.356 OA
ATOM     21  H3  UNL     1      10.041  19.266  -7.657  1.00  0.00     0.218 HD
ENDBRANCH   6  20
BRANCH   5  22
HETATM   22  C11 UNL     1       8.219  17.692  -5.077  1.00  0.00     0.334 C 
BRANCH  22  23
HETATM   23  N3  UNL     1       7.520  17.241  -6.237  1.00  0.00     0.098 N 
HETATM   24  C12 UNL     1       6.179  16.851  -5.764  1.00  0.00     0.299 C 
HETATM   25  C13 UNL     1       5.712  15.563  -6.387  1.00  0.00     0.198 C 
HETATM   26  O2  UNL     1       6.024  15.615  -7.743  1.00  0.00    -0.388 OA
HETATM   27  C14 UNL     1       7.387  15.372  -7.840  1.00  0.00     0.198 C 
HETATM   28  C15 UNL     1       8.135  15.971  -6.664  1.00  0.00     0.299 C 
ENDBRANCH  22  23
ENDBRANCH   5  22
TORSDOF 7
ENDMDL
MODEL 2
REMARK VINA RESULT: -7.840829215      1.532      1.810
REMARK  7 active torsions:
REMARK  status: ('A' for Active; 'I' for Inactive)
REMARK    1  A    between atoms: C2_2  and  C4_4 
REMARK    2  A    between atoms: C7_7  and  N1_8 
REMARK    3  A    between atoms: N1_8  and  C8_11 
REMARK    4  A    between atoms: C8_11  and  C9_12 
REMARK    5  A    between atoms: C10_16  and  C11_17 
REMARK    6  A    between atoms: C11_17  and  N3_18 
REMARK    7  A    between atoms: C16_24  and  O3_25 
ROOT
HETATM    1  C9  UNL     1       9.804  21.202  -5.174  1.00  0.00     0.137 A 
HETATM    2  O1  UNL     1      10.046  21.034  -3.910  1.00  0.00    -0.237 OA
HETATM    3  N2  UNL     1       9.675  19.842  -3.519  1.00  0.00    -0.261 N 
ATOM      4  H2  UNL     1       9.768  19.486  -2.568  1.00  0.00     0.194 HD
HETATM    5  C10 UNL     1       9.156  19.156  -4.547  1.00  0.00     0.096 A 
HETATM    6  C16 UNL     1       9.238  20.036  -5.621  1.00  0.00     0.125 A 
ENDROOT
BRANCH   1   7
HETATM    7  C8  UNL     1      10.056  22.396  -6.050  1.00  0.00     0.302 C 
BRANCH   7   8
HETATM    8  N1  UNL     1       9.066  22.517  -7.075  1.00  0.00    -0.065 N 
ATOM      9  H12 UNL     1       8.427  23.294  -6.904  1.00  0.00     0.278 HD
ATOM     10  H11 UNL     1       8.385  21.758  -7.045  1.00  0.00     0.278 HD
BRANCH   8  11
HETATM   11  C7  UNL     1       9.708  22.617  -8.348  1.00  0.00     0.186 C 
HETATM   12  C6  UNL     1       9.594  23.985  -8.990  1.00  0.00     0.034 C 
HETATM   13  C5  UNL     1      10.567  24.118 -10.149  1.00  0.00     0.011 C 
HETATM   14  C4  UNL     1      10.899  22.760 -10.737  1.00  0.00     0.013 C 
HETATM   15  C18 UNL     1      11.534  21.825  -9.752  1.00  0.00     0.011 C 
HETATM   16  C17 UNL     1      11.174  22.269  -8.336  1.00  0.00     0.034 C 
BRANCH  14  17
HETATM   17  C2  UNL     1      11.836  22.955 -11.864  1.00  0.00    -0.089 C 
HETATM   18  C1  UNL     1      13.103  22.603 -11.709  1.00  0.00     0.014 C 
HETATM   19  C3  UNL     1      11.414  23.532 -13.163  1.00  0.00     0.043 C 
ENDBRANCH  14  17
ENDBRANCH   8  11
ENDBRANCH   7   8
ENDBRANCH   1   7
BRANCH   6  20
HETATM   20  O3  UNL     1       8.811  19.747  -6.909  1.00  0.00    -0.356 OA
ATOM     21  H3  UNL     1       9.329  19.392  -7.622  1.00  0.00     0.218 HD
ENDBRANCH   6  20
BRANCH   5  22
HETATM   22  C11 UNL     1       8.615  17.785  -4.629  1.00  0.00     0.334 C 
BRANCH  22  23
HETATM   23  N3  UNL     1       9.346  16.882  -5.460  1.00  0.00     0.098 N 
HETATM   24  C12 UNL     1       8.330  16.073  -6.155  1.00  0.00     0.299 C 
HETATM   25  C13 UNL     1       8.704  14.616  -6.206  1.00  0.00     0.198 C 
HETATM   26  O2  UNL     1      10.055  14.541  -6.539  1.00  0.00    -0.388 OA
HETATM   27  C14 UNL     1      10.760  14.862  -5.389  1.00  0.00     0.198 C 
HETATM   28  C15 UNL     1      10.033  15.920  -4.579  1.00  0.00     0.299 C 
ENDBRANCH  22  23
ENDBRANCH   5  22
TORSDOF 7
ENDMDL
MODEL 3
REMARK VINA RESULT: -7.805497777      1.272      2.137
REMARK  7 active torsions:
REMARK  status: ('A' for Active; 'I' for Inactive)
REMARK    1  A    between atoms: C2_2  and  C4_4 
REMARK    2  A    between atoms: C7_7  and  N1_8 
REMARK    3  A    between atoms: N1_8  and  C8_11 
REMARK    4  A    between atoms: C8_11  and  C9_12 
REMARK    5  A    between atoms: C10_16  and  C11_17 
REMARK    6  A    between atoms: C11_17  and  N3_18 
REMARK    7  A    between atoms: C16_24  and  O3_25 
ROOT
HETATM    1  C9  UNL     1      10.015  19.569  -5.517  1.00  0.00     0.137 A 
HETATM    2  O1  UNL     1      10.918  18.827  -6.080  1.00  0.00    -0.237 OA
HETATM    3  N2  UNL     1      10.485  17.603  -6.234  1.00  0.00    -0.261 N 
ATOM      4  H2  UNL     1      11.022  16.844  -6.655  1.00  0.00     0.194 HD
HETATM    5  C10 UNL     1       9.236  17.488  -5.761  1.00  0.00     0.096 A 
HETATM    6  C16 UNL     1       8.929  18.762  -5.295  1.00  0.00     0.125 A 
ENDROOT
BRANCH   1   7
HETATM    7  C8  UNL     1      10.061  21.025  -5.145  1.00  0.00     0.302 C 
BRANCH   7   8
HETATM    8  N1  UNL     1       9.034  21.771  -5.804  1.00  0.00    -0.065 N 
ATOM      9  H12 UNL     1       8.691  22.543  -5.233  1.00  0.00     0.278 HD
ATOM     10  H11 UNL     1       8.163  21.246  -5.878  1.00  0.00     0.278 HD
BRANCH   8  11
HETATM   11  C7  UNL     1       9.508  22.211  -7.078  1.00  0.00     0.186 C 
HETATM   12  C6  UNL     1       8.595  23.207  -7.765  1.00  0.00     0.034 C 
HETATM   13  C5  UNL     1       9.309  23.879  -8.925  1.00  0.00     0.011 C 
HETATM   14  C4  UNL     1      10.415  22.994  -9.468  1.00  0.00     0.013 C 
HETATM   15  C18 UNL     1      11.467  22.669  -8.452  1.00  0.00     0.011 C 
HETATM   16  C17 UNL     1      10.880  22.834  -7.052  1.00  0.00     0.034 C 
BRANCH  14  17
HETATM   17  C2  UNL     1      11.060  23.695 -10.599  1.00  0.00    -0.089 C 
HETATM   18  C1  UNL     1      10.862  24.997 -10.740  1.00  0.00     0.014 C 
HETATM   19  C3  UNL     1      11.921  22.998 -11.584  1.00  0.00     0.043 C 
ENDBRANCH  14  17
ENDBRANCH   8  11
ENDBRANCH   7   8
ENDBRANCH   1   7
BRANCH   6  20
HETATM   20  O3  UNL     1       7.721  19.116  -4.713  1.00  0.00    -0.356 OA
ATOM     21  H3  UNL     1       6.944  18.577  -4.622  1.00  0.00     0.218 HD
ENDBRANCH   6  20
BRANCH   5  22
HETATM   22  C11 UNL     1       8.315  16.335  -5.714  1.00  0.00     0.334 C 
BRANCH  22  23
HETATM   23  N3  UNL     1       7.309  16.308  -6.727  1.00  0.00     0.098 N 
HETATM   24  C12 UNL     1       6.023  16.350  -6.010  1.00  0.00     0.299 C 
HETATM   25  C13 UNL     1       5.017  15.395  -6.595  1.00  0.00     0.198 C 
HETATM   26  O2  UNL     1       5.087  15.510  -7.982  1.00  0.00    -0.388 OA
HETATM   27  C14 UNL     1       6.227  14.824  -8.374  1.00  0.00     0.198 C 
HETATM   28  C15 UNL     1       7.334  14.970  -7.346  1.00  0.00     0.299 C 
ENDBRANCH  22  23
ENDBRANCH   5  22
TORSDOF 7
ENDMDL
MODEL 4
REMARK VINA RESULT: -7.801458366      3.275      4.100
REMARK  7 active torsions:
REMARK  status: ('A' for Active; 'I' for Inactive)
REMARK    1  A    between atoms: C2_2  and  C4_4 
REMARK    2  A    between atoms: C7_7  and  N1_8 
REMARK    3  A    between atoms: N1_8  and  C8_11 
REMARK    4  A    between atoms: C8_11  and  C9_12 
REMARK    5  A    between atoms: C10_16  and  C11_17 
REMARK    6  A    between atoms: C11_17  and  N3_18 
REMARK    7  A    between atoms: C16_24  and  O3_25 
ROOT
HETATM    1  C9  UNL     1      10.640  20.283  -4.640  1.00  0.00     0.137 A 
HETATM    2  O1  UNL     1      11.823  20.385  -4.116  1.00  0.00    -0.237 OA
HETATM    3  N2  UNL     1      12.406  19.217  -4.051  1.00  0.00    -0.261 N 
ATOM      4  H2  UNL     1      13.341  19.053  -3.677  1.00  0.00     0.194 HD
HETATM    5  C10 UNL     1      11.601  18.267  -4.547  1.00  0.00     0.096 A 
HETATM    6  C16 UNL     1      10.455  18.955  -4.929  1.00  0.00     0.125 A 
ENDROOT
BRANCH   1   7
HETATM    7  C8  UNL     1       9.613  21.346  -4.911  1.00  0.00     0.302 C 
BRANCH   7   8
HETATM    8  N1  UNL     1       8.875  21.074  -6.106  1.00  0.00    -0.065 N 
ATOM      9  H12 UNL     1       7.896  21.353  -6.027  1.00  0.00     0.278 HD
ATOM     10  H11 UNL     1       8.731  20.075  -6.251  1.00  0.00     0.278 HD
BRANCH   8  11
HETATM   11  C7  UNL     1       9.524  21.693  -7.218  1.00  0.00     0.186 C 
HETATM   12  C6  UNL     1       9.193  21.061  -8.555  1.00  0.00     0.034 C 
HETATM   13  C5  UNL     1       9.632  21.959  -9.698  1.00  0.00     0.011 C 
HETATM   14  C4  UNL     1      10.774  22.861  -9.272  1.00  0.00     0.013 C 
HETATM   15  C18 UNL     1      10.423  23.765  -8.130  1.00  0.00     0.011 C 
HETATM   16  C17 UNL     1       9.248  23.168  -7.360  1.00  0.00     0.034 C 
BRANCH  14  17
HETATM   17  C2  UNL     1      11.164  23.698 -10.426  1.00  0.00    -0.089 C 
HETATM   18  C1  UNL     1      10.718  24.945 -10.490  1.00  0.00     0.014 C 
HETATM   19  C3  UNL     1      12.033  23.200 -11.519  1.00  0.00     0.043 C 
ENDBRANCH  14  17
ENDBRANCH   8  11
ENDBRANCH   7   8
ENDBRANCH   1   7
BRANCH   6  20
HETATM   20  O3  UNL     1       9.338  18.366  -5.502  1.00  0.00    -0.356 OA
ATOM     21  H3  UNL     1       8.774  17.704  -5.119  1.00  0.00     0.218 HD
ENDBRANCH   6  20
BRANCH   5  22
HETATM   22  C11 UNL     1      11.796  16.812  -4.709  1.00  0.00     0.334 C 
BRANCH  22  23
HETATM   23  N3  UNL     1      12.287  16.394  -5.983  1.00  0.00     0.098 N 
HETATM   24  C12 UNL     1      12.197  14.923  -5.979  1.00  0.00     0.299 C 
HETATM   25  C13 UNL     1      13.420  14.280  -6.577  1.00  0.00     0.198 C 
HETATM   26  O2  UNL     1      13.747  14.991  -7.729  1.00  0.00    -0.388 OA
HETATM   27  C14 UNL     1      14.356  16.163  -7.306  1.00  0.00     0.198 C 
HETATM   28  C15 UNL     1      13.736  16.667  -6.016  1.00  0.00     0.299 C 
ENDBRANCH  22  23
ENDBRANCH   5  22
TORSDOF 7
ENDMDL
MODEL 5
REMARK VINA RESULT: -7.752409694      3.388      6.554
REMARK  7 active torsions:
REMARK  status: ('A' for Active; 'I' for Inactive)
REMARK    1  A    between atoms: C2_2  and  C4_4 
REMARK    2  A    between atoms: C7_7  and  N1_8 
REMARK    3  A    between atoms: N1_8  and  C8_11 
REMARK    4  A    between atoms: C8_11  and  C9_12 
REMARK    5  A    between atoms: C10_16  and  C11_17 
REMARK    6  A    between atoms: C11_17  and  N3_18 
REMARK    7  A    between atoms: C16_24  and  O3_25 
ROOT
HETATM    1  C9  UNL     1      10.098  20.986  -5.903  1.00  0.00     0.137 A 
HETATM    2  O1  UNL     1       9.017  20.632  -6.528  1.00  0.00    -0.237 OA
HETATM    3  N2  UNL     1       8.791  21.418  -7.548  1.00  0.00    -0.261 N 
ATOM      4  H2  UNL     1       7.999  21.332  -8.185  1.00  0.00     0.194 HD
HETATM    5  C10 UNL     1       9.748  22.353  -7.637  1.00  0.00     0.096 A 
HETATM    6  C16 UNL     1      10.597  22.075  -6.570  1.00  0.00     0.125 A 
ENDROOT
BRANCH   1   7
HETATM    7  C8  UNL     1      10.747  20.385  -4.687  1.00  0.00     0.302 C 
BRANCH   7   8
HETATM    8  N1  UNL     1      10.991  18.985  -4.857  1.00  0.00    -0.065 N 
ATOM      9  H12 UNL     1      10.155  18.482  -5.156  1.00  0.00     0.278 HD
ATOM     10  H11 UNL     1      11.138  18.509  -3.967  1.00  0.00     0.278 HD
BRANCH   8  11
HETATM   11  C7  UNL     1      12.085  18.799  -5.756  1.00  0.00     0.186 C 
HETATM   12  C6  UNL     1      13.180  17.900  -5.217  1.00  0.00     0.034 C 
HETATM   13  C5  UNL     1      14.124  17.476  -6.328  1.00  0.00     0.011 C 
HETATM   14  C4  UNL     1      14.125  18.490  -7.455  1.00  0.00     0.013 C 
HETATM   15  C18 UNL     1      12.780  18.677  -8.088  1.00  0.00     0.011 C 
HETATM   16  C17 UNL     1      11.698  18.242  -7.102  1.00  0.00     0.034 C 
BRANCH  14  17
HETATM   17  C2  UNL     1      15.069  18.030  -8.496  1.00  0.00    -0.089 C 
HETATM   18  C1  UNL     1      15.161  18.719  -9.624  1.00  0.00     0.014 C 
HETATM   19  C3  UNL     1      15.919  16.826  -8.330  1.00  0.00     0.043 C 
ENDBRANCH  14  17
ENDBRANCH   8  11
ENDBRANCH   7   8
ENDBRANCH   1   7
BRANCH   6  20
HETATM   20  O3  UNL     1      11.742  22.797  -6.268  1.00  0.00    -0.356 OA
ATOM     21  H3  UNL     1      12.228  23.375  -6.843  1.00  0.00     0.218 HD
ENDBRANCH   6  20
BRANCH   5  22
HETATM   22  C11 UNL     1       9.953  23.449  -8.604  1.00  0.00     0.334 C 
BRANCH  22  23
HETATM   23  N3  UNL     1      11.131  23.352  -9.406  1.00  0.00     0.098 N 
HETATM   24  C12 UNL     1      10.959  24.342 -10.483  1.00  0.00     0.299 C 
HETATM   25  C13 UNL     1      11.389  23.802 -11.821  1.00  0.00     0.198 C 
HETATM   26  O2  UNL     1      12.591  23.124 -11.634  1.00  0.00    -0.388 OA
HETATM   27  C14 UNL     1      12.267  21.908 -11.051  1.00  0.00     0.198 C 
HETATM   28  C15 UNL     1      11.093  22.052 -10.100  1.00  0.00     0.299 C 
ENDBRANCH  22  23
ENDBRANCH   5  22
TORSDOF 7
ENDMDL
