MODEL 1
REMARK VINA RESULT: -6.664083507      0.000      0.000
REMARK  4 active torsions:
REMARK  status: ('A' for Active; 'I' for Inactive)
REMARK    1  A    between atoms: N1_1  and  C1_4 
REMARK    2  A    between atoms: C2_7  and  N3_8 
REMARK    3  A    between atoms: N4_11  and  C3_12 
REMARK    4  A    between atoms: C3_12  and  N5_13 
ROOT
HETATM    1  C1  UNL     1      14.557   3.276  16.876  1.00  0.00     0.694 A 
HETATM    2  N2  UNL     1      15.573   2.434  16.622  1.00  0.00    -0.022 N 
ATOM      3  H2  UNL     1      15.638   1.570  17.160  1.00  0.00     0.203 HD
HETATM    4  C2  UNL     1      16.502   2.682  15.692  1.00  0.00     0.701 A 
HETATM    5  N4  UNL     1      16.449   3.812  14.960  1.00  0.00    -0.094 N 
HETATM    6  C7  UNL     1      15.436   4.651  15.214  1.00  0.00     0.360 A 
HETATM    7  O2  UNL     1      15.282   5.745  14.591  1.00  0.00    -0.245 OA
HETATM    8  N8  UNL     1      14.486   4.405  16.158  1.00  0.00    -0.140 N 
ATOM      9  H8  UNL     1      13.730   5.071  16.317  1.00  0.00     0.189 HD
ENDROOT
BRANCH   5  10
HETATM   10  C3  UNL     1      17.416   4.148  13.963  1.00  0.00     0.204 C 
BRANCH  10  11
HETATM   11  N5  UNL     1      17.637   3.218  12.929  1.00  0.00    -0.181 NA
HETATM   12  C4  UNL     1      16.603   3.066  11.970  1.00  0.00     0.223 C 
HETATM   13  C5  UNL     1      17.027   2.174  10.840  1.00  0.00     0.237 C 
HETATM   14  O1  UNL     1      16.131   1.575  10.211  1.00  0.00    -0.272 OA
HETATM   15  N6  UNL     1      18.398   2.022  10.505  1.00  0.00    -0.321 N 
HETATM   16  C6  UNL     1      19.306   2.640  11.199  1.00  0.00     0.195 C 
ATOM     17  H6  UNL     1      18.670   1.429   9.722  1.00  0.00     0.169 HD
HETATM   18  N7  UNL     1      18.844   3.450  12.277  1.00  0.00    -0.309 N 
ATOM     19  H7  UNL     1      19.423   4.233  12.583  1.00  0.00     0.182 HD
ENDBRANCH  10  11
ENDBRANCH   5  10
BRANCH   4  20
HETATM   20  N3  UNL     1      17.446   1.862  15.482  1.00  0.00    -0.233 N 
ATOM     21  H32 UNL     1      18.133   2.078  14.760  1.00  0.00     0.174 HD
ATOM     22  H31 UNL     1      17.521   1.001  16.023  1.00  0.00     0.174 HD
ENDBRANCH   4  20
BRANCH   1  23
HETATM   23  N1  UNL     1      13.684   2.994  17.784  1.00  0.00    -0.234 N 
ATOM     24  H12 UNL     1      13.493   3.629  18.559  1.00  0.00     0.174 HD
ATOM     25  H11 UNL     1      13.160   2.120  17.744  1.00  0.00     0.174 HD
ENDBRANCH   1  23
TORSDOF 4
ENDMDL
MODEL 2
REMARK VINA RESULT: -6.604349232      1.684      2.305
REMARK  4 active torsions:
REMARK  status: ('A' for Active; 'I' for Inactive)
REMARK    1  A    between atoms: N1_1  and  C1_4 
REMARK    2  A    between atoms: C2_7  and  N3_8 
REMARK    3  A    between atoms: N4_11  and  C3_12 
REMARK    4  A    between atoms: C3_12  and  N5_13 
ROOT
HETATM    1  C1  UNL     1      14.995   3.931  17.629  1.00  0.00     0.694 A 
HETATM    2  N2  UNL     1      14.647   4.699  16.583  1.00  0.00    -0.022 N 
ATOM      3  H2  UNL     1      13.831   5.305  16.672  1.00  0.00     0.203 HD
HETATM    4  C2  UNL     1      15.326   4.702  15.430  1.00  0.00     0.701 A 
HETATM    5  N4  UNL     1      16.409   3.917  15.276  1.00  0.00    -0.094 N 
HETATM    6  C7  UNL     1      16.756   3.151  16.318  1.00  0.00     0.360 A 
HETATM    7  O2  UNL     1      17.755   2.369  16.291  1.00  0.00    -0.245 OA
HETATM    8  N8  UNL     1      16.070   3.142  17.495  1.00  0.00    -0.140 N 
ATOM      9  H8  UNL     1      16.371   2.545  18.265  1.00  0.00     0.189 HD
ENDROOT
BRANCH   5  10
HETATM   10  C3  UNL     1      17.170   3.858  14.067  1.00  0.00     0.204 C 
BRANCH  10  11
HETATM   11  N5  UNL     1      16.851   2.843  13.145  1.00  0.00    -0.181 NA
HETATM   12  C4  UNL     1      17.025   3.145  11.770  1.00  0.00     0.223 C 
HETATM   13  C5  UNL     1      16.808   1.935  10.910  1.00  0.00     0.237 C 
HETATM   14  O1  UNL     1      16.454   2.124   9.728  1.00  0.00    -0.272 OA
HETATM   15  N6  UNL     1      17.000   0.627  11.428  1.00  0.00    -0.321 N 
HETATM   16  C6  UNL     1      17.343   0.466  12.670  1.00  0.00     0.195 C 
ATOM     17  H6  UNL     1      16.870  -0.186  10.825  1.00  0.00     0.169 HD
HETATM   18  N7  UNL     1      17.506   1.651  13.445  1.00  0.00    -0.309 N 
ATOM     19  H7  UNL     1      18.129   1.625  14.253  1.00  0.00     0.182 HD
ENDBRANCH  10  11
ENDBRANCH   5  10
BRANCH   4  20
HETATM   20  N3  UNL     1      14.965   5.442  14.466  1.00  0.00    -0.233 N 
ATOM     21  H32 UNL     1      14.196   6.096  14.609  1.00  0.00     0.174 HD
ATOM     22  H31 UNL     1      15.432   5.386  13.561  1.00  0.00     0.174 HD
ENDBRANCH   4  20
BRANCH   1  23
HETATM   23  N1  UNL     1      14.308   3.961  18.721  1.00  0.00    -0.234 N 
ATOM     24  H12 UNL     1      13.354   4.321  18.744  1.00  0.00     0.174 HD
ATOM     25  H11 UNL     1      14.711   3.622  19.594  1.00  0.00     0.174 HD
ENDBRANCH   1  23
TORSDOF 4
ENDMDL
MODEL 3
REMARK VINA RESULT: -6.569709710      2.385      5.588
REMARK  4 active torsions:
REMARK  status: ('A' for Active; 'I' for Inactive)
REMARK    1  A    between atoms: N1_1  and  C1_4 
REMARK    2  A    between atoms: C2_7  and  N3_8 
REMARK    3  A    between atoms: N4_11  and  C3_12 
REMARK    4  A    between atoms: C3_12  and  N5_13 
ROOT
HETATM    1  C1  UNL     1      18.089   5.605  10.040  1.00  0.00     0.694 A 
HETATM    2  N2  UNL     1      19.133   5.028  10.658  1.00  0.00    -0.022 N 
ATOM      3  H2  UNL     1      20.073   5.364  10.445  1.00  0.00     0.203 HD
HETATM    4  C2  UNL     1      18.992   4.033  11.540  1.00  0.00     0.701 A 
HETATM    5  N4  UNL     1      17.768   3.563  11.848  1.00  0.00    -0.094 N 
HETATM    6  C7  UNL     1      16.726   4.138  11.232  1.00  0.00     0.360 A 
HETATM    7  O2  UNL     1      15.527   3.780  11.438  1.00  0.00    -0.245 OA
HETATM    8  N8  UNL     1      16.862   5.153  10.333  1.00  0.00    -0.140 N 
ATOM      9  H8  UNL     1      16.041   5.563   9.889  1.00  0.00     0.189 HD
ENDROOT
BRANCH   5  10
HETATM   10  C3  UNL     1      17.546   2.491  12.767  1.00  0.00     0.204 C 
BRANCH  10  11
HETATM   11  N5  UNL     1      16.921   2.801  13.990  1.00  0.00    -0.181 NA
HETATM   12  C4  UNL     1      16.855   1.767  14.959  1.00  0.00     0.223 C 
HETATM   13  C5  UNL     1      16.317   2.271  16.265  1.00  0.00     0.237 C 
HETATM   14  O1  UNL     1      15.763   1.443  17.018  1.00  0.00    -0.272 OA
HETATM   15  N6  UNL     1      16.436   3.639  16.625  1.00  0.00    -0.321 N 
HETATM   16  C6  UNL     1      16.994   4.478  15.806  1.00  0.00     0.195 C 
ATOM     17  H6  UNL     1      16.083   3.963  17.526  1.00  0.00     0.169 HD
HETATM   18  N7  UNL     1      17.461   3.946  14.569  1.00  0.00    -0.309 N 
ATOM     19  H7  UNL     1      18.223   4.424  14.087  1.00  0.00     0.182 HD
ENDBRANCH  10  11
ENDBRANCH   5  10
BRANCH   4  20
HETATM   20  N3  UNL     1      20.004   3.514  12.101  1.00  0.00    -0.233 N 
ATOM     21  H32 UNL     1      20.772   4.120  12.387  1.00  0.00     0.174 HD
ATOM     22  H31 UNL     1      20.053   2.508  12.266  1.00  0.00     0.174 HD
ENDBRANCH   4  20
BRANCH   1  23
HETATM   23  N1  UNL     1      18.274   6.563   9.196  1.00  0.00    -0.234 N 
ATOM     24  H12 UNL     1      18.321   6.391   8.192  1.00  0.00     0.174 HD
ATOM     25  H11 UNL     1      18.379   7.524   9.519  1.00  0.00     0.174 HD
ENDBRANCH   1  23
TORSDOF 4
ENDMDL
MODEL 4
REMARK VINA RESULT: -6.455182735      1.671      2.014
REMARK  4 active torsions:
REMARK  status: ('A' for Active; 'I' for Inactive)
REMARK    1  A    between atoms: N1_1  and  C1_4 
REMARK    2  A    between atoms: C2_7  and  N3_8 
REMARK    3  A    between atoms: N4_11  and  C3_12 
REMARK    4  A    between atoms: C3_12  and  N5_13 
ROOT
HETATM    1  C1  UNL     1      15.364   3.791  17.122  1.00  0.00     0.694 A 
HETATM    2  N2  UNL     1      16.112   2.817  16.578  1.00  0.00    -0.022 N 
ATOM      3  H2  UNL     1      16.400   2.036  17.167  1.00  0.00     0.203 HD
HETATM    4  C2  UNL     1      16.495   2.829  15.296  1.00  0.00     0.701 A 
HETATM    5  N4  UNL     1      16.133   3.843  14.487  1.00  0.00    -0.094 N 
HETATM    6  C7  UNL     1      15.388   4.815  15.029  1.00  0.00     0.360 A 
HETATM    7  O2  UNL     1      14.989   5.821  14.368  1.00  0.00    -0.245 OA
HETATM    8  N8  UNL     1      14.993   4.809  16.333  1.00  0.00    -0.140 N 
ATOM      9  H8  UNL     1      14.423   5.569  16.705  1.00  0.00     0.189 HD
ENDROOT
BRANCH   5  10
HETATM   10  C3  UNL     1      16.521   3.929  13.113  1.00  0.00     0.204 C 
BRANCH  10  11
HETATM   11  N5  UNL     1      17.899   3.936  12.825  1.00  0.00    -0.181 NA
HETATM   12  C4  UNL     1      18.289   3.478  11.540  1.00  0.00     0.223 C 
HETATM   13  C5  UNL     1      19.755   3.689  11.304  1.00  0.00     0.237 C 
HETATM   14  O1  UNL     1      20.320   2.941  10.479  1.00  0.00    -0.272 OA
HETATM   15  N6  UNL     1      20.468   4.705  11.994  1.00  0.00    -0.321 N 
HETATM   16  C6  UNL     1      19.854   5.449  12.864  1.00  0.00     0.195 C 
ATOM     17  H6  UNL     1      21.460   4.850  11.807  1.00  0.00     0.169 HD
HETATM   18  N7  UNL     1      18.469   5.182  13.067  1.00  0.00    -0.309 N 
ATOM     19  H7  UNL     1      17.870   5.937  13.403  1.00  0.00     0.182 HD
ENDBRANCH  10  11
ENDBRANCH   5  10
BRANCH   4  20
HETATM   20  N3  UNL     1      17.202   1.890  14.820  1.00  0.00    -0.233 N 
ATOM     21  H32 UNL     1      16.798   0.956  14.755  1.00  0.00     0.174 HD
ATOM     22  H31 UNL     1      18.157   2.062  14.507  1.00  0.00     0.174 HD
ENDBRANCH   4  20
BRANCH   1  23
HETATM   23  N1  UNL     1      15.019   3.736  18.364  1.00  0.00    -0.234 N 
ATOM     24  H12 UNL     1      15.535   3.171  19.039  1.00  0.00     0.174 HD
ATOM     25  H11 UNL     1      14.214   4.263  18.701  1.00  0.00     0.174 HD
ENDBRANCH   1  23
TORSDOF 4
ENDMDL
MODEL 5
REMARK VINA RESULT: -6.279652901      1.791      2.402
REMARK  4 active torsions:
REMARK  status: ('A' for Active; 'I' for Inactive)
REMARK    1  A    between atoms: N1_1  and  C1_4 
REMARK    2  A    between atoms: C2_7  and  N3_8 
REMARK    3  A    between atoms: N4_11  and  C3_12 
REMARK    4  A    between atoms: C3_12  and  N5_13 
ROOT
HETATM    1  C1  UNL     1      14.607   3.285  17.049  1.00  0.00     0.694 A 
HETATM    2  N2  UNL     1      14.426   4.320  16.212  1.00  0.00    -0.022 N 
ATOM      3  H2  UNL     1      13.524   4.796  16.211  1.00  0.00     0.203 HD
HETATM    4  C2  UNL     1      15.380   4.751  15.379  1.00  0.00     0.701 A 
HETATM    5  N4  UNL     1      16.585   4.149  15.352  1.00  0.00    -0.094 N 
HETATM    6  C7  UNL     1      16.765   3.116  16.186  1.00  0.00     0.360 A 
HETATM    7  O2  UNL     1      17.853   2.470  16.249  1.00  0.00    -0.245 OA
HETATM    8  N8  UNL     1      15.798   2.672  17.037  1.00  0.00    -0.140 N 
ATOM      9  H8  UNL     1      15.979   1.883  17.658  1.00  0.00     0.189 HD
ENDROOT
BRANCH   5  10
HETATM   10  C3  UNL     1      17.643   4.547  14.477  1.00  0.00     0.204 C 
BRANCH  10  11
HETATM   11  N5  UNL     1      17.592   4.092  13.145  1.00  0.00    -0.181 NA
HETATM   12  C4  UNL     1      18.412   4.765  12.204  1.00  0.00     0.223 C 
HETATM   13  C5  UNL     1      18.388   4.083  10.868  1.00  0.00     0.237 C 
HETATM   14  O1  UNL     1      18.640   4.778   9.862  1.00  0.00    -0.272 OA
HETATM   15  N6  UNL     1      18.090   2.700  10.759  1.00  0.00    -0.321 N 
HETATM   16  C6  UNL     1      17.807   2.013  11.824  1.00  0.00     0.195 C 
ATOM     17  H6  UNL     1      18.099   2.245   9.845  1.00  0.00     0.169 HD
HETATM   18  N7  UNL     1      17.817   2.721  13.061  1.00  0.00    -0.309 N 
ATOM     19  H7  UNL     1      17.998   2.201  13.920  1.00  0.00     0.182 HD
ENDBRANCH  10  11
ENDBRANCH   5  10
BRANCH   4  20
HETATM   20  N3  UNL     1      15.171   5.733  14.604  1.00  0.00    -0.233 N 
ATOM     21  H32 UNL     1      14.477   6.431  14.871  1.00  0.00     0.174 HD
ATOM     22  H31 UNL     1      15.684   5.825  13.727  1.00  0.00     0.174 HD
ENDBRANCH   4  20
BRANCH   1  23
HETATM   23  N1  UNL     1      13.656   2.904  17.834  1.00  0.00    -0.234 N 
ATOM     24  H12 UNL     1      13.833   2.658  18.808  1.00  0.00     0.174 HD
ATOM     25  H11 UNL     1      12.698   2.841  17.493  1.00  0.00     0.174 HD
ENDBRANCH   1  23
TORSDOF 4
ENDMDL
