MODEL 1
REMARK VINA RESULT: -7.060748635      0.000      0.000
REMARK  1 active torsions:
REMARK  status: ('A' for Active; 'I' for Inactive)
REMARK       I    between atoms: N1_1  and  C1_5 
REMARK       I    between atoms: C1_5  and  N2_6 
REMARK       I    between atoms: C1_5  and  N3_10 
REMARK    1  A    between atoms: C3_17  and  N6_18 
ROOT
HETATM    1  N1  UNL     1      14.828   3.767  18.466  1.00  0.00    -0.033 N 
ATOM      2  H11 UNL     1      14.403   4.647  18.175  1.00  0.00     0.278 HD
ATOM      3  H12 UNL     1      15.681   3.890  19.012  1.00  0.00     0.278 HD
ATOM      4  H13 UNL     1      14.292   3.275  19.180  1.00  0.00     0.278 HD
HETATM    5  C1  UNL     1      15.030   2.973  17.230  1.00  0.00     0.481 C 
HETATM    6  N2  UNL     1      15.625   1.741  17.637  1.00  0.00    -0.033 N 
ATOM      7  H21 UNL     1      15.764   1.195  16.787  1.00  0.00     0.278 HD
ATOM      8  H22 UNL     1      15.089   1.249  18.351  1.00  0.00     0.278 HD
ATOM      9  H23 UNL     1      16.478   1.865  18.183  1.00  0.00     0.278 HD
HETATM   10  N3  UNL     1      15.566   3.699  16.204  1.00  0.00    -0.322 N 
ATOM     11  H3  UNL     1      15.306   4.667  16.397  1.00  0.00     0.165 HD
HETATM   12  C2  UNL     1      16.209   3.740  15.165  1.00  0.00     0.189 A 
HETATM   13  N4  UNL     1      16.410   4.966  14.556  1.00  0.00    -0.267 N 
ATOM     14  H4  UNL     1      16.014   5.800  14.989  1.00  0.00     0.189 HD
HETATM   15  N5  UNL     1      17.090   5.098  13.444  1.00  0.00    -0.130 N 
ATOM     16  H5  UNL     1      17.202   6.031  13.048  1.00  0.00     0.205 HD
HETATM   17  C3  UNL     1      17.646   4.057  12.803  1.00  0.00     0.698 A 
HETATM   18  N8  UNL     1      17.488   2.840  13.340  1.00  0.00    -0.152 N 
ATOM     19  H8  UNL     1      17.897   2.025  12.882  1.00  0.00     0.188 HD
HETATM   20  C8  UNL     1      16.780   2.685  14.502  1.00  0.00     0.305 A 
HETATM   21  O1  UNL     1      16.673   1.519  14.947  1.00  0.00    -0.263 OA
ENDROOT
BRANCH  17  22
HETATM   22  N6  UNL     1      18.378   4.220  11.590  1.00  0.00    -0.213 N 
HETATM   23  C4  UNL     1      19.464   3.323  11.327  1.00  0.00     0.168 C 
HETATM   24  C5  UNL     1      20.457   3.898  10.337  1.00  0.00     0.252 C 
HETATM   25  N7  UNL     1      19.818   4.653   9.275  1.00  0.00    -0.072 N 
HETATM   26  C6  UNL     1      19.149   5.785   9.891  1.00  0.00     0.252 C 
ATOM     27  H72 UNL     1      20.464   4.927   8.535  1.00  0.00     0.277 HD
ATOM     28  H71 UNL     1      19.194   4.085   8.702  1.00  0.00     0.277 HD
HETATM   29  C7  UNL     1      17.974   5.280  10.699  1.00  0.00     0.168 C 
ENDBRANCH  17  22
TORSDOF 1
ENDMDL
MODEL 2
REMARK VINA RESULT: -6.898185857      0.372      1.227
REMARK  1 active torsions:
REMARK  status: ('A' for Active; 'I' for Inactive)
REMARK       I    between atoms: N1_1  and  C1_5 
REMARK       I    between atoms: C1_5  and  N2_6 
REMARK       I    between atoms: C1_5  and  N3_10 
REMARK    1  A    between atoms: C3_17  and  N6_18 
ROOT
HETATM    1  N1  UNL     1      14.777   3.740  18.554  1.00  0.00    -0.033 N 
ATOM      2  H11 UNL     1      14.394   4.648  18.292  1.00  0.00     0.278 HD
ATOM      3  H12 UNL     1      15.615   3.805  19.131  1.00  0.00     0.278 HD
ATOM      4  H13 UNL     1      14.199   3.236  19.227  1.00  0.00     0.278 HD
HETATM    5  C1  UNL     1      14.990   2.997  17.288  1.00  0.00     0.481 C 
HETATM    6  N2  UNL     1      15.526   1.726  17.654  1.00  0.00    -0.033 N 
ATOM      7  H21 UNL     1      15.672   1.215  16.783  1.00  0.00     0.278 HD
ATOM      8  H22 UNL     1      14.948   1.222  18.326  1.00  0.00     0.278 HD
ATOM      9  H23 UNL     1      16.364   1.791  18.231  1.00  0.00     0.278 HD
HETATM   10  N3  UNL     1      15.586   3.750  16.315  1.00  0.00    -0.322 N 
ATOM     11  H3  UNL     1      15.355   4.716  16.546  1.00  0.00     0.165 HD
HETATM   12  C2  UNL     1      16.264   3.815  15.300  1.00  0.00     0.189 A 
HETATM   13  N4  UNL     1      16.530   5.059  14.757  1.00  0.00    -0.267 N 
ATOM     14  H4  UNL     1      16.151   5.886  15.217  1.00  0.00     0.189 HD
HETATM   15  N5  UNL     1      17.250   5.216  13.674  1.00  0.00    -0.130 N 
ATOM     16  H5  UNL     1      17.409   6.162  13.327  1.00  0.00     0.205 HD
HETATM   17  C3  UNL     1      17.789   4.186  13.002  1.00  0.00     0.698 A 
HETATM   18  N8  UNL     1      17.568   2.952  13.475  1.00  0.00    -0.152 N 
ATOM     19  H8  UNL     1      17.961   2.144  12.991  1.00  0.00     0.188 HD
HETATM   20  C8  UNL     1      16.817   2.770  14.606  1.00  0.00     0.305 A 
HETATM   21  O1  UNL     1      16.653   1.589  14.990  1.00  0.00    -0.263 OA
ENDROOT
BRANCH  17  22
HETATM   22  N6  UNL     1      18.565   4.377  11.821  1.00  0.00    -0.213 N 
HETATM   23  C4  UNL     1      18.384   5.588  11.077  1.00  0.00     0.168 C 
HETATM   24  C5  UNL     1      18.827   5.448   9.635  1.00  0.00     0.252 C 
HETATM   25  N7  UNL     1      20.023   4.637   9.491  1.00  0.00    -0.072 N 
HETATM   26  C6  UNL     1      19.696   3.300   9.952  1.00  0.00     0.252 C 
ATOM     27  H72 UNL     1      20.403   4.650   8.545  1.00  0.00     0.277 HD
ATOM     28  H71 UNL     1      20.834   5.035   9.965  1.00  0.00     0.277 HD
HETATM   29  C7  UNL     1      19.491   3.334  11.450  1.00  0.00     0.168 C 
ENDBRANCH  17  22
TORSDOF 1
ENDMDL
MODEL 3
REMARK VINA RESULT: -6.430636101      3.079      3.552
REMARK  1 active torsions:
REMARK  status: ('A' for Active; 'I' for Inactive)
REMARK       I    between atoms: N1_1  and  C1_5 
REMARK       I    between atoms: C1_5  and  N2_6 
REMARK       I    between atoms: C1_5  and  N3_10 
REMARK    1  A    between atoms: C3_17  and  N6_18 
ROOT
HETATM    1  N1  UNL     1      13.512   2.758  17.429  1.00  0.00    -0.033 N 
ATOM      2  H11 UNL     1      12.903   3.204  16.743  1.00  0.00     0.278 HD
ATOM      3  H12 UNL     1      13.508   3.224  18.336  1.00  0.00     0.278 HD
ATOM      4  H13 UNL     1      13.166   1.855  17.750  1.00  0.00     0.278 HD
HETATM    5  C1  UNL     1      14.857   2.688  16.808  1.00  0.00     0.481 C 
HETATM    6  N2  UNL     1      15.709   2.064  17.767  1.00  0.00    -0.033 N 
ATOM      7  H21 UNL     1      16.634   2.015  17.340  1.00  0.00     0.278 HD
ATOM      8  H22 UNL     1      15.364   1.160  18.088  1.00  0.00     0.278 HD
ATOM      9  H23 UNL     1      15.706   2.530  18.674  1.00  0.00     0.278 HD
HETATM   10  N3  UNL     1      15.230   3.851  16.197  1.00  0.00    -0.322 N 
ATOM     11  H3  UNL     1      14.357   4.320  15.956  1.00  0.00     0.165 HD
HETATM   12  C2  UNL     1      16.114   4.598  15.801  1.00  0.00     0.189 A 
HETATM   13  N4  UNL     1      15.757   5.782  15.182  1.00  0.00    -0.267 N 
ATOM     14  H4  UNL     1      14.767   5.997  15.070  1.00  0.00     0.189 HD
HETATM   15  N5  UNL     1      16.641   6.638  14.733  1.00  0.00    -0.130 N 
ATOM     16  H5  UNL     1      16.310   7.493  14.286  1.00  0.00     0.205 HD
HETATM   17  C3  UNL     1      17.965   6.438  14.836  1.00  0.00     0.698 A 
HETATM   18  N8  UNL     1      18.380   5.308  15.426  1.00  0.00    -0.152 N 
ATOM     19  H8  UNL     1      19.378   5.122  15.522  1.00  0.00     0.188 HD
HETATM   20  C8  UNL     1      17.468   4.403  15.900  1.00  0.00     0.305 A 
HETATM   21  O1  UNL     1      17.927   3.370  16.440  1.00  0.00    -0.263 OA
ENDROOT
BRANCH  17  22
HETATM   22  N6  UNL     1      18.913   7.379  14.336  1.00  0.00    -0.213 N 
HETATM   23  C4  UNL     1      18.687   8.771  14.589  1.00  0.00     0.168 C 
HETATM   24  C5  UNL     1      19.415   9.661  13.602  1.00  0.00     0.252 C 
HETATM   25  N7  UNL     1      20.729   9.153  13.253  1.00  0.00    -0.072 N 
HETATM   26  C6  UNL     1      20.538   7.876  12.591  1.00  0.00     0.252 C 
ATOM     27  H72 UNL     1      21.276   9.811  12.697  1.00  0.00     0.277 HD
ATOM     28  H71 UNL     1      21.360   9.097  14.052  1.00  0.00     0.277 HD
HETATM   29  C7  UNL     1      20.047   6.867  13.605  1.00  0.00     0.168 C 
ENDBRANCH  17  22
TORSDOF 1
ENDMDL
MODEL 4
REMARK VINA RESULT: -6.339352580      1.389      1.874
REMARK  1 active torsions:
REMARK  status: ('A' for Active; 'I' for Inactive)
REMARK       I    between atoms: N1_1  and  C1_5 
REMARK       I    between atoms: C1_5  and  N2_6 
REMARK       I    between atoms: C1_5  and  N3_10 
REMARK    1  A    between atoms: C3_17  and  N6_18 
ROOT
HETATM    1  N1  UNL     1      14.250   2.678  17.447  1.00  0.00    -0.033 N 
ATOM      2  H11 UNL     1      14.786   1.810  17.441  1.00  0.00     0.278 HD
ATOM      3  H12 UNL     1      13.382   2.621  16.916  1.00  0.00     0.278 HD
ATOM      4  H13 UNL     1      13.831   2.888  18.353  1.00  0.00     0.278 HD
HETATM    5  C1  UNL     1      15.169   3.737  16.963  1.00  0.00     0.481 C 
HETATM    6  N2  UNL     1      14.421   4.952  16.972  1.00  0.00    -0.033 N 
ATOM      7  H21 UNL     1      15.052   5.680  16.639  1.00  0.00     0.278 HD
ATOM      8  H22 UNL     1      14.001   5.162  17.877  1.00  0.00     0.278 HD
ATOM      9  H23 UNL     1      13.552   4.895  16.440  1.00  0.00     0.278 HD
HETATM   10  N3  UNL     1      15.884   3.367  15.860  1.00  0.00    -0.322 N 
ATOM     11  H3  UNL     1      15.925   2.348  15.896  1.00  0.00     0.165 HD
HETATM   12  C2  UNL     1      16.498   3.678  14.849  1.00  0.00     0.189 A 
HETATM   13  N4  UNL     1      17.050   2.675  14.072  1.00  0.00    -0.267 N 
ATOM     14  H4  UNL     1      16.931   1.706  14.366  1.00  0.00     0.189 HD
HETATM   15  N5  UNL     1      17.719   2.921  12.973  1.00  0.00    -0.130 N 
ATOM     16  H5  UNL     1      18.099   2.135  12.446  1.00  0.00     0.205 HD
HETATM   17  C3  UNL     1      17.926   4.165  12.510  1.00  0.00     0.698 A 
HETATM   18  N8  UNL     1      17.418   5.184  13.217  1.00  0.00    -0.152 N 
ATOM     19  H8  UNL     1      17.555   6.143  12.897  1.00  0.00     0.188 HD
HETATM   20  C8  UNL     1      16.716   4.943  14.368  1.00  0.00     0.305 A 
HETATM   21  O1  UNL     1      16.271   5.943  14.977  1.00  0.00    -0.263 OA
ENDROOT
BRANCH  17  22
HETATM   22  N6  UNL     1      18.662   4.414  11.315  1.00  0.00    -0.213 N 
HETATM   23  C4  UNL     1      19.964   3.829  11.185  1.00  0.00     0.168 C 
HETATM   24  C5  UNL     1      20.827   4.565  10.179  1.00  0.00     0.252 C 
HETATM   25  N7  UNL     1      20.076   5.020   9.023  1.00  0.00    -0.072 N 
HETATM   26  C6  UNL     1      19.091   5.975   9.495  1.00  0.00     0.252 C 
ATOM     27  H72 UNL     1      20.671   5.394   8.283  1.00  0.00     0.277 HD
ATOM     28  H71 UNL     1      19.665   4.255   8.488  1.00  0.00     0.277 HD
HETATM   29  C7  UNL     1      18.046   5.241  10.306  1.00  0.00     0.168 C 
ENDBRANCH  17  22
TORSDOF 1
ENDMDL
MODEL 5
REMARK VINA RESULT: -6.248546452      1.763      6.703
REMARK  1 active torsions:
REMARK  status: ('A' for Active; 'I' for Inactive)
REMARK       I    between atoms: N1_1  and  C1_5 
REMARK       I    between atoms: C1_5  and  N2_6 
REMARK       I    between atoms: C1_5  and  N3_10 
REMARK    1  A    between atoms: C3_17  and  N6_18 
ROOT
HETATM    1  N1  UNL     1      20.255   4.539   9.204  1.00  0.00    -0.033 N 
ATOM      2  H11 UNL     1      20.005   3.560   9.065  1.00  0.00     0.278 HD
ATOM      3  H12 UNL     1      21.148   4.665   9.680  1.00  0.00     0.278 HD
ATOM      4  H13 UNL     1      20.504   5.020   8.340  1.00  0.00     0.278 HD
HETATM    5  C1  UNL     1      19.114   5.162   9.919  1.00  0.00     0.481 C 
HETATM    6  N2  UNL     1      19.463   6.532  10.113  1.00  0.00    -0.033 N 
ATOM      7  H21 UNL     1      18.679   6.961  10.604  1.00  0.00     0.278 HD
ATOM      8  H22 UNL     1      19.712   7.013   9.249  1.00  0.00     0.278 HD
ATOM      9  H23 UNL     1      20.356   6.659  10.589  1.00  0.00     0.278 HD
HETATM   10  N3  UNL     1      18.652   4.407  10.959  1.00  0.00    -0.322 N 
ATOM     11  H3  UNL     1      18.913   3.448  10.730  1.00  0.00     0.165 HD
HETATM   12  C2  UNL     1      18.074   4.335  12.034  1.00  0.00     0.189 A 
HETATM   13  N4  UNL     1      17.923   3.094  12.626  1.00  0.00    -0.267 N 
ATOM     14  H4  UNL     1      18.296   2.274  12.147  1.00  0.00     0.189 HD
HETATM   15  N5  UNL     1      17.320   2.930  13.777  1.00  0.00    -0.130 N 
ATOM     16  H5  UNL     1      17.244   1.987  14.158  1.00  0.00     0.205 HD
HETATM   17  C3  UNL     1      16.799   3.950  14.477  1.00  0.00     0.698 A 
HETATM   18  N8  UNL     1      16.909   5.181  13.959  1.00  0.00    -0.152 N 
ATOM     19  H8  UNL     1      16.525   5.981  14.462  1.00  0.00     0.188 HD
HETATM   20  C8  UNL     1      17.537   5.370  12.756  1.00  0.00     0.305 A 
HETATM   21  O1  UNL     1      17.604   6.546  12.333  1.00  0.00    -0.263 OA
ENDROOT
BRANCH  17  22
HETATM   22  N6  UNL     1      16.140   3.752  15.727  1.00  0.00    -0.213 N 
HETATM   23  C4  UNL     1      16.532   2.631  16.530  1.00  0.00     0.168 C 
HETATM   24  C5  UNL     1      15.454   2.226  17.515  1.00  0.00     0.252 C 
HETATM   25  N7  UNL     1      14.757   3.365  18.084  1.00  0.00    -0.072 N 
HETATM   26  C6  UNL     1      14.082   4.047  16.994  1.00  0.00     0.252 C 
ATOM     27  H72 UNL     1      14.126   3.109  18.844  1.00  0.00     0.277 HD
ATOM     28  H71 UNL     1      15.369   3.980  18.621  1.00  0.00     0.277 HD
HETATM   29  C7  UNL     1      15.119   4.698  16.106  1.00  0.00     0.168 C 
ENDBRANCH  17  22
TORSDOF 1
ENDMDL
