MODEL 1
REMARK VINA RESULT: -6.789624419      0.000      0.000
REMARK  3 active torsions:
REMARK  status: ('A' for Active; 'I' for Inactive)
REMARK       I    between atoms: N1_2  and  C2_4 
REMARK       I    between atoms: C2_4  and  N2_6 
REMARK    1  A    between atoms: N2_6  and  N3_7 
REMARK    2  A    between atoms: C4_12  and  C5_13 
REMARK       I    between atoms: C5_13  and  N5_15 
REMARK    3  A    between atoms: N5_15  and  N6_17 
ROOT
HETATM    1  N3  UNL     1      17.047   2.902  14.011  1.00  0.00    -0.078 N 
HETATM    2  C3  UNL     1      17.268   2.030  13.045  1.00  0.00     0.362 A 
HETATM    3  O2  UNL     1      16.873   0.818  13.171  1.00  0.00    -0.244 OA
HETATM    4  N4  UNL     1      17.911   2.365  11.899  1.00  0.00    -0.287 N 
ATOM      5  H4  UNL     1      18.056   1.651  11.184  1.00  0.00     0.172 HD
HETATM    6  C4  UNL     1      18.359   3.604  11.680  1.00  0.00     0.184 A 
HETATM    7  N7  UNL     1      18.156   4.506  12.623  1.00  0.00    -0.287 N 
ATOM      8  H7  UNL     1      18.487   5.460  12.483  1.00  0.00     0.172 HD
HETATM    9  C6  UNL     1      17.526   4.192  13.758  1.00  0.00     0.362 A 
HETATM   10  O4  UNL     1      17.348   5.058  14.629  1.00  0.00    -0.244 OA
ENDROOT
BRANCH   6  11
HETATM   11  C5  UNL     1      19.039   3.928  10.432  1.00  0.00     0.303 C 
HETATM   12  O3  UNL     1      19.559   2.994   9.743  1.00  0.00    -0.263 OA
HETATM   13  N5  UNL     1      19.155   5.242   9.935  1.00  0.00    -0.270 N 
ATOM     14  H5  UNL     1      18.745   6.001  10.478  1.00  0.00     0.189 HD
BRANCH  13  15
HETATM   15  N6  UNL     1      19.802   5.558   8.742  1.00  0.00    -0.342 N 
ATOM     16  H62 UNL     1      20.263   4.796   8.246  1.00  0.00     0.176 HD
ATOM     17  H61 UNL     1      19.833   6.499   8.351  1.00  0.00     0.176 HD
ENDBRANCH  13  15
ENDBRANCH   6  11
BRANCH   1  18
HETATM   18  N2  UNL     1      16.430   2.789  15.221  1.00  0.00    -0.249 NA
HETATM   19  C2  UNL     1      15.839   2.680  16.381  1.00  0.00     0.412 C 
HETATM   20  N1  UNL     1      15.529   3.826  17.213  1.00  0.00    -0.334 N 
HETATM   21  O1  UNL     1      15.452   1.589  16.950  1.00  0.00    -0.228 OA
HETATM   22  C1  UNL     1      14.864   3.695  18.501  1.00  0.00     0.152 C 
ATOM     23  H1  UNL     1      15.787   4.757  16.884  1.00  0.00     0.164 HD
ENDBRANCH   1  18
TORSDOF 3
ENDMDL
MODEL 2
REMARK VINA RESULT: -6.586724148      1.948      1.986
REMARK  3 active torsions:
REMARK  status: ('A' for Active; 'I' for Inactive)
REMARK       I    between atoms: N1_2  and  C2_4 
REMARK       I    between atoms: C2_4  and  N2_6 
REMARK    1  A    between atoms: N2_6  and  N3_7 
REMARK    2  A    between atoms: C4_12  and  C5_13 
REMARK       I    between atoms: C5_13  and  N5_15 
REMARK    3  A    between atoms: N5_15  and  N6_17 
ROOT
HETATM    1  N3  UNL     1      17.147   3.788  13.159  1.00  0.00    -0.078 N 
HETATM    2  C3  UNL     1      16.821   3.333  11.964  1.00  0.00     0.362 A 
HETATM    3  O2  UNL     1      16.240   2.197  11.845  1.00  0.00    -0.244 OA
HETATM    4  N4  UNL     1      17.078   4.028  10.828  1.00  0.00    -0.287 N 
ATOM      5  H4  UNL     1      16.804   3.629   9.930  1.00  0.00     0.172 HD
HETATM    6  C4  UNL     1      17.681   5.220  10.854  1.00  0.00     0.184 A 
HETATM    7  N7  UNL     1      18.023   5.709  12.032  1.00  0.00    -0.287 N 
ATOM      8  H7  UNL     1      18.483   6.617  12.082  1.00  0.00     0.172 HD
HETATM    9  C6  UNL     1      17.777   5.037  13.159  1.00  0.00     0.362 A 
HETATM   10  O4  UNL     1      18.109   5.519  14.254  1.00  0.00    -0.244 OA
ENDROOT
BRANCH   6  11
HETATM   11  C5  UNL     1      17.934   5.941   9.613  1.00  0.00     0.303 C 
HETATM   12  O3  UNL     1      18.909   5.590   8.875  1.00  0.00    -0.263 OA
HETATM   13  N5  UNL     1      17.146   7.024   9.175  1.00  0.00    -0.270 N 
ATOM     14  H5  UNL     1      16.362   7.317   9.757  1.00  0.00     0.189 HD
BRANCH  13  15
HETATM   15  N6  UNL     1      17.381   7.715   7.989  1.00  0.00    -0.342 N 
ATOM     16  H62 UNL     1      17.433   8.732   8.044  1.00  0.00     0.176 HD
ATOM     17  H61 UNL     1      17.501   7.258   7.085  1.00  0.00     0.176 HD
ENDBRANCH  13  15
ENDBRANCH   6  11
BRANCH   1  18
HETATM   18  N2  UNL     1      16.984   3.271  14.410  1.00  0.00    -0.249 NA
HETATM   19  C2  UNL     1      16.829   2.776  15.608  1.00  0.00     0.412 C 
HETATM   20  N1  UNL     1      15.571   2.844  16.327  1.00  0.00    -0.334 N 
HETATM   21  O1  UNL     1      17.722   2.173  16.317  1.00  0.00    -0.228 OA
HETATM   22  C1  UNL     1      15.406   2.283  17.659  1.00  0.00     0.152 C 
ATOM     23  H1  UNL     1      14.775   3.302  15.883  1.00  0.00     0.164 HD
ENDBRANCH   1  18
TORSDOF 3
ENDMDL
MODEL 3
REMARK VINA RESULT: -6.525595677      2.007      2.782
REMARK  3 active torsions:
REMARK  status: ('A' for Active; 'I' for Inactive)
REMARK       I    between atoms: N1_2  and  C2_4 
REMARK       I    between atoms: C2_4  and  N2_6 
REMARK    1  A    between atoms: N2_6  and  N3_7 
REMARK    2  A    between atoms: C4_12  and  C5_13 
REMARK       I    between atoms: C5_13  and  N5_15 
REMARK    3  A    between atoms: N5_15  and  N6_17 
ROOT
HETATM    1  N3  UNL     1      17.288   4.363  13.560  1.00  0.00    -0.078 N 
HETATM    2  C3  UNL     1      17.750   5.578  13.332  1.00  0.00     0.362 A 
HETATM    3  O2  UNL     1      18.078   6.336  14.313  1.00  0.00    -0.244 OA
HETATM    4  N4  UNL     1      17.898   6.075  12.079  1.00  0.00    -0.287 N 
ATOM      5  H4  UNL     1      18.260   7.022  11.960  1.00  0.00     0.172 HD
HETATM    6  C4  UNL     1      17.582   5.359  10.997  1.00  0.00     0.184 A 
HETATM    7  N7  UNL     1      17.116   4.137  11.184  1.00  0.00    -0.287 N 
ATOM      8  H7  UNL     1      16.868   3.568  10.375  1.00  0.00     0.172 HD
HETATM    9  C6  UNL     1      16.964   3.634  12.411  1.00  0.00     0.362 A 
HETATM   10  O4  UNL     1      16.524   2.483  12.560  1.00  0.00    -0.244 OA
ENDROOT
BRANCH   6  11
HETATM   11  C5  UNL     1      17.762   5.924   9.665  1.00  0.00     0.303 C 
HETATM   12  O3  UNL     1      18.750   5.551   8.957  1.00  0.00    -0.263 OA
HETATM   13  N5  UNL     1      16.887   6.878   9.107  1.00  0.00    -0.270 N 
ATOM     14  H5  UNL     1      16.091   7.188   9.664  1.00  0.00     0.189 HD
BRANCH  13  15
HETATM   15  N6  UNL     1      17.052   7.420   7.834  1.00  0.00    -0.342 N 
ATOM     16  H62 UNL     1      17.950   7.266   7.375  1.00  0.00     0.176 HD
ATOM     17  H61 UNL     1      16.329   7.953   7.352  1.00  0.00     0.176 HD
ENDBRANCH  13  15
ENDBRANCH   6  11
BRANCH   1  18
HETATM   18  N2  UNL     1      17.065   3.671  14.713  1.00  0.00    -0.249 NA
HETATM   19  C2  UNL     1      16.853   3.008  15.818  1.00  0.00     0.412 C 
HETATM   20  N1  UNL     1      15.547   2.926  16.443  1.00  0.00    -0.334 N 
HETATM   21  O1  UNL     1      17.724   2.348  16.502  1.00  0.00    -0.228 OA
HETATM   22  C1  UNL     1      15.318   2.178  17.670  1.00  0.00     0.152 C 
ATOM     23  H1  UNL     1      14.761   3.409  16.007  1.00  0.00     0.164 HD
ENDBRANCH   1  18
TORSDOF 3
ENDMDL
MODEL 4
REMARK VINA RESULT: -6.518030191      2.321      6.270
REMARK  3 active torsions:
REMARK  status: ('A' for Active; 'I' for Inactive)
REMARK       I    between atoms: N1_2  and  C2_4 
REMARK       I    between atoms: C2_4  and  N2_6 
REMARK    1  A    between atoms: N2_6  and  N3_7 
REMARK    2  A    between atoms: C4_12  and  C5_13 
REMARK       I    between atoms: C5_13  and  N5_15 
REMARK    3  A    between atoms: N5_15  and  N6_17 
ROOT
HETATM    1  N3  UNL     1      17.255   4.510  12.057  1.00  0.00    -0.078 N 
HETATM    2  C3  UNL     1      17.673   3.283  12.309  1.00  0.00     0.362 A 
HETATM    3  O2  UNL     1      18.266   2.607  11.396  1.00  0.00    -0.244 OA
HETATM    4  N4  UNL     1      17.499   2.690  13.515  1.00  0.00    -0.287 N 
ATOM      5  H4  UNL     1      17.842   1.739  13.656  1.00  0.00     0.172 HD
HETATM    6  C4  UNL     1      16.891   3.318  14.526  1.00  0.00     0.184 A 
HETATM    7  N7  UNL     1      16.459   4.548  14.314  1.00  0.00    -0.287 N 
ATOM      8  H7  UNL     1      15.991   5.050  15.067  1.00  0.00     0.172 HD
HETATM    9  C6  UNL     1      16.622   5.145  13.130  1.00  0.00     0.362 A 
HETATM   10  O4  UNL     1      16.205   6.301  12.956  1.00  0.00    -0.244 OA
ENDROOT
BRANCH   6  11
HETATM   11  C5  UNL     1      16.729   2.651  15.812  1.00  0.00     0.303 C 
HETATM   12  O3  UNL     1      17.718   2.039  16.327  1.00  0.00    -0.263 OA
HETATM   13  N5  UNL     1      15.517   2.645  16.531  1.00  0.00    -0.270 N 
ATOM     14  H5  UNL     1      14.715   3.130  16.130  1.00  0.00     0.189 HD
BRANCH  13  15
HETATM   15  N6  UNL     1      15.357   2.012  17.762  1.00  0.00    -0.342 N 
ATOM     16  H62 UNL     1      15.966   1.218  17.960  1.00  0.00     0.176 HD
ATOM     17  H61 UNL     1      14.671   2.302  18.459  1.00  0.00     0.176 HD
ENDBRANCH  13  15
ENDBRANCH   6  11
BRANCH   1  18
HETATM   18  N2  UNL     1      17.325   5.289  10.941  1.00  0.00    -0.249 NA
HETATM   19  C2  UNL     1      17.393   6.035   9.871  1.00  0.00     0.412 C 
HETATM   20  N1  UNL     1      16.611   7.246   9.710  1.00  0.00    -0.334 N 
HETATM   21  O1  UNL     1      18.128   5.830   8.832  1.00  0.00    -0.228 OA
HETATM   22  C1  UNL     1      16.699   8.075   8.517  1.00  0.00     0.152 C 
ATOM     23  H1  UNL     1      15.978   7.527  10.459  1.00  0.00     0.164 HD
ENDBRANCH   1  18
TORSDOF 3
ENDMDL
MODEL 5
REMARK VINA RESULT: -6.515682684      2.583      6.630
REMARK  3 active torsions:
REMARK  status: ('A' for Active; 'I' for Inactive)
REMARK       I    between atoms: N1_2  and  C2_4 
REMARK       I    between atoms: C2_4  and  N2_6 
REMARK    1  A    between atoms: N2_6  and  N3_7 
REMARK    2  A    between atoms: C4_12  and  C5_13 
REMARK       I    between atoms: C5_13  and  N5_15 
REMARK    3  A    between atoms: N5_15  and  N6_17 
ROOT
HETATM    1  N3  UNL     1      16.675   5.459  12.708  1.00  0.00    -0.078 N 
HETATM    2  C3  UNL     1      15.988   5.702  13.808  1.00  0.00     0.362 A 
HETATM    3  O2  UNL     1      15.276   6.764  13.900  1.00  0.00    -0.244 OA
HETATM    4  N4  UNL     1      16.001   4.862  14.872  1.00  0.00    -0.287 N 
ATOM      5  H4  UNL     1      15.450   5.098  15.698  1.00  0.00     0.172 HD
HETATM    6  C4  UNL     1      16.714   3.732  14.867  1.00  0.00     0.184 A 
HETATM    7  N7  UNL     1      17.415   3.453  13.783  1.00  0.00    -0.287 N 
ATOM      8  H7  UNL     1      17.968   2.598  13.752  1.00  0.00     0.172 HD
HETATM    9  C6  UNL     1      17.413   4.272  12.728  1.00  0.00     0.362 A 
HETATM   10  O4  UNL     1      18.082   3.987  11.721  1.00  0.00    -0.244 OA
ENDROOT
BRANCH   6  11
HETATM   11  C5  UNL     1      16.697   2.849  16.027  1.00  0.00     0.303 C 
HETATM   12  O3  UNL     1      17.783   2.322  16.426  1.00  0.00    -0.263 OA
HETATM   13  N5  UNL     1      15.524   2.540  16.744  1.00  0.00    -0.270 N 
ATOM     14  H5  UNL     1      14.645   2.954  16.434  1.00  0.00     0.189 HD
BRANCH  13  15
HETATM   15  N6  UNL     1      15.501   1.698  17.854  1.00  0.00    -0.342 N 
ATOM     16  H62 UNL     1      15.085   0.775  17.731  1.00  0.00     0.176 HD
ATOM     17  H61 UNL     1      15.875   1.960  18.766  1.00  0.00     0.176 HD
ENDBRANCH  13  15
ENDBRANCH   6  11
BRANCH   1  18
HETATM   18  N2  UNL     1      16.804   6.149  11.539  1.00  0.00    -0.249 NA
HETATM   19  C2  UNL     1      16.926   6.810  10.419  1.00  0.00     0.412 C 
HETATM   20  N1  UNL     1      17.635   6.280   9.270  1.00  0.00    -0.334 N 
HETATM   21  O1  UNL     1      16.462   7.985  10.162  1.00  0.00    -0.228 OA
HETATM   22  C1  UNL     1      17.760   7.021   8.024  1.00  0.00     0.152 C 
ATOM     23  H1  UNL     1      18.060   5.355   9.337  1.00  0.00     0.164 HD
ENDBRANCH   1  18
TORSDOF 3
ENDMDL
