MODEL 1
REMARK VINA RESULT: -7.280464882      0.000      0.000
REMARK  6 active torsions:
REMARK  status: ('A' for Active; 'I' for Inactive)
REMARK    1  A    between atoms: C2_2  and  N1_3 
REMARK    2  A    between atoms: C2_2  and  C3_7 
REMARK    3  A    between atoms: C3_7  and  N4_15 
REMARK       I    between atoms: N2_8  and  C4_10 
REMARK    4  A    between atoms: C4_10  and  C5_12 
REMARK    5  A    between atoms: N4_15  and  N5_17 
REMARK    6  A    between atoms: N5_17  and  C6_19 
ROOT
HETATM    1  C3  UNL     1      16.920   5.582  14.083  1.00  0.00     0.130 C 
HETATM    2  N2  UNL     1      16.634   4.986  12.965  1.00  0.00    -0.306 N 
ATOM      3  H2  UNL     1      15.889   5.360  12.377  1.00  0.00     0.170 HD
HETATM    4  C4  UNL     1      17.334   3.827  12.544  1.00  0.00     0.312 C 
HETATM    5  O1  UNL     1      18.584   3.813  12.652  1.00  0.00    -0.262 OA
ENDROOT
BRANCH   1   6
HETATM    6  C2  UNL     1      16.208   6.789  14.545  1.00  0.00     0.248 C 
HETATM    7  C1  UNL     1      15.083   6.512  15.477  1.00  0.00     0.048 C 
BRANCH   6   8
HETATM    8  N1  UNL     1      17.190   7.694  15.100  1.00  0.00    -0.069 N 
ATOM      9  H13 UNL     1      18.110   7.528  14.693  1.00  0.00     0.275 HD
ATOM     10  H12 UNL     1      17.033   8.647  14.774  1.00  0.00     0.275 HD
ATOM     11  H11 UNL     1      17.231   7.660  16.118  1.00  0.00     0.275 HD
ENDBRANCH   6   8
ENDBRANCH   1   6
BRANCH   1  12
HETATM   12  N4  UNL     1      17.950   5.070  14.901  1.00  0.00    -0.273 N 
ATOM     13  H4  UNL     1      18.917   5.159  14.585  1.00  0.00     0.189 HD
BRANCH  12  14
HETATM   14  N5  UNL     1      17.703   4.451  16.116  1.00  0.00    -0.129 N 
ATOM     15  H5  UNL     1      18.053   4.876  16.975  1.00  0.00     0.205 HD
BRANCH  14  16
HETATM   16  C6  UNL     1      17.028   3.332  16.181  1.00  0.00     0.722 A 
HETATM   17  N6  UNL     1      17.348   2.149  15.633  1.00  0.00    -0.115 N 
HETATM   18  N7  UNL     1      16.382   1.293  15.951  1.00  0.00     0.006 NA
ATOM     19  H6  UNL     1      18.179   1.945  15.077  1.00  0.00     0.202 HD
HETATM   20  N8  UNL     1      15.459   1.893  16.683  1.00  0.00     0.006 NA
HETATM   21  N9  UNL     1      15.872   3.147  16.815  1.00  0.00    -0.115 N 
ATOM     22  H9  UNL     1      15.372   3.871  17.332  1.00  0.00     0.202 HD
ENDBRANCH  14  16
ENDBRANCH  12  14
ENDBRANCH   1  12
BRANCH   4  23
HETATM   23  C5  UNL     1      16.668   2.668  12.002  1.00  0.00     0.322 C 
HETATM   24  N3  UNL     1      16.923   1.362  12.482  1.00  0.00    -0.053 NA
HETATM   25  O2  UNL     1      15.811   2.753  11.058  1.00  0.00    -0.266 OA
ENDBRANCH   4  23
TORSDOF 6
ENDMDL
MODEL 2
REMARK VINA RESULT: -7.271970728      1.567      1.693
REMARK  6 active torsions:
REMARK  status: ('A' for Active; 'I' for Inactive)
REMARK    1  A    between atoms: C2_2  and  N1_3 
REMARK    2  A    between atoms: C2_2  and  C3_7 
REMARK    3  A    between atoms: C3_7  and  N4_15 
REMARK       I    between atoms: N2_8  and  C4_10 
REMARK    4  A    between atoms: C4_10  and  C5_12 
REMARK    5  A    between atoms: N4_15  and  N5_17 
REMARK    6  A    between atoms: N5_17  and  C6_19 
ROOT
HETATM    1  C3  UNL     1      17.918   5.246  13.869  1.00  0.00     0.130 C 
HETATM    2  N2  UNL     1      18.068   4.486  12.827  1.00  0.00    -0.306 N 
ATOM      3  H2  UNL     1      18.767   4.732  12.126  1.00  0.00     0.170 HD
HETATM    4  C4  UNL     1      17.280   3.322  12.643  1.00  0.00     0.312 C 
HETATM    5  O1  UNL     1      17.103   2.559  13.624  1.00  0.00    -0.262 OA
ENDROOT
BRANCH   1   6
HETATM    6  C2  UNL     1      18.724   6.464  14.087  1.00  0.00     0.248 C 
HETATM    7  C1  UNL     1      17.989   7.566  14.763  1.00  0.00     0.048 C 
BRANCH   6   8
HETATM    8  N1  UNL     1      19.928   6.076  14.787  1.00  0.00    -0.069 N 
ATOM      9  H13 UNL     1      20.005   6.565  15.679  1.00  0.00     0.275 HD
ATOM     10  H12 UNL     1      19.858   5.118  15.129  1.00  0.00     0.275 HD
ATOM     11  H11 UNL     1      20.771   6.203  14.228  1.00  0.00     0.275 HD
ENDBRANCH   6   8
ENDBRANCH   1   6
BRANCH   1  12
HETATM   12  N4  UNL     1      16.953   4.911  14.844  1.00  0.00    -0.273 N 
ATOM     13  H4  UNL     1      15.991   5.223  14.707  1.00  0.00     0.189 HD
BRANCH  12  14
HETATM   14  N5  UNL     1      17.260   4.177  15.978  1.00  0.00    -0.129 N 
ATOM     15  H5  UNL     1      18.141   4.348  16.462  1.00  0.00     0.205 HD
BRANCH  14  16
HETATM   16  C6  UNL     1      16.438   3.269  16.440  1.00  0.00     0.722 A 
HETATM   17  N6  UNL     1      16.683   1.962  16.627  1.00  0.00    -0.115 N 
HETATM   18  N7  UNL     1      15.570   1.419  17.110  1.00  0.00     0.006 NA
ATOM     19  H6  UNL     1      17.559   1.477  16.435  1.00  0.00     0.202 HD
HETATM   20  N8  UNL     1      14.626   2.336  17.236  1.00  0.00     0.006 NA
HETATM   21  N9  UNL     1      15.177   3.469  16.819  1.00  0.00    -0.115 N 
ATOM     22  H9  UNL     1      14.701   4.371  16.792  1.00  0.00     0.202 HD
ENDBRANCH  14  16
ENDBRANCH  12  14
ENDBRANCH   1  12
BRANCH   4  23
HETATM   23  C5  UNL     1      16.677   2.981  11.377  1.00  0.00     0.322 C 
HETATM   24  N3  UNL     1      17.378   2.265  10.380  1.00  0.00    -0.053 NA
HETATM   25  O2  UNL     1      15.477   3.307  11.085  1.00  0.00    -0.266 OA
ENDBRANCH   4  23
TORSDOF 6
ENDMDL
MODEL 3
REMARK VINA RESULT: -7.186019786      0.819      1.312
REMARK  6 active torsions:
REMARK  status: ('A' for Active; 'I' for Inactive)
REMARK    1  A    between atoms: C2_2  and  N1_3 
REMARK    2  A    between atoms: C2_2  and  C3_7 
REMARK    3  A    between atoms: C3_7  and  N4_15 
REMARK       I    between atoms: N2_8  and  C4_10 
REMARK    4  A    between atoms: C4_10  and  C5_12 
REMARK    5  A    between atoms: N4_15  and  N5_17 
REMARK    6  A    between atoms: N5_17  and  C6_19 
ROOT
HETATM    1  C3  UNL     1      17.203   5.864  14.009  1.00  0.00     0.130 C 
HETATM    2  N2  UNL     1      16.881   5.338  12.866  1.00  0.00    -0.306 N 
ATOM      3  H2  UNL     1      16.275   5.857  12.231  1.00  0.00     0.170 HD
HETATM    4  C4  UNL     1      17.353   4.057  12.484  1.00  0.00     0.312 C 
HETATM    5  O1  UNL     1      18.562   3.783  12.681  1.00  0.00    -0.262 OA
ENDROOT
BRANCH   1   6
HETATM    6  C2  UNL     1      16.725   7.195  14.433  1.00  0.00     0.248 C 
HETATM    7  C1  UNL     1      17.795   8.087  14.956  1.00  0.00     0.048 C 
BRANCH   6   8
HETATM    8  N1  UNL     1      15.999   7.776  13.325  1.00  0.00    -0.069 N 
ATOM      9  H13 UNL     1      15.213   8.333  13.657  1.00  0.00     0.275 HD
ATOM     10  H12 UNL     1      16.546   8.511  12.877  1.00  0.00     0.275 HD
ATOM     11  H11 UNL     1      15.693   7.082  12.644  1.00  0.00     0.275 HD
ENDBRANCH   6   8
ENDBRANCH   1   6
BRANCH   1  12
HETATM   12  N4  UNL     1      18.041   5.152  14.894  1.00  0.00    -0.273 N 
ATOM     13  H4  UNL     1      19.025   5.035  14.648  1.00  0.00     0.189 HD
BRANCH  12  14
HETATM   14  N5  UNL     1      17.583   4.606  16.082  1.00  0.00    -0.129 N 
ATOM     15  H5  UNL     1      17.689   5.133  16.949  1.00  0.00     0.205 HD
BRANCH  14  16
HETATM   16  C6  UNL     1      17.018   3.426  16.112  1.00  0.00     0.722 A 
HETATM   17  N6  UNL     1      16.049   3.002  16.938  1.00  0.00    -0.115 N 
HETATM   18  N7  UNL     1      15.780   1.741  16.616  1.00  0.00     0.006 NA
ATOM     19  H6  UNL     1      15.602   3.547  17.677  1.00  0.00     0.202 HD
HETATM   20  N8  UNL     1      16.545   1.349  15.611  1.00  0.00     0.006 NA
HETATM   21  N9  UNL     1      17.302   2.398  15.313  1.00  0.00    -0.115 N 
ATOM     22  H9  UNL     1      18.004   2.416  14.574  1.00  0.00     0.202 HD
ENDBRANCH  14  16
ENDBRANCH  12  14
ENDBRANCH   1  12
BRANCH   4  23
HETATM   23  C5  UNL     1      16.502   3.060  11.882  1.00  0.00     0.322 C 
HETATM   24  N3  UNL     1      16.743   1.675  12.035  1.00  0.00    -0.053 NA
HETATM   25  O2  UNL     1      15.484   3.370  11.175  1.00  0.00    -0.266 OA
ENDBRANCH   4  23
TORSDOF 6
ENDMDL
MODEL 4
REMARK VINA RESULT: -7.127000232      1.810      2.139
REMARK  6 active torsions:
REMARK  status: ('A' for Active; 'I' for Inactive)
REMARK    1  A    between atoms: C2_2  and  N1_3 
REMARK    2  A    between atoms: C2_2  and  C3_7 
REMARK    3  A    between atoms: C3_7  and  N4_15 
REMARK       I    between atoms: N2_8  and  C4_10 
REMARK    4  A    between atoms: C4_10  and  C5_12 
REMARK    5  A    between atoms: N4_15  and  N5_17 
REMARK    6  A    between atoms: N5_17  and  C6_19 
ROOT
HETATM    1  C3  UNL     1      17.432   4.596  13.431  1.00  0.00     0.130 C 
HETATM    2  N2  UNL     1      17.881   3.612  12.713  1.00  0.00    -0.306 N 
ATOM      3  H2  UNL     1      18.707   3.755  12.132  1.00  0.00     0.170 HD
HETATM    4  C4  UNL     1      17.248   2.343  12.720  1.00  0.00     0.312 C 
HETATM    5  O1  UNL     1      16.898   1.857  13.823  1.00  0.00    -0.262 OA
ENDROOT
BRANCH   1   6
HETATM    6  C2  UNL     1      18.070   5.927  13.443  1.00  0.00     0.248 C 
HETATM    7  C1  UNL     1      17.127   7.052  13.684  1.00  0.00     0.048 C 
BRANCH   6   8
HETATM    8  N1  UNL     1      19.155   5.887  14.398  1.00  0.00    -0.069 N 
ATOM      9  H13 UNL     1      19.995   6.318  14.014  1.00  0.00     0.275 HD
ATOM     10  H12 UNL     1      18.981   6.524  15.175  1.00  0.00     0.275 HD
ATOM     11  H11 UNL     1      19.351   4.945  14.737  1.00  0.00     0.275 HD
ENDBRANCH   6   8
ENDBRANCH   1   6
BRANCH   1  12
HETATM   12  N4  UNL     1      16.289   4.406  14.238  1.00  0.00    -0.273 N 
ATOM     13  H4  UNL     1      15.380   4.311  13.785  1.00  0.00     0.189 HD
BRANCH  12  14
HETATM   14  N5  UNL     1      16.353   4.342  15.620  1.00  0.00    -0.129 N 
ATOM     15  H5  UNL     1      16.874   5.055  16.131  1.00  0.00     0.205 HD
BRANCH  14  16
HETATM   16  C6  UNL     1      15.756   3.384  16.283  1.00  0.00     0.722 A 
HETATM   17  N6  UNL     1      14.481   3.348  16.702  1.00  0.00    -0.115 N 
HETATM   18  N7  UNL     1      14.306   2.191  17.332  1.00  0.00     0.006 NA
ATOM     19  H6  UNL     1      13.777   4.074  16.562  1.00  0.00     0.202 HD
HETATM   20  N8  UNL     1      15.427   1.490  17.327  1.00  0.00     0.006 NA
HETATM   21  N9  UNL     1      16.309   2.239  16.678  1.00  0.00    -0.115 N 
ATOM     22  H9  UNL     1      17.279   1.975  16.505  1.00  0.00     0.202 HD
ENDBRANCH  14  16
ENDBRANCH  12  14
ENDBRANCH   1  12
BRANCH   4  23
HETATM   23  C5  UNL     1      16.991   1.594  11.514  1.00  0.00     0.322 C 
HETATM   24  N3  UNL     1      16.583   2.220  10.313  1.00  0.00    -0.053 NA
HETATM   25  O2  UNL     1      17.115   0.324  11.461  1.00  0.00    -0.266 OA
ENDBRANCH   4  23
TORSDOF 6
ENDMDL
MODEL 5
REMARK VINA RESULT: -6.986968771      2.147      4.170
REMARK  6 active torsions:
REMARK  status: ('A' for Active; 'I' for Inactive)
REMARK    1  A    between atoms: C2_2  and  N1_3 
REMARK    2  A    between atoms: C2_2  and  C3_7 
REMARK    3  A    between atoms: C3_7  and  N4_15 
REMARK       I    between atoms: N2_8  and  C4_10 
REMARK    4  A    between atoms: C4_10  and  C5_12 
REMARK    5  A    between atoms: N4_15  and  N5_17 
REMARK    6  A    between atoms: N5_17  and  C6_19 
ROOT
HETATM    1  C3  UNL     1      17.763   5.573  14.683  1.00  0.00     0.130 C 
HETATM    2  N2  UNL     1      17.655   4.796  15.718  1.00  0.00    -0.306 N 
ATOM      3  H2  UNL     1      18.412   4.765  16.400  1.00  0.00     0.170 HD
HETATM    4  C4  UNL     1      16.504   3.992  15.920  1.00  0.00     0.312 C 
HETATM    5  O1  UNL     1      15.375   4.507  15.734  1.00  0.00    -0.262 OA
ENDROOT
BRANCH   1   6
HETATM    6  C2  UNL     1      18.948   6.421  14.446  1.00  0.00     0.248 C 
HETATM    7  C1  UNL     1      18.728   7.866  14.721  1.00  0.00     0.048 C 
BRANCH   6   8
HETATM    8  N1  UNL     1      20.046   5.864  15.205  1.00  0.00    -0.069 N 
ATOM      9  H13 UNL     1      20.942   6.197  14.849  1.00  0.00     0.275 HD
ATOM     10  H12 UNL     1      20.082   6.265  16.142  1.00  0.00     0.275 HD
ATOM     11  H11 UNL     1      20.026   4.845  15.245  1.00  0.00     0.275 HD
ENDBRANCH   6   8
ENDBRANCH   1   6
BRANCH   1  12
HETATM   12  N4  UNL     1      16.718   5.623  13.735  1.00  0.00    -0.273 N 
ATOM     13  H4  UNL     1      15.778   5.856  14.055  1.00  0.00     0.189 HD
BRANCH  12  14
HETATM   14  N5  UNL     1      16.916   5.368  12.388  1.00  0.00    -0.129 N 
ATOM     15  H5  UNL     1      17.184   6.132  11.768  1.00  0.00     0.205 HD
BRANCH  14  16
HETATM   16  C6  UNL     1      16.766   4.164  11.897  1.00  0.00     0.722 A 
HETATM   17  N6  UNL     1      16.669   3.009  12.574  1.00  0.00    -0.115 N 
HETATM   18  N7  UNL     1      16.529   2.037  11.677  1.00  0.00     0.006 NA
ATOM     19  H6  UNL     1      16.697   2.897  13.588  1.00  0.00     0.202 HD
HETATM   20  N8  UNL     1      16.534   2.537  10.453  1.00  0.00     0.006 NA
HETATM   21  N9  UNL     1      16.681   3.847  10.606  1.00  0.00    -0.115 N 
ATOM     22  H9  UNL     1      16.723   4.520   9.841  1.00  0.00     0.202 HD
ENDBRANCH  14  16
ENDBRANCH  12  14
ENDBRANCH   1  12
BRANCH   4  23
HETATM   23  C5  UNL     1      16.582   2.610  16.329  1.00  0.00     0.322 C 
HETATM   24  N3  UNL     1      15.437   1.878  16.720  1.00  0.00    -0.053 NA
HETATM   25  O2  UNL     1      17.687   1.970  16.362  1.00  0.00    -0.266 OA
ENDBRANCH   4  23
TORSDOF 6
ENDMDL
