MODEL 1
REMARK VINA RESULT: -7.196864856      0.000      0.000
REMARK  3 active torsions:
REMARK  status: ('A' for Active; 'I' for Inactive)
REMARK    1  A    between atoms: N1_1  and  N2_4 
REMARK       I    between atoms: N2_4  and  C1_6 
REMARK       I    between atoms: C1_6  and  N3_8 
REMARK    2  A    between atoms: C3_10  and  C4_11 
REMARK    3  A    between atoms: N4_12  and  N5_14 
ROOT
HETATM    1  N2  UNL     1      19.863   4.829   9.278  1.00  0.00    -0.257 N 
ATOM      2  H2  UNL     1      19.996   3.904   8.870  1.00  0.00     0.191 HD
HETATM    3  C1  UNL     1      19.154   4.941  10.458  1.00  0.00     0.348 C 
HETATM    4  O1  UNL     1      19.035   6.156  10.906  1.00  0.00    -0.245 OA
HETATM    5  N3  UNL     1      18.545   3.950  11.243  1.00  0.00    -0.224 N 
HETATM    6  C2  UNL     1      17.886   4.304  12.392  1.00  0.00     0.125 A 
HETATM    7  C3  UNL     1      17.261   3.415  13.225  1.00  0.00     0.065 A 
HETATM    8  C6  UNL     1      17.319   2.085  12.853  1.00  0.00     0.262 A 
HETATM    9  O2  UNL     1      16.766   1.217  13.572  1.00  0.00    -0.267 OA
HETATM   10  N8  UNL     1      17.955   1.701  11.735  1.00  0.00    -0.274 N 
ATOM     11  H8  UNL     1      17.988   0.715  11.474  1.00  0.00     0.173 HD
HETATM   12  C7  UNL     1      18.564   2.654  10.940  1.00  0.00     0.337 A 
HETATM   13  O3  UNL     1      19.151   2.253   9.901  1.00  0.00    -0.246 OA
ENDROOT
BRANCH   7  14
HETATM   14  C4  UNL     1      16.572   3.835  14.436  1.00  0.00     0.125 C 
HETATM   15  N4  UNL     1      16.907   3.407  15.596  1.00  0.00    -0.309 N 
ATOM     16  H4  UNL     1      17.686   2.752  15.658  1.00  0.00     0.186 HD
BRANCH  15  17
HETATM   17  N5  UNL     1      16.281   3.779  16.763  1.00  0.00    -0.276 N 
HETATM   18  C5  UNL     1      15.625   3.030  17.551  1.00  0.00     0.215 C 
HETATM   19  N6  UNL     1      15.416   1.641  17.368  1.00  0.00    -0.065 NA
HETATM   20  N7  UNL     1      15.051   3.626  18.719  1.00  0.00    -0.065 NA
ATOM     21  H5  UNL     1      16.351   4.764  17.024  1.00  0.00     0.189 HD
ENDBRANCH  15  17
ENDBRANCH   7  14
BRANCH   1  22
HETATM   22  N1  UNL     1      20.417   5.964   8.611  1.00  0.00    -0.341 N 
ATOM     23  H12 UNL     1      21.374   5.891   8.264  1.00  0.00     0.177 HD
ATOM     24  H11 UNL     1      19.892   6.827   8.476  1.00  0.00     0.177 HD
ENDBRANCH   1  22
TORSDOF 3
ENDMDL
MODEL 2
REMARK VINA RESULT: -6.945345646      1.864      2.290
REMARK  3 active torsions:
REMARK  status: ('A' for Active; 'I' for Inactive)
REMARK    1  A    between atoms: N1_1  and  N2_4 
REMARK       I    between atoms: N2_4  and  C1_6 
REMARK       I    between atoms: C1_6  and  N3_8 
REMARK    2  A    between atoms: C3_10  and  C4_11 
REMARK    3  A    between atoms: N4_12  and  N5_14 
ROOT
HETATM    1  N2  UNL     1      21.227   5.768  10.281  1.00  0.00    -0.257 N 
ATOM      2  H2  UNL     1      20.720   6.173   9.493  1.00  0.00     0.191 HD
HETATM    3  C1  UNL     1      20.538   4.981  11.182  1.00  0.00     0.348 C 
HETATM    4  O1  UNL     1      21.262   4.507  12.152  1.00  0.00    -0.245 OA
HETATM    5  N3  UNL     1      19.183   4.615  11.211  1.00  0.00    -0.224 N 
HETATM    6  C2  UNL     1      18.718   3.812  12.220  1.00  0.00     0.125 A 
HETATM    7  C3  UNL     1      17.418   3.400  12.337  1.00  0.00     0.065 A 
HETATM    8  C6  UNL     1      16.546   3.841  11.359  1.00  0.00     0.262 A 
HETATM    9  O2  UNL     1      15.338   3.500  11.407  1.00  0.00    -0.267 OA
HETATM   10  N8  UNL     1      16.965   4.629  10.356  1.00  0.00    -0.274 N 
ATOM     11  H8  UNL     1      16.309   4.946   9.642  1.00  0.00     0.173 HD
HETATM   12  C7  UNL     1      18.294   5.007  10.300  1.00  0.00     0.337 A 
HETATM   13  O3  UNL     1      18.647   5.745   9.344  1.00  0.00    -0.246 OA
ENDROOT
BRANCH   7  14
HETATM   14  C4  UNL     1      16.967   2.546  13.426  1.00  0.00     0.125 C 
HETATM   15  N4  UNL     1      17.102   2.877  14.655  1.00  0.00    -0.309 N 
ATOM     16  H4  UNL     1      17.542   3.773  14.865  1.00  0.00     0.186 HD
BRANCH  15  17
HETATM   17  N5  UNL     1      16.690   2.097  15.712  1.00  0.00    -0.276 N 
HETATM   18  C5  UNL     1      15.881   2.426  16.634  1.00  0.00     0.215 C 
HETATM   19  N6  UNL     1      15.239   3.684  16.744  1.00  0.00    -0.065 NA
HETATM   20  N7  UNL     1      15.588   1.456  17.644  1.00  0.00    -0.065 NA
ATOM     21  H5  UNL     1      17.076   1.154  15.760  1.00  0.00     0.189 HD
ENDBRANCH  15  17
ENDBRANCH   7  14
BRANCH   1  22
HETATM   22  N1  UNL     1      22.623   6.036  10.413  1.00  0.00    -0.341 N 
ATOM     23  H12 UNL     1      23.276   5.290  10.170  1.00  0.00     0.177 HD
ATOM     24  H11 UNL     1      22.977   6.936  10.737  1.00  0.00     0.177 HD
ENDBRANCH   1  22
TORSDOF 3
ENDMDL
MODEL 3
REMARK VINA RESULT: -6.923785183      2.039      2.267
REMARK  3 active torsions:
REMARK  status: ('A' for Active; 'I' for Inactive)
REMARK    1  A    between atoms: N1_1  and  N2_4 
REMARK       I    between atoms: N2_4  and  C1_6 
REMARK       I    between atoms: C1_6  and  N3_8 
REMARK    2  A    between atoms: C3_10  and  C4_11 
REMARK    3  A    between atoms: N4_12  and  N5_14 
ROOT
HETATM    1  N2  UNL     1      21.013   6.731  10.419  1.00  0.00    -0.257 N 
ATOM      2  H2  UNL     1      20.705   6.595   9.457  1.00  0.00     0.191 HD
HETATM    3  C1  UNL     1      20.219   6.258  11.446  1.00  0.00     0.348 C 
HETATM    4  O1  UNL     1      20.689   6.475  12.638  1.00  0.00    -0.245 OA
HETATM    5  N3  UNL     1      18.990   5.583  11.400  1.00  0.00    -0.224 N 
HETATM    6  C2  UNL     1      18.378   5.206  12.567  1.00  0.00     0.125 A 
HETATM    7  C3  UNL     1      17.180   4.545  12.629  1.00  0.00     0.065 A 
HETATM    8  C6  UNL     1      16.579   4.256  11.418  1.00  0.00     0.262 A 
HETATM    9  O2  UNL     1      15.478   3.652  11.403  1.00  0.00    -0.267 OA
HETATM   10  N8  UNL     1      17.148   4.611  10.255  1.00  0.00    -0.274 N 
ATOM     11  H8  UNL     1      16.690   4.390   9.370  1.00  0.00     0.173 HD
HETATM   12  C7  UNL     1      18.359   5.277  10.268  1.00  0.00     0.337 A 
HETATM   13  O3  UNL     1      18.860   5.590   9.156  1.00  0.00    -0.246 OA
ENDROOT
BRANCH   7  14
HETATM   14  C4  UNL     1      16.566   4.163  13.891  1.00  0.00     0.125 C 
HETATM   15  N4  UNL     1      17.255   3.941  14.948  1.00  0.00    -0.309 N 
ATOM     16  H4  UNL     1      18.269   4.040  14.888  1.00  0.00     0.186 HD
BRANCH  15  17
HETATM   17  N5  UNL     1      16.713   3.578  16.159  1.00  0.00    -0.276 N 
HETATM   18  C5  UNL     1      16.418   2.404  16.542  1.00  0.00     0.215 C 
HETATM   19  N6  UNL     1      16.599   1.227  15.775  1.00  0.00    -0.065 NA
HETATM   20  N7  UNL     1      15.858   2.248  17.851  1.00  0.00    -0.065 NA
ATOM     21  H5  UNL     1      16.528   4.333  16.820  1.00  0.00     0.189 HD
ENDBRANCH  15  17
ENDBRANCH   7  14
BRANCH   1  22
HETATM   22  N1  UNL     1      22.250   7.403  10.659  1.00  0.00    -0.341 N 
ATOM     23  H12 UNL     1      23.021   6.859  11.046  1.00  0.00     0.177 HD
ATOM     24  H11 UNL     1      22.379   8.395  10.457  1.00  0.00     0.177 HD
ENDBRANCH   1  22
TORSDOF 3
ENDMDL
MODEL 4
REMARK VINA RESULT: -6.802119415      2.009      6.807
REMARK  3 active torsions:
REMARK  status: ('A' for Active; 'I' for Inactive)
REMARK    1  A    between atoms: N1_1  and  N2_4 
REMARK       I    between atoms: N2_4  and  C1_6 
REMARK       I    between atoms: C1_6  and  N3_8 
REMARK    2  A    between atoms: C3_10  and  C4_11 
REMARK    3  A    between atoms: N4_12  and  N5_14 
ROOT
HETATM    1  N2  UNL     1      15.408   3.027  17.109  1.00  0.00    -0.257 N 
ATOM      2  H2  UNL     1      15.675   2.043  17.085  1.00  0.00     0.191 HD
HETATM    3  C1  UNL     1      15.708   3.825  16.022  1.00  0.00     0.348 C 
HETATM    4  O1  UNL     1      15.331   5.063  16.138  1.00  0.00    -0.245 OA
HETATM    5  N3  UNL     1      16.354   3.505  14.818  1.00  0.00    -0.224 N 
HETATM    6  C2  UNL     1      16.543   4.478  13.870  1.00  0.00     0.125 A 
HETATM    7  C3  UNL     1      17.160   4.268  12.666  1.00  0.00     0.065 A 
HETATM    8  C6  UNL     1      17.608   2.983  12.424  1.00  0.00     0.262 A 
HETATM    9  O2  UNL     1      18.183   2.722  11.339  1.00  0.00    -0.267 OA
HETATM   10  N8  UNL     1      17.441   2.005  13.329  1.00  0.00    -0.274 N 
ATOM     11  H8  UNL     1      17.777   1.061  13.135  1.00  0.00     0.173 HD
HETATM   12  C7  UNL     1      16.808   2.288  14.525  1.00  0.00     0.337 A 
HETATM   13  O3  UNL     1      16.670   1.344  15.345  1.00  0.00    -0.246 OA
ENDROOT
BRANCH   7  14
HETATM   14  C4  UNL     1      17.340   5.331  11.688  1.00  0.00     0.125 C 
HETATM   15  N4  UNL     1      17.059   5.174  10.449  1.00  0.00    -0.309 N 
ATOM     16  H4  UNL     1      16.696   4.268  10.151  1.00  0.00     0.186 HD
BRANCH  15  17
HETATM   17  N5  UNL     1      17.215   6.152   9.494  1.00  0.00    -0.276 N 
HETATM   18  C5  UNL     1      18.221   6.330   8.740  1.00  0.00     0.215 C 
HETATM   19  N6  UNL     1      19.393   5.535   8.745  1.00  0.00    -0.065 NA
HETATM   20  N7  UNL     1      18.176   7.418   7.810  1.00  0.00    -0.065 NA
ATOM     21  H5  UNL     1      16.439   6.804   9.379  1.00  0.00     0.189 HD
ENDBRANCH  15  17
ENDBRANCH   7  14
BRANCH   1  22
HETATM   22  N1  UNL     1      14.738   3.531  18.264  1.00  0.00    -0.341 N 
ATOM     23  H12 UNL     1      13.940   4.150  18.119  1.00  0.00     0.177 HD
ATOM     24  H11 UNL     1      15.031   3.294  19.212  1.00  0.00     0.177 HD
ENDBRANCH   1  22
TORSDOF 3
ENDMDL
MODEL 5
REMARK VINA RESULT: -6.785061833      1.773      3.547
REMARK  3 active torsions:
REMARK  status: ('A' for Active; 'I' for Inactive)
REMARK    1  A    between atoms: N1_1  and  N2_4 
REMARK       I    between atoms: N2_4  and  C1_6 
REMARK       I    between atoms: C1_6  and  N3_8 
REMARK    2  A    between atoms: C3_10  and  C4_11 
REMARK    3  A    between atoms: N4_12  and  N5_14 
ROOT
HETATM    1  N2  UNL     1      18.330  -0.412  10.981  1.00  0.00    -0.257 N 
ATOM      2  H2  UNL     1      18.519   0.013  10.074  1.00  0.00     0.191 HD
HETATM    3  C1  UNL     1      17.841   0.382  12.000  1.00  0.00     0.348 C 
HETATM    4  O1  UNL     1      17.629  -0.243  13.120  1.00  0.00    -0.245 OA
HETATM    5  N3  UNL     1      17.537   1.752  12.011  1.00  0.00    -0.224 N 
HETATM    6  C2  UNL     1      17.055   2.331  13.156  1.00  0.00     0.125 A 
HETATM    7  C3  UNL     1      16.730   3.656  13.270  1.00  0.00     0.065 A 
HETATM    8  C6  UNL     1      16.912   4.429  12.138  1.00  0.00     0.262 A 
HETATM    9  O2  UNL     1      16.634   5.653  12.174  1.00  0.00    -0.267 OA
HETATM   10  N8  UNL     1      17.383   3.897  10.999  1.00  0.00    -0.274 N 
ATOM     11  H8  UNL     1      17.512   4.481  10.173  1.00  0.00     0.173 HD
HETATM   12  C7  UNL     1      17.691   2.550  10.956  1.00  0.00     0.337 A 
HETATM   13  O3  UNL     1      18.129   2.090   9.870  1.00  0.00    -0.246 OA
ENDROOT
BRANCH   7  14
HETATM   14  C4  UNL     1      16.220   4.230  14.506  1.00  0.00     0.125 C 
HETATM   15  N4  UNL     1      15.931   3.511  15.525  1.00  0.00    -0.309 N 
ATOM     16  H4  UNL     1      16.068   2.502  15.454  1.00  0.00     0.186 HD
BRANCH  15  17
HETATM   17  N5  UNL     1      15.446   4.014  16.711  1.00  0.00    -0.276 N 
HETATM   18  C5  UNL     1      15.400   3.419  17.832  1.00  0.00     0.215 C 
HETATM   19  N6  UNL     1      15.850   2.098  18.071  1.00  0.00    -0.065 NA
HETATM   20  N7  UNL     1      14.852   4.133  18.945  1.00  0.00    -0.065 NA
ATOM     21  H5  UNL     1      15.086   4.969  16.686  1.00  0.00     0.189 HD
ENDBRANCH  15  17
ENDBRANCH   7  14
BRANCH   1  22
HETATM   22  N1  UNL     1      18.582  -1.807  11.155  1.00  0.00    -0.341 N 
ATOM     23  H12 UNL     1      19.449  -2.080  11.619  1.00  0.00     0.177 HD
ATOM     24  H11 UNL     1      17.931  -2.523  10.832  1.00  0.00     0.177 HD
ENDBRANCH   1  22
TORSDOF 3
ENDMDL
