MODEL 1
REMARK VINA RESULT: -7.126554030      0.000      0.000
REMARK  9 active torsions:
REMARK  status: ('A' for Active; 'I' for Inactive)
REMARK    1  A    between atoms: C7_12  and  C8_13 
REMARK       I    between atoms: C8_13  and  N3_15 
REMARK    2  A    between atoms: N3_15  and  C9_17 
REMARK    3  A    between atoms: C10_20  and  O4_21 
REMARK    4  A    between atoms: N5_25  and  N6_26 
REMARK    5  A    between atoms: C12_29  and  C13_30 
REMARK    6  A    between atoms: C13_30  and  O6_31 
REMARK    7  A    between atoms: C13_30  and  C14_33 
REMARK    8  A    between atoms: C14_33  and  O7_34 
REMARK    9  A    between atoms: N7_36  and  O8_37 
ROOT
HETATM    1  C9  UNL     1      19.636   6.992  12.387  1.00  0.00     0.209 C 
HETATM    2  N4  UNL     1      19.299   8.373  12.342  1.00  0.00    -0.367 N 
ATOM      3  H4  UNL     1      19.436   8.979  13.150  1.00  0.00     0.158 HD
HETATM    4  C10 UNL     1      18.766   8.870  11.131  1.00  0.00     0.311 C 
HETATM    5  C11 UNL     1      18.976   8.001   9.951  1.00  0.00     0.286 C 
HETATM    6  O5  UNL     1      18.394   8.290   8.877  1.00  0.00    -0.267 OA
HETATM    7  N5  UNL     1      19.807   6.859   9.989  1.00  0.00    -0.253 N 
HETATM    8  C12 UNL     1      20.463   6.510  11.233  1.00  0.00     0.183 C 
ENDROOT
BRANCH   1   9
HETATM    9  N3  UNL     1      18.428   6.187  12.415  1.00  0.00    -0.336 N 
HETATM   10  C8  UNL     1      17.466   6.330  13.453  1.00  0.00     0.245 C 
HETATM   11  O3  UNL     1      17.693   7.179  14.358  1.00  0.00    -0.271 OA
ATOM     12  H3  UNL     1      18.265   5.505  11.674  1.00  0.00     0.164 HD
BRANCH  10  13
HETATM   13  C7  UNL     1      16.235   5.533  13.510  1.00  0.00     0.212 C 
HETATM   14  C6  UNL     1      15.263   6.036  14.554  1.00  0.00     0.086 C 
HETATM   15  C3  UNL     1      15.251   4.946  15.582  1.00  0.00     0.059 A 
HETATM   16  C2  UNL     1      15.956   3.878  15.101  1.00  0.00     0.146 A 
HETATM   17  C4  UNL     1      14.663   4.915  16.830  1.00  0.00     0.259 A 
HETATM   18  N1  UNL     1      16.046   2.789  15.914  1.00  0.00    -0.287 N 
HETATM   19  N7  UNL     1      16.458   4.148  13.808  1.00  0.00    -0.229 N 
HETATM   20  C1  UNL     1      16.774   1.647  15.451  1.00  0.00     0.163 C 
HETATM   21  C5  UNL     1      15.465   2.780  17.129  1.00  0.00     0.330 A 
HETATM   22  N2  UNL     1      14.773   3.826  17.603  1.00  0.00    -0.275 N 
HETATM   23  O2  UNL     1      15.563   1.760  17.864  1.00  0.00    -0.246 OA
ATOM     24  H2  UNL     1      14.342   3.794  18.527  1.00  0.00     0.173 HD
HETATM   25  O1  UNL     1      14.029   5.917  17.225  1.00  0.00    -0.267 OA
BRANCH  19  26
HETATM   26  O8  UNL     1      17.043   3.253  13.000  1.00  0.00    -0.285 OA
ATOM     27  H8  UNL     1      17.456   3.451  12.167  1.00  0.00     0.245 HD
ENDBRANCH  19  26
ENDBRANCH  10  13
ENDBRANCH   1   9
BRANCH   8  28
HETATM   28  C13 UNL     1      21.850   7.022  11.202  1.00  0.00     0.170 C 
BRANCH  28  29
HETATM   29  O6  UNL     1      22.189   7.544  12.464  1.00  0.00    -0.391 OA
ATOM     30  H6  UNL     1      22.367   8.474  12.386  1.00  0.00     0.210 HD
ENDBRANCH  28  29
BRANCH  28  31
HETATM   31  C14 UNL     1      22.886   5.981  10.858  1.00  0.00     0.198 C 
BRANCH  31  32
HETATM   32  O7  UNL     1      23.885   5.992  11.831  1.00  0.00    -0.398 OA
ATOM     33  H7  UNL     1      24.492   5.280  11.663  1.00  0.00     0.209 HD
ENDBRANCH  31  32
ENDBRANCH  28  31
ENDBRANCH   8  28
BRANCH   4  34
HETATM   34  O4  UNL     1      17.384   9.055  11.256  1.00  0.00    -0.368 OA
ATOM     35  H4  UNL     1      17.054   9.548  10.514  1.00  0.00     0.212 HD
ENDBRANCH   4  34
BRANCH   7  36
HETATM   36  N6  UNL     1      19.991   6.078   8.849  1.00  0.00    -0.340 N 
ATOM     37  H62 UNL     1      19.270   6.034   8.130  1.00  0.00     0.177 HD
ATOM     38  H61 UNL     1      20.850   5.544   8.720  1.00  0.00     0.177 HD
ENDBRANCH   7  36
TORSDOF 9
ENDMDL
MODEL 2
REMARK VINA RESULT: -6.894966870      3.483      7.219
REMARK  9 active torsions:
REMARK  status: ('A' for Active; 'I' for Inactive)
REMARK    1  A    between atoms: C7_12  and  C8_13 
REMARK       I    between atoms: C8_13  and  N3_15 
REMARK    2  A    between atoms: N3_15  and  C9_17 
REMARK    3  A    between atoms: C10_20  and  O4_21 
REMARK    4  A    between atoms: N5_25  and  N6_26 
REMARK    5  A    between atoms: C12_29  and  C13_30 
REMARK    6  A    between atoms: C13_30  and  O6_31 
REMARK    7  A    between atoms: C13_30  and  C14_33 
REMARK    8  A    between atoms: C14_33  and  O7_34 
REMARK    9  A    between atoms: N7_36  and  O8_37 
ROOT
HETATM    1  C9  UNL     1      16.797   6.072  12.794  1.00  0.00     0.209 C 
HETATM    2  N4  UNL     1      17.579   6.287  13.963  1.00  0.00    -0.367 N 
ATOM      3  H4  UNL     1      17.153   6.306  14.890  1.00  0.00     0.158 HD
HETATM    4  C10 UNL     1      18.969   6.473  13.788  1.00  0.00     0.311 C 
HETATM    5  C11 UNL     1      19.496   6.047  12.472  1.00  0.00     0.286 C 
HETATM    6  O5  UNL     1      20.683   6.329  12.177  1.00  0.00    -0.267 OA
HETATM    7  N5  UNL     1      18.713   5.334  11.536  1.00  0.00    -0.253 N 
HETATM    8  C12 UNL     1      17.336   5.026  11.864  1.00  0.00     0.183 C 
ENDROOT
BRANCH   1   9
HETATM    9  N3  UNL     1      16.688   7.305  12.037  1.00  0.00    -0.336 N 
HETATM   10  C8  UNL     1      15.599   8.200  12.231  1.00  0.00     0.245 C 
HETATM   11  O3  UNL     1      14.723   7.890  13.084  1.00  0.00    -0.271 OA
ATOM     12  H3  UNL     1      17.407   7.535  11.351  1.00  0.00     0.164 HD
BRANCH  10  13
HETATM   13  C7  UNL     1      15.459   9.454  11.483  1.00  0.00     0.212 C 
HETATM   14  C6  UNL     1      14.097   9.605  10.846  1.00  0.00     0.086 C 
HETATM   15  C3  UNL     1      14.379   9.512   9.377  1.00  0.00     0.059 A 
HETATM   16  C2  UNL     1      15.732   9.514   9.187  1.00  0.00     0.146 A 
HETATM   17  C4  UNL     1      13.504   9.433   8.313  1.00  0.00     0.259 A 
HETATM   18  N1  UNL     1      16.168   9.434   7.900  1.00  0.00    -0.287 N 
HETATM   19  N7  UNL     1      16.413   9.603  10.423  1.00  0.00    -0.229 N 
HETATM   20  C1  UNL     1      17.578   9.434   7.654  1.00  0.00     0.163 C 
HETATM   21  C5  UNL     1      15.297   9.358   6.875  1.00  0.00     0.330 A 
HETATM   22  N2  UNL     1      13.970   9.356   7.059  1.00  0.00    -0.275 N 
HETATM   23  O2  UNL     1      15.726   9.285   5.692  1.00  0.00    -0.246 OA
ATOM     24  H2  UNL     1      13.331   9.298   6.266  1.00  0.00     0.173 HD
HETATM   25  O1  UNL     1      12.274   9.435   8.539  1.00  0.00    -0.267 OA
BRANCH  19  26
HETATM   26  O8  UNL     1      17.731   9.795  10.570  1.00  0.00    -0.285 OA
ATOM     27  H8  UNL     1      18.367   9.119  10.773  1.00  0.00     0.245 HD
ENDBRANCH  19  26
ENDBRANCH  10  13
ENDBRANCH   1   9
BRANCH   8  28
HETATM   28  C13 UNL     1      17.265   3.640  12.373  1.00  0.00     0.170 C 
BRANCH  28  29
HETATM   29  O6  UNL     1      16.725   3.641  13.673  1.00  0.00    -0.391 OA
ATOM     30  H6  UNL     1      16.941   2.825  14.108  1.00  0.00     0.210 HD
ENDBRANCH  28  29
BRANCH  28  31
HETATM   31  C14 UNL     1      16.411   2.717  11.539  1.00  0.00     0.198 C 
BRANCH  31  32
HETATM   32  O7  UNL     1      15.322   3.429  11.038  1.00  0.00    -0.398 OA
ATOM     33  H7  UNL     1      15.516   3.711  10.151  1.00  0.00     0.209 HD
ENDBRANCH  31  32
ENDBRANCH  28  31
ENDBRANCH   8  28
BRANCH   4  34
HETATM   34  O4  UNL     1      19.293   7.827  13.933  1.00  0.00    -0.368 OA
ATOM     35  H4  UNL     1      19.526   8.011  14.836  1.00  0.00     0.212 HD
ENDBRANCH   4  34
BRANCH   7  36
HETATM   36  N6  UNL     1      19.256   4.936  10.315  1.00  0.00    -0.340 N 
ATOM     37  H62 UNL     1      20.261   4.797  10.217  1.00  0.00     0.177 HD
ATOM     38  H61 UNL     1      18.655   4.777   9.508  1.00  0.00     0.177 HD
ENDBRANCH   7  36
TORSDOF 9
ENDMDL
MODEL 3
REMARK VINA RESULT: -6.699235268      2.439      3.227
REMARK  9 active torsions:
REMARK  status: ('A' for Active; 'I' for Inactive)
REMARK    1  A    between atoms: C7_12  and  C8_13 
REMARK       I    between atoms: C8_13  and  N3_15 
REMARK    2  A    between atoms: N3_15  and  C9_17 
REMARK    3  A    between atoms: C10_20  and  O4_21 
REMARK    4  A    between atoms: N5_25  and  N6_26 
REMARK    5  A    between atoms: C12_29  and  C13_30 
REMARK    6  A    between atoms: C13_30  and  O6_31 
REMARK    7  A    between atoms: C13_30  and  C14_33 
REMARK    8  A    between atoms: C14_33  and  O7_34 
REMARK    9  A    between atoms: N7_36  and  O8_37 
ROOT
HETATM    1  C9  UNL     1      19.998   4.831  10.010  1.00  0.00     0.209 C 
HETATM    2  N4  UNL     1      20.894   4.869  11.115  1.00  0.00    -0.367 N 
ATOM      3  H4  UNL     1      21.515   4.087  11.321  1.00  0.00     0.158 HD
HETATM    4  C10 UNL     1      20.887   6.034  11.914  1.00  0.00     0.311 C 
HETATM    5  C11 UNL     1      20.240   7.213  11.297  1.00  0.00     0.286 C 
HETATM    6  O5  UNL     1      20.047   8.234  12.001  1.00  0.00    -0.267 OA
HETATM    7  N5  UNL     1      19.830   7.232   9.945  1.00  0.00    -0.253 N 
HETATM    8  C12 UNL     1      20.031   6.047   9.135  1.00  0.00     0.183 C 
ENDROOT
BRANCH   1   9
HETATM    9  N3  UNL     1      18.634   4.679  10.483  1.00  0.00    -0.336 N 
HETATM   10  C8  UNL     1      18.179   3.459  11.054  1.00  0.00     0.245 C 
HETATM   11  O3  UNL     1      18.998   2.503  11.139  1.00  0.00    -0.271 OA
ATOM     12  H3  UNL     1      17.988   5.464  10.403  1.00  0.00     0.164 HD
BRANCH  10  13
HETATM   13  C7  UNL     1      16.808   3.273  11.543  1.00  0.00     0.212 C 
HETATM   14  C6  UNL     1      16.113   4.581  11.842  1.00  0.00     0.086 C 
HETATM   15  C3  UNL     1      15.958   4.569  13.333  1.00  0.00     0.059 A 
HETATM   16  C2  UNL     1      16.325   3.340  13.804  1.00  0.00     0.146 A 
HETATM   17  C4  UNL     1      15.529   5.566  14.185  1.00  0.00     0.259 A 
HETATM   18  N1  UNL     1      16.246   3.153  15.150  1.00  0.00    -0.287 N 
HETATM   19  N7  UNL     1      16.724   2.494  12.744  1.00  0.00    -0.229 N 
HETATM   20  C1  UNL     1      16.619   1.880  15.688  1.00  0.00     0.163 C 
HETATM   21  C5  UNL     1      15.824   4.139  15.964  1.00  0.00     0.330 A 
HETATM   22  N2  UNL     1      15.464   5.345  15.505  1.00  0.00    -0.275 N 
HETATM   23  O2  UNL     1      15.759   3.942  17.208  1.00  0.00    -0.246 OA
ATOM     24  H2  UNL     1      15.147   6.076  16.143  1.00  0.00     0.173 HD
HETATM   25  O1  UNL     1      15.204   6.674  13.705  1.00  0.00    -0.267 OA
BRANCH  19  26
HETATM   26  O8  UNL     1      16.980   1.183  12.852  1.00  0.00    -0.285 OA
ATOM     27  H8  UNL     1      17.641   0.795  13.413  1.00  0.00     0.245 HD
ENDBRANCH  19  26
ENDBRANCH  10  13
ENDBRANCH   1   9
BRANCH   8  28
HETATM   28  C13 UNL     1      21.269   6.214   8.343  1.00  0.00     0.170 C 
BRANCH  28  29
HETATM   29  O6  UNL     1      22.221   5.262   8.750  1.00  0.00    -0.391 OA
ATOM     30  H6  UNL     1      21.778   4.490   9.083  1.00  0.00     0.210 HD
ENDBRANCH  28  29
BRANCH  28  31
HETATM   31  C14 UNL     1      21.080   6.047   6.856  1.00  0.00     0.198 C 
BRANCH  31  32
HETATM   32  O7  UNL     1      21.546   4.790   6.474  1.00  0.00    -0.398 OA
ATOM     33  H7  UNL     1      20.861   4.335   5.996  1.00  0.00     0.209 HD
ENDBRANCH  31  32
ENDBRANCH  28  31
ENDBRANCH   8  28
BRANCH   4  34
HETATM   34  O4  UNL     1      20.214   5.786  13.116  1.00  0.00    -0.368 OA
ATOM     35  H4  UNL     1      20.044   6.604  13.568  1.00  0.00     0.212 HD
ENDBRANCH   4  34
BRANCH   7  36
HETATM   36  N6  UNL     1      19.240   8.371   9.398  1.00  0.00    -0.340 N 
ATOM     37  H62 UNL     1      18.901   9.119  10.003  1.00  0.00     0.177 HD
ATOM     38  H61 UNL     1      19.143   8.471   8.388  1.00  0.00     0.177 HD
ENDBRANCH   7  36
TORSDOF 9
ENDMDL
MODEL 4
REMARK VINA RESULT: -6.634518458      2.375      3.710
REMARK  9 active torsions:
REMARK  status: ('A' for Active; 'I' for Inactive)
REMARK    1  A    between atoms: C7_12  and  C8_13 
REMARK       I    between atoms: C8_13  and  N3_15 
REMARK    2  A    between atoms: N3_15  and  C9_17 
REMARK    3  A    between atoms: C10_20  and  O4_21 
REMARK    4  A    between atoms: N5_25  and  N6_26 
REMARK    5  A    between atoms: C12_29  and  C13_30 
REMARK    6  A    between atoms: C13_30  and  O6_31 
REMARK    7  A    between atoms: C13_30  and  C14_33 
REMARK    8  A    between atoms: C14_33  and  O7_34 
REMARK    9  A    between atoms: N7_36  and  O8_37 
ROOT
HETATM    1  C9  UNL     1      20.155   7.172   9.760  1.00  0.00     0.209 C 
HETATM    2  N4  UNL     1      21.155   6.647  10.626  1.00  0.00    -0.367 N 
ATOM      3  H4  UNL     1      21.733   5.854  10.349  1.00  0.00     0.158 HD
HETATM    4  C10 UNL     1      21.313   7.270  11.884  1.00  0.00     0.311 C 
HETATM    5  C11 UNL     1      20.698   8.611  12.001  1.00  0.00     0.286 C 
HETATM    6  O5  UNL     1      20.651   9.158  13.129  1.00  0.00    -0.267 OA
HETATM    7  N5  UNL     1      20.161   9.299  10.889  1.00  0.00    -0.253 N 
HETATM    8  C12 UNL     1      20.194   8.661   9.588  1.00  0.00     0.183 C 
ENDROOT
BRANCH   1   9
HETATM    9  N3  UNL     1      18.836   6.831  10.261  1.00  0.00    -0.336 N 
HETATM   10  C8  UNL     1      18.339   5.501  10.195  1.00  0.00     0.245 C 
HETATM   11  O3  UNL     1      19.080   4.616   9.683  1.00  0.00    -0.271 OA
ATOM     12  H3  UNL     1      18.253   7.562  10.669  1.00  0.00     0.164 HD
BRANCH  10  13
HETATM   13  C7  UNL     1      17.012   5.123  10.693  1.00  0.00     0.212 C 
HETATM   14  C6  UNL     1      16.672   5.786  12.008  1.00  0.00     0.086 C 
HETATM   15  C3  UNL     1      16.652   4.649  12.985  1.00  0.00     0.059 A 
HETATM   16  C2  UNL     1      16.762   3.474  12.295  1.00  0.00     0.146 A 
HETATM   17  C4  UNL     1      16.546   4.667  14.360  1.00  0.00     0.259 A 
HETATM   18  N1  UNL     1      16.760   2.330  13.033  1.00  0.00    -0.287 N 
HETATM   19  N7  UNL     1      16.855   3.713  10.905  1.00  0.00    -0.229 N 
HETATM   20  C1  UNL     1      16.872   1.075  12.353  1.00  0.00     0.163 C 
HETATM   21  C5  UNL     1      16.656   2.370  14.376  1.00  0.00     0.330 A 
HETATM   22  N2  UNL     1      16.549   3.521  15.054  1.00  0.00    -0.275 N 
HETATM   23  O2  UNL     1      16.658   1.297  15.038  1.00  0.00    -0.246 OA
ATOM     24  H2  UNL     1      16.471   3.524  16.071  1.00  0.00     0.173 HD
HETATM   25  O1  UNL     1      16.449   5.768  14.945  1.00  0.00    -0.267 OA
BRANCH  19  26
HETATM   26  O8  UNL     1      16.805   2.774   9.951  1.00  0.00    -0.285 OA
ATOM     27  H8  UNL     1      17.204   2.840   9.091  1.00  0.00     0.245 HD
ENDBRANCH  19  26
ENDBRANCH  10  13
ENDBRANCH   1   9
BRANCH   8  28
HETATM   28  C13 UNL     1      21.357   9.173   8.833  1.00  0.00     0.170 C 
BRANCH  28  29
HETATM   29  O6  UNL     1      22.076   8.095   8.285  1.00  0.00    -0.391 OA
ATOM     30  H6  UNL     1      23.008   8.261   8.363  1.00  0.00     0.210 HD
ENDBRANCH  28  29
BRANCH  28  31
HETATM   31  C14 UNL     1      21.000  10.095   7.694  1.00  0.00     0.198 C 
BRANCH  31  32
HETATM   32  O7  UNL     1      19.683  10.526   7.849  1.00  0.00    -0.398 OA
ATOM     33  H7  UNL     1      19.624  11.073   8.623  1.00  0.00     0.209 HD
ENDBRANCH  31  32
ENDBRANCH  28  31
ENDBRANCH   8  28
BRANCH   4  34
HETATM   34  O4  UNL     1      20.743   6.476  12.887  1.00  0.00    -0.368 OA
ATOM     35  H4  UNL     1      21.141   6.677  13.725  1.00  0.00     0.212 HD
ENDBRANCH   4  34
BRANCH   7  36
HETATM   36  N6  UNL     1      19.608  10.569  11.040  1.00  0.00    -0.340 N 
ATOM     37  H62 UNL     1      18.857  10.730  11.711  1.00  0.00     0.177 HD
ATOM     38  H61 UNL     1      19.948  11.353  10.483  1.00  0.00     0.177 HD
ENDBRANCH   7  36
TORSDOF 9
ENDMDL
MODEL 5
REMARK VINA RESULT: -6.628744239      2.247      7.060
REMARK  9 active torsions:
REMARK  status: ('A' for Active; 'I' for Inactive)
REMARK    1  A    between atoms: C7_12  and  C8_13 
REMARK       I    between atoms: C8_13  and  N3_15 
REMARK    2  A    between atoms: N3_15  and  C9_17 
REMARK    3  A    between atoms: C10_20  and  O4_21 
REMARK    4  A    between atoms: N5_25  and  N6_26 
REMARK    5  A    between atoms: C12_29  and  C13_30 
REMARK    6  A    between atoms: C13_30  and  O6_31 
REMARK    7  A    between atoms: C13_30  and  C14_33 
REMARK    8  A    between atoms: C14_33  and  O7_34 
REMARK    9  A    between atoms: N7_36  and  O8_37 
ROOT
HETATM    1  C9  UNL     1      15.363   4.553  14.153  1.00  0.00     0.209 C 
HETATM    2  N4  UNL     1      14.495   5.645  14.434  1.00  0.00    -0.367 N 
ATOM      3  H4  UNL     1      13.490   5.509  14.544  1.00  0.00     0.158 HD
HETATM    4  C10 UNL     1      15.082   6.924  14.553  1.00  0.00     0.311 C 
HETATM    5  C11 UNL     1      16.549   6.924  14.751  1.00  0.00     0.286 C 
HETATM    6  O5  UNL     1      17.165   8.016  14.702  1.00  0.00    -0.267 OA
HETATM    7  N5  UNL     1      17.281   5.740  14.994  1.00  0.00    -0.253 N 
HETATM    8  C12 UNL     1      16.576   4.475  15.030  1.00  0.00     0.183 C 
ENDROOT
BRANCH   1   9
HETATM    9  N3  UNL     1      15.829   4.631  12.780  1.00  0.00    -0.336 N 
HETATM   10  C8  UNL     1      16.741   3.675  12.252  1.00  0.00     0.245 C 
HETATM   11  O3  UNL     1      17.138   2.751  13.013  1.00  0.00    -0.271 OA
ATOM     12  H3  UNL     1      15.496   5.387  12.183  1.00  0.00     0.164 HD
BRANCH  10  13
HETATM   13  C7  UNL     1      17.230   3.725  10.870  1.00  0.00     0.212 C 
HETATM   14  C6  UNL     1      18.714   3.454  10.766  1.00  0.00     0.086 C 
HETATM   15  C3  UNL     1      19.287   4.770  10.335  1.00  0.00     0.059 A 
HETATM   16  C2  UNL     1      18.260   5.620  10.034  1.00  0.00     0.146 A 
HETATM   17  C4  UNL     1      20.603   5.167  10.223  1.00  0.00     0.259 A 
HETATM   18  N1  UNL     1      18.603   6.871   9.621  1.00  0.00    -0.287 N 
HETATM   19  N7  UNL     1      17.010   4.987  10.225  1.00  0.00    -0.229 N 
HETATM   20  C1  UNL     1      17.560   7.795   9.294  1.00  0.00     0.163 C 
HETATM   21  C5  UNL     1      19.896   7.238   9.519  1.00  0.00     0.330 A 
HETATM   22  N2  UNL     1      20.904   6.406   9.813  1.00  0.00    -0.275 N 
HETATM   23  O2  UNL     1      20.189   8.403   9.134  1.00  0.00    -0.246 OA
ATOM     24  H2  UNL     1      21.875   6.708   9.727  1.00  0.00     0.173 HD
HETATM   25  O1  UNL     1      21.507   4.351  10.510  1.00  0.00    -0.267 OA
BRANCH  19  26
HETATM   26  O8  UNL     1      15.822   5.489   9.861  1.00  0.00    -0.285 OA
ATOM     27  H8  UNL     1      15.102   4.989   9.497  1.00  0.00     0.245 HD
ENDBRANCH  19  26
ENDBRANCH  10  13
ENDBRANCH   1   9
BRANCH   8  28
HETATM   28  C13 UNL     1      16.306   4.118  16.440  1.00  0.00     0.170 C 
BRANCH  28  29
HETATM   29  O6  UNL     1      15.033   4.590  16.811  1.00  0.00    -0.391 OA
ATOM     30  H6  UNL     1      14.816   5.359  16.297  1.00  0.00     0.210 HD
ENDBRANCH  28  29
BRANCH  28  31
HETATM   31  C14 UNL     1      16.330   2.636  16.720  1.00  0.00     0.198 C 
BRANCH  31  32
HETATM   32  O7  UNL     1      17.388   2.056  16.023  1.00  0.00    -0.398 OA
ATOM     33  H7  UNL     1      17.831   1.434  16.590  1.00  0.00     0.209 HD
ENDBRANCH  31  32
ENDBRANCH  28  31
ENDBRANCH   8  28
BRANCH   4  34
HETATM   34  O4  UNL     1      14.831   7.677  13.400  1.00  0.00    -0.368 OA
ATOM     35  H4  UNL     1      15.638   7.812  12.918  1.00  0.00     0.212 HD
ENDBRANCH   4  34
BRANCH   7  36
HETATM   36  N6  UNL     1      18.660   5.787  15.194  1.00  0.00    -0.340 N 
ATOM     37  H62 UNL     1      19.057   6.382  15.921  1.00  0.00     0.177 HD
ATOM     38  H61 UNL     1      19.287   5.227  14.618  1.00  0.00     0.177 HD
ENDBRANCH   7  36
TORSDOF 9
ENDMDL
