MODEL 1
REMARK VINA RESULT: -7.952326218      0.000      0.000
REMARK  11 active torsions:
REMARK  status: ('A' for Active; 'I' for Inactive)
REMARK    1  A    between atoms: N3_11  and  C6_12 
REMARK    2  A    between atoms: C7_14  and  C8_15 
REMARK    3  A    between atoms: C8_15  and  N4_16 
REMARK       I    between atoms: N4_16  and  C9_18 
REMARK    4  A    between atoms: C9_18  and  C10_20 
REMARK    5  A    between atoms: C10_20  and  N5_21 
REMARK    6  A    between atoms: C11_25  and  O5_26 
REMARK    7  A    between atoms: C11_25  and  O6_28 
REMARK    8  A    between atoms: C12_30  and  O7_31 
REMARK    9  A    between atoms: C12_30  and  C13_33 
REMARK   10  A    between atoms: C13_33  and  O8_34 
REMARK   11  A    between atoms: C13_33  and  O9_36 
ROOT
HETATM    1  C6  UNL     1      16.807   4.962  12.261  1.00  0.00     0.277 C 
HETATM    2  O3  UNL     1      16.464   6.164  11.698  1.00  0.00    -0.350 OA
HETATM    3  C7  UNL     1      17.012   6.016  10.407  1.00  0.00     0.207 C 
HETATM    4  C11 UNL     1      18.389   5.485  10.670  1.00  0.00     0.229 C 
HETATM    5  C12 UNL     1      18.280   4.936  12.113  1.00  0.00     0.210 C 
ENDROOT
BRANCH   1   6
HETATM    6  N3  UNL     1      16.283   4.803  13.580  1.00  0.00    -0.274 N 
HETATM    7  C3  UNL     1      16.298   3.649  14.466  1.00  0.00     0.141 A 
HETATM    8  C2  UNL     1      15.649   4.330  15.438  1.00  0.00     0.140 A 
HETATM    9  C4  UNL     1      16.637   2.332  14.727  1.00  0.00     0.279 A 
HETATM   10  N1  UNL     1      15.335   3.745  16.641  1.00  0.00    -0.297 N 
HETATM   11  C14 UNL     1      15.612   5.505  14.585  1.00  0.00     0.280 A 
HETATM   12  C1  UNL     1      14.643   4.497  17.655  1.00  0.00     0.161 C 
HETATM   13  C5  UNL     1      15.667   2.470  16.884  1.00  0.00     0.329 A 
HETATM   14  N2  UNL     1      16.312   1.795  15.916  1.00  0.00    -0.273 N 
HETATM   15  O2  UNL     1      15.375   1.937  17.993  1.00  0.00    -0.246 OA
ATOM     16  H2  UNL     1      16.568   0.823  16.094  1.00  0.00     0.173 HD
HETATM   17  O10 UNL     1      15.147   6.638  14.761  1.00  0.00    -0.265 OA
HETATM   18  O1  UNL     1      17.235   1.683  13.852  1.00  0.00    -0.265 OA
ENDBRANCH   1   6
BRANCH   5  19
HETATM   19  O7  UNL     1      18.711   3.628  12.131  1.00  0.00    -0.376 OA
ATOM     20  H7  UNL     1      19.625   3.599  11.877  1.00  0.00     0.211 HD
ENDBRANCH   5  19
BRANCH   5  21
HETATM   21  C13 UNL     1      19.105   5.740  13.037  1.00  0.00     0.298 C 
BRANCH  21  22
HETATM   22  O8  UNL     1      20.457   5.361  12.784  1.00  0.00    -0.368 OA
ATOM     23  H8  UNL     1      20.995   6.057  13.144  1.00  0.00     0.212 HD
ENDBRANCH  21  22
BRANCH  21  24
HETATM   24  O9  UNL     1      19.103   7.108  12.734  1.00  0.00    -0.368 OA
ATOM     25  H9  UNL     1      18.661   7.636  13.388  1.00  0.00     0.212 HD
ENDBRANCH  21  24
ENDBRANCH   5  21
BRANCH   3  26
HETATM   26  C8  UNL     1      17.009   7.339   9.717  1.00  0.00     0.160 C 
BRANCH  26  27
HETATM   27  N4  UNL     1      16.061   7.456   8.655  1.00  0.00    -0.357 N 
HETATM   28  C9  UNL     1      14.762   7.966   8.882  1.00  0.00     0.243 C 
HETATM   29  O4  UNL     1      14.386   8.337  10.005  1.00  0.00    -0.272 OA
ATOM     30  H4  UNL     1      16.327   7.166   7.715  1.00  0.00     0.162 HD
BRANCH  28  31
HETATM   31  C10 UNL     1      13.817   8.064   7.748  1.00  0.00     0.331 C 
BRANCH  31  32
HETATM   32  N5  UNL     1      14.411   7.582   6.518  1.00  0.00    -0.071 N 
ATOM     33  H53 UNL     1      14.428   8.308   5.802  1.00  0.00     0.274 HD
ATOM     34  H52 UNL     1      15.416   7.438   6.621  1.00  0.00     0.274 HD
ATOM     35  H51 UNL     1      13.945   6.739   6.184  1.00  0.00     0.274 HD
ENDBRANCH  31  32
ENDBRANCH  28  31
ENDBRANCH  26  27
ENDBRANCH   3  26
BRANCH   4  36
HETATM   36  O5  UNL     1      18.611   4.402   9.806  1.00  0.00    -0.361 OA
ATOM     37  H5  UNL     1      17.883   3.798   9.896  1.00  0.00     0.213 HD
ENDBRANCH   4  36
BRANCH   4  38
HETATM   38  O6  UNL     1      19.361   6.452  10.578  1.00  0.00    -0.361 OA
ATOM     39  H6  UNL     1      20.236   6.090  10.501  1.00  0.00     0.213 HD
ENDBRANCH   4  38
TORSDOF 11
ENDMDL
MODEL 2
REMARK VINA RESULT: -7.894773729      2.980      7.292
REMARK  11 active torsions:
REMARK  status: ('A' for Active; 'I' for Inactive)
REMARK    1  A    between atoms: N3_11  and  C6_12 
REMARK    2  A    between atoms: C7_14  and  C8_15 
REMARK    3  A    between atoms: C8_15  and  N4_16 
REMARK       I    between atoms: N4_16  and  C9_18 
REMARK    4  A    between atoms: C9_18  and  C10_20 
REMARK    5  A    between atoms: C10_20  and  N5_21 
REMARK    6  A    between atoms: C11_25  and  O5_26 
REMARK    7  A    between atoms: C11_25  and  O6_28 
REMARK    8  A    between atoms: C12_30  and  O7_31 
REMARK    9  A    between atoms: C12_30  and  C13_33 
REMARK   10  A    between atoms: C13_33  and  O8_34 
REMARK   11  A    between atoms: C13_33  and  O9_36 
ROOT
HETATM    1  C6  UNL     1      18.815   4.219  11.230  1.00  0.00     0.277 C 
HETATM    2  O3  UNL     1      18.406   3.685  12.425  1.00  0.00    -0.350 OA
HETATM    3  C7  UNL     1      17.510   2.693  11.978  1.00  0.00     0.207 C 
HETATM    4  C11 UNL     1      16.676   3.409  10.959  1.00  0.00     0.229 C 
HETATM    5  C12 UNL     1      17.541   4.642  10.605  1.00  0.00     0.210 C 
ENDROOT
BRANCH   1   6
HETATM    6  N3  UNL     1      19.824   5.217  11.390  1.00  0.00    -0.274 N 
HETATM    7  C3  UNL     1      20.785   5.746  10.433  1.00  0.00     0.141 A 
HETATM    8  C2  UNL     1      21.300   6.594  11.351  1.00  0.00     0.140 A 
HETATM    9  C4  UNL     1      21.336   5.767   9.164  1.00  0.00     0.279 A 
HETATM   10  N1  UNL     1      22.333   7.448  11.044  1.00  0.00    -0.297 N 
HETATM   11  C14 UNL     1      20.359   6.094  12.338  1.00  0.00     0.280 A 
HETATM   12  C1  UNL     1      22.860   8.338  12.045  1.00  0.00     0.161 C 
HETATM   13  C5  UNL     1      22.860   7.461   9.813  1.00  0.00     0.329 A 
HETATM   14  N2  UNL     1      22.346   6.616   8.901  1.00  0.00    -0.273 N 
HETATM   15  O2  UNL     1      23.810   8.249   9.537  1.00  0.00    -0.246 OA
ATOM     16  H2  UNL     1      22.742   6.620   7.962  1.00  0.00     0.173 HD
HETATM   17  O10 UNL     1      20.175   6.385  13.526  1.00  0.00    -0.265 OA
HETATM   18  O1  UNL     1      20.881   4.999   8.300  1.00  0.00    -0.265 OA
ENDBRANCH   1   6
BRANCH   5  19
HETATM   19  O7  UNL     1      17.708   4.698   9.239  1.00  0.00    -0.376 OA
ATOM     20  H7  UNL     1      16.934   4.345   8.817  1.00  0.00     0.211 HD
ENDBRANCH   5  19
BRANCH   5  21
HETATM   21  C13 UNL     1      16.893   5.883  11.074  1.00  0.00     0.298 C 
BRANCH  21  22
HETATM   22  O8  UNL     1      15.824   6.134  10.162  1.00  0.00    -0.368 OA
ATOM     23  H8  UNL     1      15.838   7.070   9.996  1.00  0.00     0.212 HD
ENDBRANCH  21  22
BRANCH  21  24
HETATM   24  O9  UNL     1      16.229   5.732  12.298  1.00  0.00    -0.368 OA
ATOM     25  H9  UNL     1      15.320   5.472  12.202  1.00  0.00     0.212 HD
ENDBRANCH  21  24
ENDBRANCH   5  21
BRANCH   3  26
HETATM   26  C8  UNL     1      16.722   2.184  13.138  1.00  0.00     0.160 C 
BRANCH  26  27
HETATM   27  N4  UNL     1      16.644   3.083  14.246  1.00  0.00    -0.357 N 
HETATM   28  C9  UNL     1      16.345   2.621  15.548  1.00  0.00     0.243 C 
HETATM   29  O4  UNL     1      16.140   1.421  15.791  1.00  0.00    -0.272 OA
ATOM     30  H4  UNL     1      16.807   4.078  14.094  1.00  0.00     0.162 HD
BRANCH  28  31
HETATM   31  C10 UNL     1      16.273   3.593  16.660  1.00  0.00     0.331 C 
BRANCH  31  32
HETATM   32  N5  UNL     1      15.374   3.143  17.702  1.00  0.00    -0.071 N 
ATOM     33  H53 UNL     1      15.191   3.881  18.382  1.00  0.00     0.274 HD
ATOM     34  H52 UNL     1      14.426   3.016  17.347  1.00  0.00     0.274 HD
ATOM     35  H51 UNL     1      15.720   2.297  18.154  1.00  0.00     0.274 HD
ENDBRANCH  31  32
ENDBRANCH  28  31
ENDBRANCH  26  27
ENDBRANCH   3  26
BRANCH   4  36
HETATM   36  O5  UNL     1      16.586   2.596   9.820  1.00  0.00    -0.361 OA
ATOM     37  H5  UNL     1      15.755   2.774   9.395  1.00  0.00     0.213 HD
ENDBRANCH   4  36
BRANCH   4  38
HETATM   38  O6  UNL     1      15.447   3.787  11.446  1.00  0.00    -0.361 OA
ATOM     39  H6  UNL     1      15.178   4.647  11.143  1.00  0.00     0.213 HD
ENDBRANCH   4  38
TORSDOF 11
ENDMDL
MODEL 3
REMARK VINA RESULT: -7.765549771      2.454      4.202
REMARK  11 active torsions:
REMARK  status: ('A' for Active; 'I' for Inactive)
REMARK    1  A    between atoms: N3_11  and  C6_12 
REMARK    2  A    between atoms: C7_14  and  C8_15 
REMARK    3  A    between atoms: C8_15  and  N4_16 
REMARK       I    between atoms: N4_16  and  C9_18 
REMARK    4  A    between atoms: C9_18  and  C10_20 
REMARK    5  A    between atoms: C10_20  and  N5_21 
REMARK    6  A    between atoms: C11_25  and  O5_26 
REMARK    7  A    between atoms: C11_25  and  O6_28 
REMARK    8  A    between atoms: C12_30  and  O7_31 
REMARK    9  A    between atoms: C12_30  and  C13_33 
REMARK   10  A    between atoms: C13_33  and  O8_34 
REMARK   11  A    between atoms: C13_33  and  O9_36 
ROOT
HETATM    1  C6  UNL     1      18.005   5.447  12.764  1.00  0.00     0.277 C 
HETATM    2  O3  UNL     1      18.413   4.183  12.419  1.00  0.00    -0.350 OA
HETATM    3  C7  UNL     1      19.396   4.478  11.452  1.00  0.00     0.207 C 
HETATM    4  C11 UNL     1      18.731   5.499  10.578  1.00  0.00     0.229 C 
HETATM    5  C12 UNL     1      17.576   6.020  11.467  1.00  0.00     0.210 C 
ENDROOT
BRANCH   1   6
HETATM    6  N3  UNL     1      17.047   5.446  13.823  1.00  0.00    -0.274 N 
HETATM    7  C3  UNL     1      16.493   4.340  14.590  1.00  0.00     0.141 A 
HETATM    8  C2  UNL     1      15.735   5.177  15.334  1.00  0.00     0.140 A 
HETATM    9  C4  UNL     1      16.406   2.986  14.864  1.00  0.00     0.279 A 
HETATM   10  N1  UNL     1      14.908   4.710  16.327  1.00  0.00    -0.297 N 
HETATM   11  C14 UNL     1      16.263   6.309  14.593  1.00  0.00     0.280 A 
HETATM   12  C1  UNL     1      14.113   5.626  17.101  1.00  0.00     0.161 C 
HETATM   13  C5  UNL     1      14.830   3.397  16.585  1.00  0.00     0.329 A 
HETATM   14  N2  UNL     1      15.585   2.567  15.843  1.00  0.00    -0.273 N 
HETATM   15  O2  UNL     1      14.066   2.973  17.499  1.00  0.00    -0.246 OA
ATOM     16  H2  UNL     1      15.531   1.566  16.034  1.00  0.00     0.173 HD
HETATM   17  O10 UNL     1      16.045   7.524  14.676  1.00  0.00    -0.265 OA
HETATM   18  O1  UNL     1      17.092   2.195  14.197  1.00  0.00    -0.265 OA
ENDBRANCH   1   6
BRANCH   5  19
HETATM   19  O7  UNL     1      17.647   7.393  11.538  1.00  0.00    -0.376 OA
ATOM     20  H7  UNL     1      16.767   7.749  11.565  1.00  0.00     0.211 HD
ENDBRANCH   5  19
BRANCH   5  21
HETATM   21  C13 UNL     1      16.269   5.622  10.907  1.00  0.00     0.298 C 
BRANCH  21  22
HETATM   22  O8  UNL     1      16.051   6.472   9.782  1.00  0.00    -0.368 OA
ATOM     23  H8  UNL     1      15.590   5.943   9.142  1.00  0.00     0.212 HD
ENDBRANCH  21  22
BRANCH  21  24
HETATM   24  O9  UNL     1      16.279   4.343  10.334  1.00  0.00    -0.368 OA
ATOM     25  H9  UNL     1      15.716   3.725  10.786  1.00  0.00     0.212 HD
ENDBRANCH  21  24
ENDBRANCH   5  21
BRANCH   3  26
HETATM   26  C8  UNL     1      19.763   3.227  10.728  1.00  0.00     0.160 C 
BRANCH  26  27
HETATM   27  N4  UNL     1      19.243   2.029  11.306  1.00  0.00    -0.357 N 
HETATM   28  C9  UNL     1      18.109   1.381  10.764  1.00  0.00     0.243 C 
HETATM   29  O4  UNL     1      17.517   1.818   9.764  1.00  0.00    -0.272 OA
ATOM     30  H4  UNL     1      19.699   1.632  12.128  1.00  0.00     0.162 HD
BRANCH  28  31
HETATM   31  C10 UNL     1      17.609   0.145  11.402  1.00  0.00     0.331 C 
BRANCH  31  32
HETATM   32  N5  UNL     1      18.570  -0.934  11.296  1.00  0.00    -0.071 N 
ATOM     33  H53 UNL     1      19.506  -0.582  11.095  1.00  0.00     0.274 HD
ATOM     34  H52 UNL     1      18.753  -1.360  12.205  1.00  0.00     0.274 HD
ATOM     35  H51 UNL     1      18.278  -1.629  10.609  1.00  0.00     0.274 HD
ENDBRANCH  31  32
ENDBRANCH  28  31
ENDBRANCH  26  27
ENDBRANCH   3  26
BRANCH   4  36
HETATM   36  O5  UNL     1      19.634   6.552  10.372  1.00  0.00    -0.361 OA
ATOM     37  H5  UNL     1      20.515   6.210  10.476  1.00  0.00     0.213 HD
ENDBRANCH   4  36
BRANCH   4  38
HETATM   38  O6  UNL     1      18.253   4.966   9.404  1.00  0.00    -0.361 OA
ATOM     39  H6  UNL     1      17.612   5.524   8.980  1.00  0.00     0.213 HD
ENDBRANCH   4  38
TORSDOF 11
ENDMDL
MODEL 4
REMARK VINA RESULT: -7.756001078      2.714      6.557
REMARK  11 active torsions:
REMARK  status: ('A' for Active; 'I' for Inactive)
REMARK    1  A    between atoms: N3_11  and  C6_12 
REMARK    2  A    between atoms: C7_14  and  C8_15 
REMARK    3  A    between atoms: C8_15  and  N4_16 
REMARK       I    between atoms: N4_16  and  C9_18 
REMARK    4  A    between atoms: C9_18  and  C10_20 
REMARK    5  A    between atoms: C10_20  and  N5_21 
REMARK    6  A    between atoms: C11_25  and  O5_26 
REMARK    7  A    between atoms: C11_25  and  O6_28 
REMARK    8  A    between atoms: C12_30  and  O7_31 
REMARK    9  A    between atoms: C12_30  and  C13_33 
REMARK   10  A    between atoms: C13_33  and  O8_34 
REMARK   11  A    between atoms: C13_33  and  O9_36 
ROOT
HETATM    1  C6  UNL     1      19.238   5.079  11.808  1.00  0.00     0.277 C 
HETATM    2  O3  UNL     1      18.323   4.595  12.707  1.00  0.00    -0.350 OA
HETATM    3  C7  UNL     1      18.070   3.319  12.165  1.00  0.00     0.207 C 
HETATM    4  C11 UNL     1      17.866   3.594  10.705  1.00  0.00     0.229 C 
HETATM    5  C12 UNL     1      18.515   4.986  10.519  1.00  0.00     0.210 C 
ENDROOT
BRANCH   1   6
HETATM    6  N3  UNL     1      19.747   6.362  12.177  1.00  0.00    -0.274 N 
HETATM    7  C3  UNL     1      19.200   7.369  13.074  1.00  0.00     0.141 A 
HETATM    8  C2  UNL     1      20.252   8.192  12.864  1.00  0.00     0.140 A 
HETATM    9  C4  UNL     1      18.210   7.806  13.936  1.00  0.00     0.279 A 
HETATM   10  N1  UNL     1      20.343   9.417  13.481  1.00  0.00    -0.297 N 
HETATM   11  C14 UNL     1      20.834   7.214  11.961  1.00  0.00     0.280 A 
HETATM   12  C1  UNL     1      21.477  10.270  13.237  1.00  0.00     0.161 C 
HETATM   13  C5  UNL     1      19.380   9.831  14.314  1.00  0.00     0.329 A 
HETATM   14  N2  UNL     1      18.334   9.011  14.520  1.00  0.00    -0.273 N 
HETATM   15  O2  UNL     1      19.469  10.960  14.878  1.00  0.00    -0.246 OA
ATOM     16  H2  UNL     1      17.596   9.320  15.153  1.00  0.00     0.173 HD
HETATM   17  O10 UNL     1      21.881   7.218  11.303  1.00  0.00    -0.265 OA
HETATM   18  O1  UNL     1      17.231   7.070  14.147  1.00  0.00    -0.265 OA
ENDBRANCH   1   6
BRANCH   5  19
HETATM   19  O7  UNL     1      19.431   4.922   9.493  1.00  0.00    -0.376 OA
ATOM     20  H7  UNL     1      20.113   4.303   9.724  1.00  0.00     0.211 HD
ENDBRANCH   5  19
BRANCH   5  21
HETATM   21  C13 UNL     1      17.488   5.999  10.201  1.00  0.00     0.298 C 
BRANCH  21  22
HETATM   22  O8  UNL     1      17.121   5.769   8.841  1.00  0.00    -0.368 OA
ATOM     23  H8  UNL     1      17.893   5.972   8.325  1.00  0.00     0.212 HD
ENDBRANCH  21  22
BRANCH  21  24
HETATM   24  O9  UNL     1      16.283   5.800  10.887  1.00  0.00    -0.368 OA
ATOM     25  H9  UNL     1      16.262   6.221  11.739  1.00  0.00     0.212 HD
ENDBRANCH  21  24
ENDBRANCH   5  21
BRANCH   3  26
HETATM   26  C8  UNL     1      16.871   2.731  12.830  1.00  0.00     0.160 C 
BRANCH  26  27
HETATM   27  N4  UNL     1      16.554   3.303  14.100  1.00  0.00    -0.357 N 
HETATM   28  C9  UNL     1      16.386   2.496  15.249  1.00  0.00     0.243 C 
HETATM   29  O4  UNL     1      16.507   1.262  15.211  1.00  0.00    -0.272 OA
ATOM     30  H4  UNL     1      16.447   4.314  14.180  1.00  0.00     0.162 HD
BRANCH  28  31
HETATM   31  C10 UNL     1      16.056   3.138  16.540  1.00  0.00     0.331 C 
BRANCH  31  32
HETATM   32  N5  UNL     1      15.468   2.193  17.468  1.00  0.00    -0.071 N 
ATOM     33  H53 UNL     1      15.537   2.523  18.430  1.00  0.00     0.274 HD
ATOM     34  H52 UNL     1      14.452   2.169  17.381  1.00  0.00     0.274 HD
ATOM     35  H51 UNL     1      15.874   1.264  17.362  1.00  0.00     0.274 HD
ENDBRANCH  31  32
ENDBRANCH  28  31
ENDBRANCH  26  27
ENDBRANCH   3  26
BRANCH   4  36
HETATM   36  O5  UNL     1      18.617   2.659   9.977  1.00  0.00    -0.361 OA
ATOM     37  H5  UNL     1      18.298   2.658   9.081  1.00  0.00     0.213 HD
ENDBRANCH   4  36
BRANCH   4  38
HETATM   38  O6  UNL     1      16.539   3.611  10.346  1.00  0.00    -0.361 OA
ATOM     39  H6  UNL     1      15.954   3.524  11.089  1.00  0.00     0.213 HD
ENDBRANCH   4  38
TORSDOF 11
ENDMDL
MODEL 5
REMARK VINA RESULT: -7.569214136      1.215      1.552
REMARK  11 active torsions:
REMARK  status: ('A' for Active; 'I' for Inactive)
REMARK    1  A    between atoms: N3_11  and  C6_12 
REMARK    2  A    between atoms: C7_14  and  C8_15 
REMARK    3  A    between atoms: C8_15  and  N4_16 
REMARK       I    between atoms: N4_16  and  C9_18 
REMARK    4  A    between atoms: C9_18  and  C10_20 
REMARK    5  A    between atoms: C10_20  and  N5_21 
REMARK    6  A    between atoms: C11_25  and  O5_26 
REMARK    7  A    between atoms: C11_25  and  O6_28 
REMARK    8  A    between atoms: C12_30  and  O7_31 
REMARK    9  A    between atoms: C12_30  and  C13_33 
REMARK   10  A    between atoms: C13_33  and  O8_34 
REMARK   11  A    between atoms: C13_33  and  O9_36 
ROOT
HETATM    1  C6  UNL     1      16.813   4.959  12.125  1.00  0.00     0.277 C 
HETATM    2  O3  UNL     1      16.259   6.021  11.455  1.00  0.00    -0.350 OA
HETATM    3  C7  UNL     1      16.866   5.879  10.190  1.00  0.00     0.207 C 
HETATM    4  C11 UNL     1      18.311   5.653  10.518  1.00  0.00     0.229 C 
HETATM    5  C12 UNL     1      18.266   5.213  12.001  1.00  0.00     0.210 C 
ENDROOT
BRANCH   1   6
HETATM    6  N3  UNL     1      16.288   4.808  13.444  1.00  0.00    -0.274 N 
HETATM    7  C3  UNL     1      16.317   3.664  14.343  1.00  0.00     0.141 A 
HETATM    8  C2  UNL     1      15.657   4.347  15.306  1.00  0.00     0.140 A 
HETATM    9  C4  UNL     1      16.672   2.355  14.618  1.00  0.00     0.279 A 
HETATM   10  N1  UNL     1      15.349   3.771  16.515  1.00  0.00    -0.297 N 
HETATM   11  C14 UNL     1      15.607   5.512  14.441  1.00  0.00     0.280 A 
HETATM   12  C1  UNL     1      14.646   4.524  17.520  1.00  0.00     0.161 C 
HETATM   13  C5  UNL     1      15.697   2.503  16.773  1.00  0.00     0.329 A 
HETATM   14  N2  UNL     1      16.352   1.826  15.813  1.00  0.00    -0.273 N 
HETATM   15  O2  UNL     1      15.409   1.978  17.887  1.00  0.00    -0.246 OA
ATOM     16  H2  UNL     1      16.620   0.860  16.001  1.00  0.00     0.173 HD
HETATM   17  O10 UNL     1      15.127   6.641  14.603  1.00  0.00    -0.265 OA
HETATM   18  O1  UNL     1      17.279   1.704  13.752  1.00  0.00    -0.265 OA
ENDBRANCH   1   6
BRANCH   5  19
HETATM   19  O7  UNL     1      18.943   4.022  12.138  1.00  0.00    -0.376 OA
ATOM     20  H7  UNL     1      19.315   3.778  11.299  1.00  0.00     0.211 HD
ENDBRANCH   5  19
BRANCH   5  21
HETATM   21  C13 UNL     1      18.889   6.236  12.865  1.00  0.00     0.298 C 
BRANCH  21  22
HETATM   22  O8  UNL     1      17.934   7.291  12.972  1.00  0.00    -0.368 OA
ATOM     23  H8  UNL     1      17.945   7.561  13.884  1.00  0.00     0.212 HD
ENDBRANCH  21  22
BRANCH  21  24
HETATM   24  O9  UNL     1      19.042   5.819  14.194  1.00  0.00    -0.368 OA
ATOM     25  H9  UNL     1      18.324   6.086  14.756  1.00  0.00     0.212 HD
ENDBRANCH  21  24
ENDBRANCH   5  21
BRANCH   3  26
HETATM   26  C8  UNL     1      16.626   7.115   9.389  1.00  0.00     0.160 C 
BRANCH  26  27
HETATM   27  N4  UNL     1      16.276   8.266  10.160  1.00  0.00    -0.357 N 
HETATM   28  C9  UNL     1      14.964   8.793  10.140  1.00  0.00     0.243 C 
HETATM   29  O4  UNL     1      14.060   8.284   9.459  1.00  0.00    -0.272 OA
ATOM     30  H4  UNL     1      16.986   8.716  10.736  1.00  0.00     0.162 HD
BRANCH  28  31
HETATM   31  C10 UNL     1      14.654   9.988  10.954  1.00  0.00     0.331 C 
BRANCH  31  32
HETATM   32  N5  UNL     1      13.545   9.744  11.854  1.00  0.00    -0.071 N 
ATOM     33  H53 UNL     1      13.870   9.493  12.788  1.00  0.00     0.274 HD
ATOM     34  H52 UNL     1      13.055  10.609  12.084  1.00  0.00     0.274 HD
ATOM     35  H51 UNL     1      12.908   9.041  11.480  1.00  0.00     0.274 HD
ENDBRANCH  31  32
ENDBRANCH  28  31
ENDBRANCH  26  27
ENDBRANCH   3  26
BRANCH   4  36
HETATM   36  O5  UNL     1      18.767   4.569   9.753  1.00  0.00    -0.361 OA
ATOM     37  H5  UNL     1      19.369   4.064  10.287  1.00  0.00     0.213 HD
ENDBRANCH   4  36
BRANCH   4  38
HETATM   38  O6  UNL     1      19.078   6.782  10.357  1.00  0.00    -0.361 OA
ATOM     39  H6  UNL     1      19.407   7.125  11.180  1.00  0.00     0.213 HD
ENDBRANCH   4  38
TORSDOF 11
ENDMDL
