MODEL 1
REMARK VINA RESULT: -7.590546065      0.000      0.000
REMARK  3 active torsions:
REMARK  status: ('A' for Active; 'I' for Inactive)
REMARK    1  A    between atoms: C3_4  and  N2_5 
REMARK       I    between atoms: N2_5  and  C4_7 
REMARK       I    between atoms: C4_7  and  N3_9 
REMARK    2  A    between atoms: N4_12  and  C7_13 
REMARK    3  A    between atoms: C13_23  and  S1_24 
ROOT
HETATM    1  N2  UNL     1      17.856   5.040  13.411  1.00  0.00    -0.305 N 
ATOM      2  H2  UNL     1      17.227   5.507  14.063  1.00  0.00     0.171 HD
HETATM    3  C4  UNL     1      19.043   5.681  13.026  1.00  0.00     0.323 C 
HETATM    4  O1  UNL     1      19.835   5.094  12.206  1.00  0.00    -0.247 OA
HETATM    5  N3  UNL     1      19.461   6.952  13.473  1.00  0.00    -0.331 N 
HETATM    6  C5  UNL     1      18.672   7.708  14.395  1.00  0.00     0.148 C 
HETATM    7  C6  UNL     1      18.297   9.061  13.807  1.00  0.00     0.161 C 
HETATM    8  N4  UNL     1      19.545   9.668  13.371  1.00  0.00    -0.214 N 
HETATM    9  C11 UNL     1      20.578   8.973  12.651  1.00  0.00     0.161 C 
HETATM   10  C12 UNL     1      20.696   7.510  12.999  1.00  0.00     0.148 C 
ENDROOT
BRANCH   1  11
HETATM   11  C3  UNL     1      17.511   3.760  12.914  1.00  0.00     0.094 A 
HETATM   12  C2  UNL     1      17.567   3.187  11.670  1.00  0.00     0.142 A 
HETATM   13  N1  UNL     1      17.107   1.893  11.710  1.00  0.00    -0.304 N 
HETATM   14  C1  UNL     1      17.044   1.025  10.547  1.00  0.00     0.177 C 
HETATM   15  N7  UNL     1      16.775   1.674  12.943  1.00  0.00    -0.286 N 
HETATM   16  C13 UNL     1      16.984   2.728  13.716  1.00  0.00     0.187 A 
ATOM     17  H7  UNL     1      16.395   0.789  13.280  1.00  0.00     0.188 HD
BRANCH  16  18
HETATM   18  S1  UNL     1      16.660   2.807  15.412  1.00  0.00     0.307 S 
HETATM   19  O2  UNL     1      17.955   3.417  16.282  1.00  0.00    -0.204 OA
HETATM   20  O3  UNL     1      16.171   1.312  15.962  1.00  0.00    -0.204 OA
ENDBRANCH  16  18
ENDBRANCH   1  11
BRANCH   8  21
HETATM   21  C7  UNL     1      19.747  11.046  13.682  1.00  0.00     0.679 A 
HETATM   22  N5  UNL     1      19.074  12.030  13.054  1.00  0.00    -0.202 N 
HETATM   23  C8  UNL     1      19.246  13.334  13.330  1.00  0.00     0.107 A 
ATOM     24  H5  UNL     1      18.400  11.772  12.332  1.00  0.00     0.183 HD
HETATM   25  C9  UNL     1      20.148  13.706  14.297  1.00  0.00     0.035 A 
HETATM   26  C10 UNL     1      20.850  12.712  14.956  1.00  0.00     0.107 A 
HETATM   27  N6  UNL     1      20.623  11.430  14.625  1.00  0.00    -0.202 N 
ATOM     28  H6  UNL     1      21.146  10.706  15.118  1.00  0.00     0.183 HD
ENDBRANCH   8  21
TORSDOF 3
ENDMDL
MODEL 2
REMARK VINA RESULT: -7.473502076      5.062      7.808
REMARK  3 active torsions:
REMARK  status: ('A' for Active; 'I' for Inactive)
REMARK    1  A    between atoms: C3_4  and  N2_5 
REMARK       I    between atoms: N2_5  and  C4_7 
REMARK       I    between atoms: C4_7  and  N3_9 
REMARK    2  A    between atoms: N4_12  and  C7_13 
REMARK    3  A    between atoms: C13_23  and  S1_24 
ROOT
HETATM    1  N2  UNL     1      19.783   5.759  10.973  1.00  0.00    -0.305 N 
ATOM      2  H2  UNL     1      19.483   6.573  11.511  1.00  0.00     0.171 HD
HETATM    3  C4  UNL     1      19.118   4.537  11.153  1.00  0.00     0.323 C 
HETATM    4  O1  UNL     1      19.494   3.514  10.479  1.00  0.00    -0.247 OA
HETATM    5  N3  UNL     1      18.038   4.323  12.036  1.00  0.00    -0.331 N 
HETATM    6  C5  UNL     1      17.519   5.383  12.841  1.00  0.00     0.148 C 
HETATM    7  C6  UNL     1      17.594   5.030  14.320  1.00  0.00     0.161 C 
HETATM    8  N4  UNL     1      16.945   3.735  14.455  1.00  0.00    -0.214 N 
HETATM    9  C11 UNL     1      17.157   2.624  13.567  1.00  0.00     0.161 C 
HETATM   10  C12 UNL     1      17.445   3.019  12.140  1.00  0.00     0.148 C 
ENDROOT
BRANCH   1  11
HETATM   11  C3  UNL     1      20.860   5.890  10.065  1.00  0.00     0.094 A 
HETATM   12  C2  UNL     1      22.193   5.578  10.134  1.00  0.00     0.142 A 
HETATM   13  N1  UNL     1      22.830   5.905   8.962  1.00  0.00    -0.304 N 
HETATM   14  C1  UNL     1      24.248   5.695   8.730  1.00  0.00     0.177 C 
HETATM   15  N7  UNL     1      21.916   6.405   8.190  1.00  0.00    -0.286 N 
HETATM   16  C13 UNL     1      20.727   6.430   8.769  1.00  0.00     0.187 A 
ATOM     17  H7  UNL     1      22.095   6.742   7.244  1.00  0.00     0.188 HD
BRANCH  16  18
HETATM   18  S1  UNL     1      19.273   7.025   8.048  1.00  0.00     0.307 S 
HETATM   19  O2  UNL     1      17.903   6.289   8.670  1.00  0.00    -0.204 OA
HETATM   20  O3  UNL     1      19.371   6.890   6.390  1.00  0.00    -0.204 OA
ENDBRANCH  16  18
ENDBRANCH   1  11
BRANCH   8  21
HETATM   21  C7  UNL     1      16.041   3.567  15.546  1.00  0.00     0.679 A 
HETATM   22  N5  UNL     1      16.034   2.455  16.308  1.00  0.00    -0.202 N 
HETATM   23  C8  UNL     1      15.193   2.273  17.341  1.00  0.00     0.107 A 
ATOM     24  H5  UNL     1      16.700   1.713  16.089  1.00  0.00     0.183 HD
HETATM   25  C9  UNL     1      14.287   3.258  17.654  1.00  0.00     0.035 A 
HETATM   26  C10 UNL     1      14.277   4.409  16.885  1.00  0.00     0.107 A 
HETATM   27  N6  UNL     1      15.149   4.517  15.869  1.00  0.00    -0.202 N 
ATOM     28  H6  UNL     1      15.132   5.370  15.310  1.00  0.00     0.183 HD
ENDBRANCH   8  21
TORSDOF 3
ENDMDL
MODEL 3
REMARK VINA RESULT: -7.345477426      2.556      3.105
REMARK  3 active torsions:
REMARK  status: ('A' for Active; 'I' for Inactive)
REMARK    1  A    between atoms: C3_4  and  N2_5 
REMARK       I    between atoms: N2_5  and  C4_7 
REMARK       I    between atoms: C4_7  and  N3_9 
REMARK    2  A    between atoms: N4_12  and  C7_13 
REMARK    3  A    between atoms: C13_23  and  S1_24 
ROOT
HETATM    1  N2  UNL     1      16.393   4.686  12.671  1.00  0.00    -0.305 N 
ATOM      2  H2  UNL     1      15.424   5.001  12.628  1.00  0.00     0.171 HD
HETATM    3  C4  UNL     1      17.423   5.639  12.681  1.00  0.00     0.323 C 
HETATM    4  O1  UNL     1      18.641   5.245  12.735  1.00  0.00    -0.247 OA
HETATM    5  N3  UNL     1      17.235   7.037  12.635  1.00  0.00    -0.331 N 
HETATM    6  C5  UNL     1      15.926   7.607  12.579  1.00  0.00     0.148 C 
HETATM    7  C6  UNL     1      15.763   8.475  11.339  1.00  0.00     0.161 C 
HETATM    8  N4  UNL     1      16.877   9.410  11.357  1.00  0.00    -0.214 N 
HETATM    9  C11 UNL     1      18.237   9.048  11.655  1.00  0.00     0.161 C 
HETATM   10  C12 UNL     1      18.373   7.914  12.640  1.00  0.00     0.148 C 
ENDROOT
BRANCH   1  11
HETATM   11  C3  UNL     1      16.668   3.299  12.720  1.00  0.00     0.094 A 
HETATM   12  C2  UNL     1      16.909   2.353  11.758  1.00  0.00     0.142 A 
HETATM   13  N1  UNL     1      17.125   1.123  12.329  1.00  0.00    -0.304 N 
HETATM   14  C1  UNL     1      17.408  -0.081  11.567  1.00  0.00     0.177 C 
HETATM   15  N7  UNL     1      17.020   1.304  13.608  1.00  0.00    -0.286 N 
HETATM   16  C13 UNL     1      16.751   2.561  13.919  1.00  0.00     0.187 A 
ATOM     17  H7  UNL     1      17.131   0.560  14.298  1.00  0.00     0.188 HD
BRANCH  16  18
HETATM   18  S1  UNL     1      16.541   3.176  15.520  1.00  0.00     0.307 S 
HETATM   19  O2  UNL     1      17.969   3.175  16.398  1.00  0.00    -0.204 OA
HETATM   20  O3  UNL     1      15.321   2.340  16.288  1.00  0.00    -0.204 OA
ENDBRANCH  16  18
ENDBRANCH   1  11
BRANCH   8  21
HETATM   21  C7  UNL     1      16.591  10.775  11.055  1.00  0.00     0.679 A 
HETATM   22  N5  UNL     1      17.537  11.734  11.097  1.00  0.00    -0.202 N 
HETATM   23  C8  UNL     1      17.291  13.025  10.817  1.00  0.00     0.107 A 
ATOM     24  H5  UNL     1      18.487  11.466  11.356  1.00  0.00     0.183 HD
HETATM   25  C9  UNL     1      16.020  13.410  10.467  1.00  0.00     0.035 A 
HETATM   26  C10 UNL     1      15.032  12.441  10.416  1.00  0.00     0.107 A 
HETATM   27  N6  UNL     1      15.355  11.171  10.710  1.00  0.00    -0.202 N 
ATOM     28  H6  UNL     1      14.619  10.466  10.669  1.00  0.00     0.183 HD
ENDBRANCH   8  21
TORSDOF 3
ENDMDL
MODEL 4
REMARK VINA RESULT: -7.149108991      5.153      7.479
REMARK  3 active torsions:
REMARK  status: ('A' for Active; 'I' for Inactive)
REMARK    1  A    between atoms: C3_4  and  N2_5 
REMARK       I    between atoms: N2_5  and  C4_7 
REMARK       I    between atoms: C4_7  and  N3_9 
REMARK    2  A    between atoms: N4_12  and  C7_13 
REMARK    3  A    between atoms: C13_23  and  S1_24 
ROOT
HETATM    1  N2  UNL     1      19.906   5.639  10.208  1.00  0.00    -0.305 N 
ATOM      2  H2  UNL     1      19.522   6.508  10.578  1.00  0.00     0.171 HD
HETATM    3  C4  UNL     1      19.333   4.418  10.594  1.00  0.00     0.323 C 
HETATM    4  O1  UNL     1      19.814   3.325  10.129  1.00  0.00    -0.247 OA
HETATM    5  N3  UNL     1      18.240   4.277  11.476  1.00  0.00    -0.331 N 
HETATM    6  C5  UNL     1      17.607   5.419  12.058  1.00  0.00     0.148 C 
HETATM    7  C6  UNL     1      17.652   5.348  13.578  1.00  0.00     0.161 C 
HETATM    8  N4  UNL     1      17.102   4.049  13.935  1.00  0.00    -0.214 N 
HETATM    9  C11 UNL     1      17.436   2.817  13.273  1.00  0.00     0.161 C 
HETATM   10  C12 UNL     1      17.747   2.969  11.805  1.00  0.00     0.148 C 
ENDROOT
BRANCH   1  11
HETATM   11  C3  UNL     1      21.004   5.692   9.316  1.00  0.00     0.094 A 
HETATM   12  C2  UNL     1      21.123   5.543   7.959  1.00  0.00     0.142 A 
HETATM   13  N1  UNL     1      22.431   5.690   7.566  1.00  0.00    -0.304 N 
HETATM   14  C1  UNL     1      22.874   5.586   6.188  1.00  0.00     0.177 C 
HETATM   15  N7  UNL     1      23.101   5.922   8.651  1.00  0.00    -0.286 N 
HETATM   16  C13 UNL     1      22.330   5.940   9.726  1.00  0.00     0.187 A 
ATOM     17  H7  UNL     1      24.110   6.074   8.673  1.00  0.00     0.188 HD
BRANCH  16  18
HETATM   18  S1  UNL     1      22.871   6.218  11.344  1.00  0.00     0.307 S 
HETATM   19  O2  UNL     1      21.961   7.384  12.130  1.00  0.00    -0.204 OA
HETATM   20  O3  UNL     1      24.499   6.576  11.339  1.00  0.00    -0.204 OA
ENDBRANCH  16  18
ENDBRANCH   1  11
BRANCH   8  21
HETATM   21  C7  UNL     1      16.173   4.007  15.017  1.00  0.00     0.679 A 
HETATM   22  N5  UNL     1      15.353   5.038  15.300  1.00  0.00    -0.202 N 
HETATM   23  C8  UNL     1      14.469   5.021  16.313  1.00  0.00     0.107 A 
ATOM     24  H5  UNL     1      15.405   5.873  14.716  1.00  0.00     0.183 HD
HETATM   25  C9  UNL     1      14.381   3.908  17.112  1.00  0.00     0.035 A 
HETATM   26  C10 UNL     1      15.214   2.836  16.840  1.00  0.00     0.107 A 
HETATM   27  N6  UNL     1      16.071   2.928  15.810  1.00  0.00    -0.202 N 
ATOM     28  H6  UNL     1      16.679   2.132  15.619  1.00  0.00     0.183 HD
ENDBRANCH   8  21
TORSDOF 3
ENDMDL
MODEL 5
REMARK VINA RESULT: -7.132155911      1.175      1.421
REMARK  3 active torsions:
REMARK  status: ('A' for Active; 'I' for Inactive)
REMARK    1  A    between atoms: C3_4  and  N2_5 
REMARK       I    between atoms: N2_5  and  C4_7 
REMARK       I    between atoms: C4_7  and  N3_9 
REMARK    2  A    between atoms: N4_12  and  C7_13 
REMARK    3  A    between atoms: C13_23  and  S1_24 
ROOT
HETATM    1  N2  UNL     1      18.591   4.658  12.688  1.00  0.00    -0.305 N 
ATOM      2  H2  UNL     1      19.462   4.696  13.218  1.00  0.00     0.171 HD
HETATM    3  C4  UNL     1      18.070   5.841  12.141  1.00  0.00     0.323 C 
HETATM    4  O1  UNL     1      16.977   5.794  11.474  1.00  0.00    -0.247 OA
HETATM    5  N3  UNL     1      18.659   7.117  12.259  1.00  0.00    -0.331 N 
HETATM    6  C5  UNL     1      19.884   7.305  12.971  1.00  0.00     0.148 C 
HETATM    7  C6  UNL     1      19.704   8.301  14.109  1.00  0.00     0.161 C 
HETATM    8  N4  UNL     1      19.113   9.488  13.511  1.00  0.00    -0.214 N 
HETATM    9  C11 UNL     1      18.032   9.467  12.563  1.00  0.00     0.161 C 
HETATM   10  C12 UNL     1      18.024   8.259  11.661  1.00  0.00     0.148 C 
ENDROOT
BRANCH   1  11
HETATM   11  C3  UNL     1      17.936   3.414  12.522  1.00  0.00     0.094 A 
HETATM   12  C2  UNL     1      17.828   2.540  11.472  1.00  0.00     0.142 A 
HETATM   13  N1  UNL     1      17.069   1.451  11.823  1.00  0.00    -0.304 N 
HETATM   14  C1  UNL     1      16.774   0.351  10.922  1.00  0.00     0.177 C 
HETATM   15  N7  UNL     1      16.718   1.647  13.055  1.00  0.00    -0.286 N 
HETATM   16  C13 UNL     1      17.191   2.784  13.539  1.00  0.00     0.187 A 
ATOM     17  H7  UNL     1      16.141   0.998  13.591  1.00  0.00     0.188 HD
BRANCH  16  18
HETATM   18  S1  UNL     1      16.929   3.377  15.141  1.00  0.00     0.307 S 
HETATM   19  O2  UNL     1      17.499   4.940  15.344  1.00  0.00    -0.204 OA
HETATM   20  O3  UNL     1      17.578   2.314  16.248  1.00  0.00    -0.204 OA
ENDBRANCH  16  18
ENDBRANCH   1  11
BRANCH   8  21
HETATM   21  C7  UNL     1      19.648  10.752  13.901  1.00  0.00     0.679 A 
HETATM   22  N5  UNL     1      19.284  11.902  13.300  1.00  0.00    -0.202 N 
HETATM   23  C8  UNL     1      19.773  13.104  13.649  1.00  0.00     0.107 A 
ATOM     24  H5  UNL     1      18.603  11.858  12.542  1.00  0.00     0.183 HD
HETATM   25  C9  UNL     1      20.692  13.189  14.668  1.00  0.00     0.035 A 
HETATM   26  C10 UNL     1      21.080  12.020  15.299  1.00  0.00     0.107 A 
HETATM   27  N6  UNL     1      20.546  10.856  14.894  1.00  0.00    -0.202 N 
ATOM     28  H6  UNL     1      20.840  10.002  15.367  1.00  0.00     0.183 HD
ENDBRANCH   8  21
TORSDOF 3
ENDMDL
