MODEL 1
REMARK VINA RESULT: -7.782399992      0.000      0.000
REMARK  4 active torsions:
REMARK  status: ('A' for Active; 'I' for Inactive)
REMARK    1  A    between atoms: N1_4  and  C4_5 
REMARK    2  A    between atoms: C5_8  and  N3_9 
REMARK    3  A    between atoms: N3_9  and  N4_11 
REMARK    4  A    between atoms: C10_19  and  N6_20 
ROOT
HETATM    1  C4  UNL     1      18.858   5.212  12.744  1.00  0.00     0.709 A 
HETATM    2  N2  UNL     1      18.198   5.574  13.857  1.00  0.00    -0.020 N 
ATOM      3  H2  UNL     1      18.508   6.378  14.404  1.00  0.00     0.203 HD
HETATM    4  C5  UNL     1      17.135   4.870  14.236  1.00  0.00     0.725 A 
HETATM    5  N5  UNL     1      16.750   3.820  13.501  1.00  0.00    -0.020 N 
ATOM      6  H5  UNL     1      15.934   3.285  13.799  1.00  0.00     0.203 HD
HETATM    7  C10 UNL     1      17.398   3.441  12.381  1.00  0.00     0.709 A 
HETATM    8  N7  UNL     1      18.467   4.164  12.016  1.00  0.00    -0.021 N 
ATOM      9  H7  UNL     1      18.985   3.911  11.175  1.00  0.00     0.203 HD
ENDROOT
BRANCH   4  10
HETATM   10  N3  UNL     1      16.503   5.223  15.309  1.00  0.00    -0.133 N 
ATOM     11  H3  UNL     1      16.487   6.214  15.549  1.00  0.00     0.205 HD
BRANCH  10  12
HETATM   12  N4  UNL     1      15.853   4.347  16.146  1.00  0.00    -0.310 N 
HETATM   13  C6  UNL     1      14.440   4.446  16.377  1.00  0.00     0.169 C 
HETATM   14  C7  UNL     1      14.012   3.323  17.301  1.00  0.00     0.189 C 
HETATM   15  O1  UNL     1      14.503   2.099  16.959  1.00  0.00    -0.388 OA
HETATM   16  C8  UNL     1      15.810   2.017  16.582  1.00  0.00     0.189 C 
HETATM   17  C9  UNL     1      16.575   3.303  16.816  1.00  0.00     0.169 C 
ENDBRANCH  10  12
ENDBRANCH   4  10
BRANCH   1  18
HETATM   18  N1  UNL     1      19.982   6.005  12.394  1.00  0.00    -0.217 N 
HETATM   19  C3  UNL     1      20.279   7.164  13.204  1.00  0.00     0.141 C 
HETATM   20  C2  UNL     1      20.956   8.174  12.268  1.00  0.00     0.020 C 
HETATM   21  C1  UNL     1      22.264   7.581  11.852  1.00  0.00     0.003 C 
HETATM   22  C16 UNL     1      22.169   6.194  11.300  1.00  0.00     0.020 C 
HETATM   23  C15 UNL     1      20.776   5.638  11.268  1.00  0.00     0.141 C 
ENDBRANCH   1  18
BRANCH   7  24
HETATM   24  N6  UNL     1      16.929   2.323  11.660  1.00  0.00    -0.213 N 
HETATM   25  C11 UNL     1      17.218   0.958  12.008  1.00  0.00     0.167 C 
HETATM   26  C12 UNL     1      18.029   0.373  10.850  1.00  0.00     0.188 C 
HETATM   27  O2  UNL     1      17.651   0.891   9.648  1.00  0.00    -0.388 OA
HETATM   28  C13 UNL     1      16.378   1.377   9.543  1.00  0.00     0.188 C 
HETATM   29  C14 UNL     1      16.105   2.531  10.489  1.00  0.00     0.167 C 
ENDBRANCH   7  24
TORSDOF 4
ENDMDL
MODEL 2
REMARK VINA RESULT: -7.732808239      2.019      5.241
REMARK  4 active torsions:
REMARK  status: ('A' for Active; 'I' for Inactive)
REMARK    1  A    between atoms: N1_4  and  C4_5 
REMARK    2  A    between atoms: C5_8  and  N3_9 
REMARK    3  A    between atoms: N3_9  and  N4_11 
REMARK    4  A    between atoms: C10_19  and  N6_20 
ROOT
HETATM    1  C4  UNL     1      17.179   6.545  13.574  1.00  0.00     0.709 A 
HETATM    2  N2  UNL     1      17.031   5.851  12.433  1.00  0.00    -0.020 N 
ATOM      3  H2  UNL     1      17.343   6.244  11.544  1.00  0.00     0.203 HD
HETATM    4  C5  UNL     1      16.472   4.645  12.478  1.00  0.00     0.725 A 
HETATM    5  N5  UNL     1      16.070   4.153  13.657  1.00  0.00    -0.020 N 
ATOM      6  H5  UNL     1      15.642   3.228  13.683  1.00  0.00     0.203 HD
HETATM    7  C10 UNL     1      16.210   4.834  14.813  1.00  0.00     0.709 A 
HETATM    8  N7  UNL     1      16.777   6.047  14.745  1.00  0.00    -0.021 N 
ATOM      9  H7  UNL     1      16.902   6.594  15.597  1.00  0.00     0.203 HD
ENDROOT
BRANCH   4  10
HETATM   10  N3  UNL     1      16.331   3.981  11.376  1.00  0.00    -0.133 N 
ATOM     11  H3  UNL     1      15.646   4.319  10.700  1.00  0.00     0.205 HD
BRANCH  10  12
HETATM   12  N4  UNL     1      17.045   2.849  11.059  1.00  0.00    -0.310 N 
HETATM   13  C6  UNL     1      18.464   2.782  11.261  1.00  0.00     0.169 C 
HETATM   14  C7  UNL     1      18.953   1.403  10.864  1.00  0.00     0.189 C 
HETATM   15  O1  UNL     1      18.204   0.379  11.360  1.00  0.00    -0.388 OA
HETATM   16  C8  UNL     1      16.847   0.501  11.320  1.00  0.00     0.189 C 
HETATM   17  C9  UNL     1      16.384   1.697  10.514  1.00  0.00     0.169 C 
ENDBRANCH  10  12
ENDBRANCH   4  10
BRANCH   1  18
HETATM   18  N1  UNL     1      17.784   7.824  13.458  1.00  0.00    -0.217 N 
HETATM   19  C3  UNL     1      18.922   8.119  14.298  1.00  0.00     0.141 C 
HETATM   20  C2  UNL     1      18.889   9.634  14.541  1.00  0.00     0.020 C 
HETATM   21  C1  UNL     1      19.131  10.296  13.222  1.00  0.00     0.003 C 
HETATM   22  C16 UNL     1      18.237   9.828  12.119  1.00  0.00     0.020 C 
HETATM   23  C15 UNL     1      17.257   8.767  12.529  1.00  0.00     0.141 C 
ENDBRANCH   1  18
BRANCH   7  24
HETATM   24  N6  UNL     1      15.764   4.247  16.015  1.00  0.00    -0.213 N 
HETATM   25  C11 UNL     1      16.548   3.343  16.813  1.00  0.00     0.167 C 
HETATM   26  C12 UNL     1      15.812   2.002  16.807  1.00  0.00     0.188 C 
HETATM   27  O2  UNL     1      14.459   2.162  16.769  1.00  0.00    -0.388 OA
HETATM   28  C13 UNL     1      13.949   3.331  17.259  1.00  0.00     0.188 C 
HETATM   29  C14 UNL     1      14.436   4.552  16.502  1.00  0.00     0.167 C 
ENDBRANCH   7  24
TORSDOF 4
ENDMDL
MODEL 3
REMARK VINA RESULT: -7.732443457      2.600      7.047
REMARK  4 active torsions:
REMARK  status: ('A' for Active; 'I' for Inactive)
REMARK    1  A    between atoms: N1_4  and  C4_5 
REMARK    2  A    between atoms: C5_8  and  N3_9 
REMARK    3  A    between atoms: N3_9  and  N4_11 
REMARK    4  A    between atoms: C10_19  and  N6_20 
ROOT
HETATM    1  C4  UNL     1      17.076   5.134  14.680  1.00  0.00     0.709 A 
HETATM    2  N2  UNL     1      17.632   4.366  13.727  1.00  0.00    -0.020 N 
ATOM      3  H2  UNL     1      17.433   3.366  13.687  1.00  0.00     0.203 HD
HETATM    4  C5  UNL     1      18.444   4.929  12.836  1.00  0.00     0.725 A 
HETATM    5  N5  UNL     1      18.687   6.243  12.911  1.00  0.00    -0.020 N 
ATOM      6  H5  UNL     1      19.312   6.667  12.225  1.00  0.00     0.203 HD
HETATM    7  C10 UNL     1      18.140   7.030  13.860  1.00  0.00     0.709 A 
HETATM    8  N7  UNL     1      17.323   6.444  14.747  1.00  0.00    -0.021 N 
ATOM      9  H7  UNL     1      16.888   7.003  15.480  1.00  0.00     0.203 HD
ENDROOT
BRANCH   4  10
HETATM   10  N3  UNL     1      18.977   4.186  11.921  1.00  0.00    -0.133 N 
ATOM     11  H3  UNL     1      19.962   4.333  11.700  1.00  0.00     0.205 HD
BRANCH  10  12
HETATM   12  N4  UNL     1      18.301   3.210  11.227  1.00  0.00    -0.310 N 
HETATM   13  C6  UNL     1      18.848   1.892  11.070  1.00  0.00     0.169 C 
HETATM   14  C7  UNL     1      17.858   1.036  10.305  1.00  0.00     0.189 C 
HETATM   15  O1  UNL     1      16.574   1.129  10.752  1.00  0.00    -0.388 OA
HETATM   16  C8  UNL     1      16.092   2.366  11.059  1.00  0.00     0.189 C 
HETATM   17  C9  UNL     1      17.021   3.485  10.638  1.00  0.00     0.169 C 
ENDBRANCH  10  12
ENDBRANCH   4  10
BRANCH   1  18
HETATM   18  N1  UNL     1      16.218   4.473  15.598  1.00  0.00    -0.217 N 
HETATM   19  C3  UNL     1      14.839   4.899  15.671  1.00  0.00     0.141 C 
HETATM   20  C2  UNL     1      14.387   4.629  17.112  1.00  0.00     0.020 C 
HETATM   21  C1  UNL     1      14.402   3.147  17.308  1.00  0.00     0.003 C 
HETATM   22  C16 UNL     1      15.687   2.483  16.929  1.00  0.00     0.020 C 
HETATM   23  C15 UNL     1      16.736   3.423  16.411  1.00  0.00     0.141 C 
ENDBRANCH   1  18
BRANCH   7  24
HETATM   24  N6  UNL     1      18.444   8.407  13.871  1.00  0.00    -0.213 N 
HETATM   25  C11 UNL     1      18.887   9.146  12.719  1.00  0.00     0.167 C 
HETATM   26  C12 UNL     1      20.303   9.636  13.032  1.00  0.00     0.188 C 
HETATM   27  O2  UNL     1      20.463   9.927  14.353  1.00  0.00    -0.388 OA
HETATM   28  C13 UNL     1      19.345  10.263  15.065  1.00  0.00     0.188 C 
HETATM   29  C14 UNL     1      18.313   9.152  15.105  1.00  0.00     0.167 C 
ENDBRANCH   7  24
TORSDOF 4
ENDMDL
MODEL 4
REMARK VINA RESULT: -7.664373139      2.839      5.904
REMARK  4 active torsions:
REMARK  status: ('A' for Active; 'I' for Inactive)
REMARK    1  A    between atoms: N1_4  and  C4_5 
REMARK    2  A    between atoms: C5_8  and  N3_9 
REMARK    3  A    between atoms: N3_9  and  N4_11 
REMARK    4  A    between atoms: C10_19  and  N6_20 
ROOT
HETATM    1  C4  UNL     1      15.860   6.540  12.904  1.00  0.00     0.709 A 
HETATM    2  N2  UNL     1      16.738   5.901  12.111  1.00  0.00    -0.020 N 
ATOM      3  H2  UNL     1      16.983   6.284  11.198  1.00  0.00     0.203 HD
HETATM    4  C5  UNL     1      17.282   4.764  12.535  1.00  0.00     0.725 A 
HETATM    5  N5  UNL     1      16.942   4.284  13.738  1.00  0.00    -0.020 N 
ATOM      6  H5  UNL     1      17.364   3.410  14.054  1.00  0.00     0.203 HD
HETATM    7  C10 UNL     1      16.063   4.909  14.547  1.00  0.00     0.709 A 
HETATM    8  N7  UNL     1      15.527   6.055  14.102  1.00  0.00    -0.021 N 
ATOM      9  H7  UNL     1      14.859   6.559  14.684  1.00  0.00     0.203 HD
ENDROOT
BRANCH   4  10
HETATM   10  N3  UNL     1      18.127   4.152  11.768  1.00  0.00    -0.133 N 
ATOM     11  H3  UNL     1      18.931   4.680  11.429  1.00  0.00     0.205 HD
BRANCH  10  12
HETATM   12  N4  UNL     1      18.008   2.838  11.381  1.00  0.00    -0.310 N 
HETATM   13  C6  UNL     1      19.166   2.022  11.150  1.00  0.00     0.169 C 
HETATM   14  C7  UNL     1      18.715   0.622  10.784  1.00  0.00     0.189 C 
HETATM   15  O1  UNL     1      17.747   0.114  11.597  1.00  0.00    -0.388 OA
HETATM   16  C8  UNL     1      16.719   0.934  11.955  1.00  0.00     0.189 C 
HETATM   17  C9  UNL     1      16.714   2.244  11.196  1.00  0.00     0.169 C 
ENDBRANCH  10  12
ENDBRANCH   4  10
BRANCH   1  18
HETATM   18  N1  UNL     1      15.317   7.748  12.394  1.00  0.00    -0.217 N 
HETATM   19  C3  UNL     1      15.946   8.345  11.239  1.00  0.00     0.141 C 
HETATM   20  C2  UNL     1      15.714   9.856  11.362  1.00  0.00     0.020 C 
HETATM   21  C1  UNL     1      14.242  10.088  11.233  1.00  0.00     0.003 C 
HETATM   22  C16 UNL     1      13.400   9.258  12.147  1.00  0.00     0.020 C 
HETATM   23  C15 UNL     1      14.181   8.329  13.030  1.00  0.00     0.141 C 
ENDBRANCH   1  18
BRANCH   7  24
HETATM   24  N6  UNL     1      15.758   4.340  15.801  1.00  0.00    -0.213 N 
HETATM   25  C11 UNL     1      16.646   3.479  16.535  1.00  0.00     0.167 C 
HETATM   26  C12 UNL     1      15.954   2.118  16.633  1.00  0.00     0.188 C 
HETATM   27  O2  UNL     1      14.600   2.239  16.729  1.00  0.00    -0.388 OA
HETATM   28  C13 UNL     1      14.106   3.406  17.242  1.00  0.00     0.188 C 
HETATM   29  C14 UNL     1      14.478   4.620  16.413  1.00  0.00     0.167 C 
ENDBRANCH   7  24
TORSDOF 4
ENDMDL
MODEL 5
REMARK VINA RESULT: -7.650697215      2.786      5.873
REMARK  4 active torsions:
REMARK  status: ('A' for Active; 'I' for Inactive)
REMARK    1  A    between atoms: N1_4  and  C4_5 
REMARK    2  A    between atoms: C5_8  and  N3_9 
REMARK    3  A    between atoms: N3_9  and  N4_11 
REMARK    4  A    between atoms: C10_19  and  N6_20 
ROOT
HETATM    1  C4  UNL     1      16.499   4.053  14.296  1.00  0.00     0.709 A 
HETATM    2  N2  UNL     1      16.845   5.287  13.893  1.00  0.00    -0.020 N 
ATOM      3  H2  UNL     1      16.656   6.096  14.485  1.00  0.00     0.203 HD
HETATM    4  C5  UNL     1      17.439   5.438  12.712  1.00  0.00     0.725 A 
HETATM    5  N5  UNL     1      17.675   4.359  11.956  1.00  0.00    -0.020 N 
ATOM      6  H5  UNL     1      18.130   4.484  11.051  1.00  0.00     0.203 HD
HETATM    7  C10 UNL     1      17.335   3.113  12.342  1.00  0.00     0.709 A 
HETATM    8  N7  UNL     1      16.738   2.982  13.536  1.00  0.00    -0.021 N 
ATOM      9  H7  UNL     1      16.466   2.057  13.866  1.00  0.00     0.203 HD
ENDROOT
BRANCH   4  10
HETATM   10  N3  UNL     1      17.770   6.629  12.329  1.00  0.00    -0.133 N 
ATOM     11  H3  UNL     1      18.698   6.971  12.581  1.00  0.00     0.205 HD
BRANCH  10  12
HETATM   12  N4  UNL     1      16.952   7.462  11.603  1.00  0.00    -0.310 N 
HETATM   13  C6  UNL     1      16.644   7.192  10.227  1.00  0.00     0.169 C 
HETATM   14  C7  UNL     1      15.691   8.255   9.718  1.00  0.00     0.189 C 
HETATM   15  O1  UNL     1      14.644   8.515  10.552  1.00  0.00    -0.388 OA
HETATM   16  C8  UNL     1      14.901   8.617  11.887  1.00  0.00     0.189 C 
HETATM   17  C9  UNL     1      16.382   8.634  12.205  1.00  0.00     0.169 C 
ENDBRANCH  10  12
ENDBRANCH   4  10
BRANCH   1  18
HETATM   18  N1  UNL     1      15.870   3.959  15.566  1.00  0.00    -0.217 N 
HETATM   19  C3  UNL     1      16.430   3.048  16.538  1.00  0.00     0.141 C 
HETATM   20  C2  UNL     1      15.256   2.586  17.412  1.00  0.00     0.020 C 
HETATM   21  C1  UNL     1      14.766   3.784  18.160  1.00  0.00     0.003 C 
HETATM   22  C16 UNL     1      14.468   4.973  17.304  1.00  0.00     0.020 C 
HETATM   23  C15 UNL     1      14.721   4.756  15.840  1.00  0.00     0.141 C 
ENDBRANCH   1  18
BRANCH   7  24
HETATM   24  N6  UNL     1      17.619   2.026  11.489  1.00  0.00    -0.213 N 
HETATM   25  C11 UNL     1      16.617   1.193  10.881  1.00  0.00     0.167 C 
HETATM   26  C12 UNL     1      16.820  -0.216  11.443  1.00  0.00     0.188 C 
HETATM   27  O2  UNL     1      18.135  -0.487  11.681  1.00  0.00    -0.388 OA
HETATM   28  C13 UNL     1      19.062   0.207  10.955  1.00  0.00     0.188 C 
HETATM   29  C14 UNL     1      18.997   1.704  11.187  1.00  0.00     0.167 C 
ENDBRANCH   7  24
TORSDOF 4
ENDMDL
