MODEL 1
REMARK VINA RESULT: -7.040924921      0.000      0.000
REMARK  4 active torsions:
REMARK  status: ('A' for Active; 'I' for Inactive)
REMARK    1  A    between atoms: N2_5  and  C4_6 
REMARK    2  A    between atoms: N7_24  and  C15_25 
REMARK    3  A    between atoms: C15_25  and  C16_26 
REMARK    4  A    between atoms: C16_26  and  O1_27 
ROOT
HETATM    1  C4  UNL     1      16.985   6.532  13.093  1.00  0.00     0.135 A 
HETATM    2  N3  UNL     1      16.049   7.479  12.790  1.00  0.00    -0.337 N 
ATOM      3  H3  UNL     1      16.265   8.172  12.073  1.00  0.00     0.168 HD
HETATM    4  C5  UNL     1      14.863   7.532  13.398  1.00  0.00     0.183 A 
HETATM    5  N4  UNL     1      14.541   6.639  14.348  1.00  0.00    -0.336 N 
ATOM      6  H4  UNL     1      13.630   6.693  14.804  1.00  0.00     0.168 HD
HETATM    7  C6  UNL     1      15.395   5.688  14.700  1.00  0.00     0.141 A 
HETATM    8  C7  UNL     1      16.636   5.625  14.069  1.00  0.00     0.122 A 
HETATM    9  N5  UNL     1      17.265   4.589  14.618  1.00  0.00    -0.340 N 
ATOM     10  H5  UNL     1      18.204   4.278  14.370  1.00  0.00     0.167 HD
HETATM   11  C8  UNL     1      16.472   4.003  15.560  1.00  0.00     0.085 A 
HETATM   12  N6  UNL     1      15.328   4.684  15.605  1.00  0.00    -0.321 N 
HETATM   13  C9  UNL     1      14.211   4.377  16.486  1.00  0.00     0.132 C 
HETATM   14  C10 UNL     1      14.398   3.089  17.211  1.00  0.00     0.021 C 
HETATM   15  C11 UNL     1      15.836   2.832  17.614  1.00  0.00     0.009 C 
HETATM   16  C12 UNL     1      16.758   2.817  16.426  1.00  0.00     0.077 C 
ENDROOT
BRANCH   1  17
HETATM   17  N2  UNL     1      18.241   6.499  12.431  1.00  0.00    -0.359 N 
HETATM   18  C3  UNL     1      19.366   7.094  13.097  1.00  0.00     0.170 C 
HETATM   19  C2  UNL     1      20.684   6.739  12.509  1.00  0.00     0.097 C 
HETATM   20  N1  UNL     1      20.848   6.959  11.132  1.00  0.00    -0.328 N 
HETATM   21  C1  UNL     1      20.951   8.284  10.671  1.00  0.00     0.170 C 
HETATM   22  N7  UNL     1      20.390   6.014  10.269  1.00  0.00    -0.227 NA
HETATM   23  C14 UNL     1      19.442   5.085  10.807  1.00  0.00     0.133 C 
HETATM   24  C13 UNL     1      18.173   5.836  11.133  1.00  0.00     0.141 C 
BRANCH  22  25
HETATM   25  C15 UNL     1      21.431   5.253   9.610  1.00  0.00     0.139 C 
BRANCH  25  26
HETATM   26  C16 UNL     1      21.713   5.772   8.216  1.00  0.00     0.180 C 
BRANCH  26  27
HETATM   27  O1  UNL     1      21.212   4.806   7.323  1.00  0.00    -0.400 OA
ATOM     28  H1  UNL     1      20.780   5.284   6.624  1.00  0.00     0.209 HD
ENDBRANCH  26  27
ENDBRANCH  25  26
ENDBRANCH  22  25
ENDBRANCH   1  17
TORSDOF 4
ENDMDL
MODEL 2
REMARK VINA RESULT: -6.977081890      3.372      6.349
REMARK  4 active torsions:
REMARK  status: ('A' for Active; 'I' for Inactive)
REMARK    1  A    between atoms: N2_5  and  C4_6 
REMARK    2  A    between atoms: N7_24  and  C15_25 
REMARK    3  A    between atoms: C15_25  and  C16_26 
REMARK    4  A    between atoms: C16_26  and  O1_27 
ROOT
HETATM    1  C4  UNL     1      19.305   5.399  11.233  1.00  0.00     0.135 A 
HETATM    2  N3  UNL     1      20.151   5.445  10.162  1.00  0.00    -0.337 N 
ATOM      3  H3  UNL     1      20.221   4.628   9.556  1.00  0.00     0.168 HD
HETATM    4  C5  UNL     1      20.890   6.520   9.880  1.00  0.00     0.183 A 
HETATM    5  N4  UNL     1      20.826   7.616  10.653  1.00  0.00    -0.336 N 
ATOM      6  H4  UNL     1      21.397   8.429  10.424  1.00  0.00     0.168 HD
HETATM    7  C6  UNL     1      20.029   7.651  11.712  1.00  0.00     0.141 A 
HETATM    8  C7  UNL     1      19.253   6.533  12.014  1.00  0.00     0.122 A 
HETATM    9  N5  UNL     1      18.568   6.857  13.108  1.00  0.00    -0.340 N 
ATOM     10  H5  UNL     1      17.906   6.245  13.584  1.00  0.00     0.167 HD
HETATM   11  C8  UNL     1      18.880   8.125  13.500  1.00  0.00     0.085 A 
HETATM   12  N6  UNL     1      19.777   8.604  12.640  1.00  0.00    -0.321 N 
HETATM   13  C9  UNL     1      20.369   9.932  12.708  1.00  0.00     0.132 C 
HETATM   14  C10 UNL     1      19.721  10.789  13.740  1.00  0.00     0.021 C 
HETATM   15  C11 UNL     1      19.312  10.025  14.984  1.00  0.00     0.009 C 
HETATM   16  C12 UNL     1      18.360   8.905  14.666  1.00  0.00     0.077 C 
ENDROOT
BRANCH   1  17
HETATM   17  N2  UNL     1      18.530   4.242  11.513  1.00  0.00    -0.359 N 
HETATM   18  C3  UNL     1      17.162   4.430  11.907  1.00  0.00     0.170 C 
HETATM   19  C2  UNL     1      16.337   3.194  11.865  1.00  0.00     0.097 C 
HETATM   20  N1  UNL     1      16.825   2.078  12.563  1.00  0.00    -0.328 N 
HETATM   21  C1  UNL     1      16.796   2.101  13.969  1.00  0.00     0.170 C 
HETATM   22  N7  UNL     1      17.749   1.289  11.954  1.00  0.00    -0.227 NA
HETATM   23  C14 UNL     1      18.429   1.873  10.837  1.00  0.00     0.133 C 
HETATM   24  C13 UNL     1      19.288   3.007  11.345  1.00  0.00     0.141 C 
BRANCH  22  25
HETATM   25  C15 UNL     1      17.248  -0.006  11.540  1.00  0.00     0.139 C 
BRANCH  25  26
HETATM   26  C16 UNL     1      18.366  -0.935  11.117  1.00  0.00     0.180 C 
BRANCH  26  27
HETATM   27  O1  UNL     1      17.941  -2.239  11.434  1.00  0.00    -0.400 OA
ATOM     28  H1  UNL     1      18.605  -2.607  12.005  1.00  0.00     0.209 HD
ENDBRANCH  26  27
ENDBRANCH  25  26
ENDBRANCH  22  25
ENDBRANCH   1  17
TORSDOF 4
ENDMDL
MODEL 3
REMARK VINA RESULT: -6.939180521      1.395      2.074
REMARK  4 active torsions:
REMARK  status: ('A' for Active; 'I' for Inactive)
REMARK    1  A    between atoms: N2_5  and  C4_6 
REMARK    2  A    between atoms: N7_24  and  C15_25 
REMARK    3  A    between atoms: C15_25  and  C16_26 
REMARK    4  A    between atoms: C16_26  and  O1_27 
ROOT
HETATM    1  C4  UNL     1      16.817   6.521  12.882  1.00  0.00     0.135 A 
HETATM    2  N3  UNL     1      15.901   7.515  12.690  1.00  0.00    -0.337 N 
ATOM      3  H3  UNL     1      16.073   8.208  11.961  1.00  0.00     0.168 HD
HETATM    4  C5  UNL     1      14.789   7.614  13.421  1.00  0.00     0.183 A 
HETATM    5  N4  UNL     1      14.526   6.723  14.391  1.00  0.00    -0.336 N 
ATOM      6  H4  UNL     1      13.672   6.812  14.940  1.00  0.00     0.168 HD
HETATM    7  C6  UNL     1      15.366   5.727  14.640  1.00  0.00     0.141 A 
HETATM    8  C7  UNL     1      16.529   5.616  13.880  1.00  0.00     0.122 A 
HETATM    9  N5  UNL     1      17.161   4.543  14.349  1.00  0.00    -0.340 N 
ATOM     10  H5  UNL     1      18.053   4.192  13.999  1.00  0.00     0.167 HD
HETATM   11  C8  UNL     1      16.445   3.980  15.363  1.00  0.00     0.085 A 
HETATM   12  N6  UNL     1      15.346   4.713  15.536  1.00  0.00    -0.321 N 
HETATM   13  C9  UNL     1      14.315   4.445  16.527  1.00  0.00     0.132 C 
HETATM   14  C10 UNL     1      14.514   3.139  17.215  1.00  0.00     0.021 C 
HETATM   15  C11 UNL     1      15.973   2.808  17.461  1.00  0.00     0.009 C 
HETATM   16  C12 UNL     1      16.763   2.769  16.181  1.00  0.00     0.077 C 
ENDROOT
BRANCH   1  17
HETATM   17  N2  UNL     1      17.993   6.438  12.091  1.00  0.00    -0.359 N 
HETATM   18  C3  UNL     1      17.872   5.912  10.760  1.00  0.00     0.170 C 
HETATM   19  C2  UNL     1      19.055   6.157   9.894  1.00  0.00     0.097 C 
HETATM   20  N1  UNL     1      20.304   5.752  10.392  1.00  0.00    -0.328 N 
HETATM   21  C1  UNL     1      20.584   4.375  10.461  1.00  0.00     0.170 C 
HETATM   22  N7  UNL     1      20.958   6.583  11.245  1.00  0.00    -0.227 NA
HETATM   23  C14 UNL     1      20.158   7.596  11.866  1.00  0.00     0.133 C 
HETATM   24  C13 UNL     1      19.176   6.923  12.794  1.00  0.00     0.141 C 
BRANCH  22  25
HETATM   25  C15 UNL     1      22.124   7.226  10.674  1.00  0.00     0.139 C 
BRANCH  25  26
HETATM   26  C16 UNL     1      23.244   7.362  11.684  1.00  0.00     0.180 C 
BRANCH  26  27
HETATM   27  O1  UNL     1      23.717   6.059  11.931  1.00  0.00    -0.400 OA
ATOM     28  H1  UNL     1      23.995   6.042  12.839  1.00  0.00     0.209 HD
ENDBRANCH  26  27
ENDBRANCH  25  26
ENDBRANCH  22  25
ENDBRANCH   1  17
TORSDOF 4
ENDMDL
MODEL 4
REMARK VINA RESULT: -6.677688157      3.359      7.519
REMARK  4 active torsions:
REMARK  status: ('A' for Active; 'I' for Inactive)
REMARK    1  A    between atoms: N2_5  and  C4_6 
REMARK    2  A    between atoms: N7_24  and  C15_25 
REMARK    3  A    between atoms: C15_25  and  C16_26 
REMARK    4  A    between atoms: C16_26  and  O1_27 
ROOT
HETATM    1  C4  UNL     1      18.758   6.295  13.475  1.00  0.00     0.135 A 
HETATM    2  N3  UNL     1      19.468   5.489  12.632  1.00  0.00    -0.337 N 
ATOM      3  H3  UNL     1      19.110   4.556  12.426  1.00  0.00     0.168 HD
HETATM    4  C5  UNL     1      20.613   5.878  12.066  1.00  0.00     0.183 A 
HETATM    5  N4  UNL     1      21.117   7.098  12.311  1.00  0.00    -0.336 N 
ATOM      6  H4  UNL     1      21.992   7.380  11.872  1.00  0.00     0.168 HD
HETATM    7  C6  UNL     1      20.488   7.940  13.120  1.00  0.00     0.141 A 
HETATM    8  C7  UNL     1      19.292   7.543  13.714  1.00  0.00     0.122 A 
HETATM    9  N5  UNL     1      18.900   8.575  14.456  1.00  0.00    -0.340 N 
ATOM     10  H5  UNL     1      18.052   8.599  15.022  1.00  0.00     0.167 HD
HETATM   11  C8  UNL     1      19.796   9.598  14.350  1.00  0.00     0.085 A 
HETATM   12  N6  UNL     1      20.766   9.200  13.530  1.00  0.00    -0.321 N 
HETATM   13  C9  UNL     1      21.920  10.004  13.154  1.00  0.00     0.132 C 
HETATM   14  C10 UNL     1      21.811  11.411  13.632  1.00  0.00     0.021 C 
HETATM   15  C11 UNL     1      21.153  11.532  14.992  1.00  0.00     0.009 C 
HETATM   16  C12 UNL     1      19.768  10.945  15.001  1.00  0.00     0.077 C 
ENDROOT
BRANCH   1  17
HETATM   17  N2  UNL     1      17.543   5.857  14.066  1.00  0.00    -0.359 N 
HETATM   18  C3  UNL     1      16.313   6.249  13.438  1.00  0.00     0.170 C 
HETATM   19  C2  UNL     1      15.119   5.498  13.908  1.00  0.00     0.097 C 
HETATM   20  N1  UNL     1      14.890   5.467  15.293  1.00  0.00    -0.328 N 
HETATM   21  C1  UNL     1      14.455   6.643  15.928  1.00  0.00     0.170 C 
HETATM   22  N7  UNL     1      15.561   4.547  16.036  1.00  0.00    -0.227 NA
HETATM   23  C14 UNL     1      16.717   3.969  15.419  1.00  0.00     0.133 C 
HETATM   24  C13 UNL     1      17.760   5.049  15.261  1.00  0.00     0.141 C 
BRANCH  22  25
HETATM   25  C15 UNL     1      14.736   3.466  16.533  1.00  0.00     0.139 C 
BRANCH  25  26
HETATM   26  C16 UNL     1      15.425   2.692  17.637  1.00  0.00     0.180 C 
BRANCH  26  27
HETATM   27  O1  UNL     1      15.231   1.328  17.348  1.00  0.00    -0.400 OA
ATOM     28  H1  UNL     1      15.474   0.850  18.132  1.00  0.00     0.209 HD
ENDBRANCH  26  27
ENDBRANCH  25  26
ENDBRANCH  22  25
ENDBRANCH   1  17
TORSDOF 4
ENDMDL
MODEL 5
REMARK VINA RESULT: -6.673870455      3.105      6.328
REMARK  4 active torsions:
REMARK  status: ('A' for Active; 'I' for Inactive)
REMARK    1  A    between atoms: N2_5  and  C4_6 
REMARK    2  A    between atoms: N7_24  and  C15_25 
REMARK    3  A    between atoms: C15_25  and  C16_26 
REMARK    4  A    between atoms: C16_26  and  O1_27 
ROOT
HETATM    1  C4  UNL     1      20.049   6.510  11.520  1.00  0.00     0.135 A 
HETATM    2  N3  UNL     1      21.124   6.428  10.681  1.00  0.00    -0.337 N 
ATOM      3  H3  UNL     1      21.167   5.659  10.012  1.00  0.00     0.168 HD
HETATM    4  C5  UNL     1      22.119   7.316  10.705  1.00  0.00     0.183 A 
HETATM    5  N4  UNL     1      22.099   8.343  11.571  1.00  0.00    -0.336 N 
ATOM      6  H4  UNL     1      22.867   9.013  11.576  1.00  0.00     0.168 HD
HETATM    7  C6  UNL     1      21.091   8.493  12.419  1.00  0.00     0.141 A 
HETATM    8  C7  UNL     1      20.047   7.570  12.401  1.00  0.00     0.122 A 
HETATM    9  N5  UNL     1      19.197   7.971  13.342  1.00  0.00    -0.340 N 
ATOM     10  H5  UNL     1      18.324   7.501  13.579  1.00  0.00     0.167 HD
HETATM   11  C8  UNL     1      19.663   9.102  13.945  1.00  0.00     0.085 A 
HETATM   12  N6  UNL     1      20.824   9.414  13.373  1.00  0.00    -0.321 N 
HETATM   13  C9  UNL     1      21.647  10.560  13.734  1.00  0.00     0.132 C 
HETATM   14  C10 UNL     1      20.960  11.474  14.689  1.00  0.00     0.021 C 
HETATM   15  C11 UNL     1      20.105  10.744  15.706  1.00  0.00     0.009 C 
HETATM   16  C12 UNL     1      19.047   9.902  15.049  1.00  0.00     0.077 C 
ENDROOT
BRANCH   1  17
HETATM   17  N2  UNL     1      19.004   5.550  11.476  1.00  0.00    -0.359 N 
HETATM   18  C3  UNL     1      17.714   5.983  11.016  1.00  0.00     0.170 C 
HETATM   19  C2  UNL     1      16.777   4.876  10.690  1.00  0.00     0.097 C 
HETATM   20  N1  UNL     1      16.563   3.908  11.684  1.00  0.00    -0.328 N 
HETATM   21  C1  UNL     1      15.814   4.267  12.819  1.00  0.00     0.170 C 
HETATM   22  N7  UNL     1      17.462   2.896  11.802  1.00  0.00    -0.227 NA
HETATM   23  C14 UNL     1      18.735   3.117  11.184  1.00  0.00     0.133 C 
HETATM   24  C13 UNL     1      19.435   4.230  11.925  1.00  0.00     0.141 C 
BRANCH  22  25
HETATM   25  C15 UNL     1      16.971   1.607  11.359  1.00  0.00     0.139 C 
BRANCH  25  26
HETATM   26  C16 UNL     1      17.496   1.246   9.986  1.00  0.00     0.180 C 
BRANCH  26  27
HETATM   27  O1  UNL     1      16.503   1.632   9.066  1.00  0.00    -0.400 OA
ATOM     28  H1  UNL     1      15.780   1.027   9.181  1.00  0.00     0.209 HD
ENDBRANCH  26  27
ENDBRANCH  25  26
ENDBRANCH  22  25
ENDBRANCH   1  17
TORSDOF 4
ENDMDL
