MODEL 1
REMARK VINA RESULT: -9.823845200      0.000      0.000
REMARK  6 active torsions:
REMARK  status: ('A' for Active; 'I' for Inactive)
REMARK    1  A    between atoms: C2_2  and  C3_3 
REMARK    2  A    between atoms: C6_6  and  O1_7 
REMARK    3  A    between atoms: O1_7  and  C7_8 
REMARK    4  A    between atoms: C21_26  and  C23_28 
REMARK    5  A    between atoms: C24_29  and  C25_30 
REMARK    6  A    between atoms: C31_38  and  O7_39 
ROOT
HETATM    1  C7  UNL     1      38.345   0.231 -15.536  1.00  0.00     0.269 C 
HETATM    2  C8  UNL     1      38.452   1.301 -16.621  1.00  0.00     0.104 C 
HETATM    3  C9  UNL     1      36.992   1.373 -17.003  1.00  0.00     0.123 C 
HETATM    4  C10 UNL     1      36.274   2.141 -15.939  1.00  0.00     0.052 C 
HETATM    5  O2  UNL     1      36.784   1.882 -18.288  1.00  0.00    -0.224 OA
HETATM    6  O3  UNL     1      35.613   1.510 -18.617  1.00  0.00    -0.198 OA
HETATM    7  C11 UNL     1      35.080   1.837 -19.790  1.00  0.00     0.215 C 
HETATM    8  O4  UNL     1      33.915   2.637 -19.468  1.00  0.00    -0.279 OA
HETATM    9  C12 UNL     1      34.434   3.871 -19.126  1.00  0.00     0.266 C 
HETATM   10  O5  UNL     1      34.190   4.654 -18.172  1.00  0.00    -0.265 OA
HETATM   11  C13 UNL     1      35.436   4.143 -20.190  1.00  0.00     0.091 C 
HETATM   12  C14 UNL     1      34.734   5.000 -21.207  1.00  0.00     0.021 C 
HETATM   13  C15 UNL     1      35.805   2.756 -20.690  1.00  0.00     0.065 C 
HETATM   14  C16 UNL     1      35.667   2.639 -22.145  1.00  0.00     0.011 C 
HETATM   15  C17 UNL     1      34.718   1.621 -22.689  1.00  0.00     0.005 C 
HETATM   16  C18 UNL     1      33.791   1.095 -21.633  1.00  0.00    -0.008 C 
HETATM   17  C19 UNL     1      32.663   0.282 -22.188  1.00  0.00     0.010 C 
HETATM   18  C20 UNL     1      34.481   0.592 -20.430  1.00  0.00     0.067 C 
HETATM   19  C21 UNL     1      35.345  -0.585 -20.453  1.00  0.00    -0.017 C 
HETATM   20  C22 UNL     1      36.714  -0.514 -21.010  1.00  0.00     0.020 C 
HETATM   21  C27 UNL     1      35.501  -1.064 -18.994  1.00  0.00     0.016 C 
HETATM   22  C28 UNL     1      36.802  -0.738 -18.368  1.00  0.00     0.036 C 
HETATM   23  C29 UNL     1      36.639  -0.122 -16.967  1.00  0.00     0.162 C 
HETATM   24  O6  UNL     1      37.496  -0.698 -16.071  1.00  0.00    -0.352 OA
ENDROOT
BRANCH   1  25
HETATM   25  O1  UNL     1      39.618  -0.272 -15.195  1.00  0.00    -0.325 OA
BRANCH  25  26
HETATM   26  C6  UNL     1      39.941  -0.420 -13.852  1.00  0.00     0.049 C 
HETATM   27  C5  UNL     1      39.640   0.430 -12.914  1.00  0.00     0.019 C 
HETATM   28  C3  UNL     1      39.965   0.305 -11.495  1.00  0.00    -0.005 C 
HETATM   29  C4  UNL     1      41.075   1.301 -11.144  1.00  0.00     0.024 C 
HETATM   30  C32 UNL     1      40.470  -1.054 -11.108  1.00  0.00     0.049 C 
HETATM   31  C31 UNL     1      40.073  -2.088 -12.120  1.00  0.00     0.125 C 
HETATM   32  C30 UNL     1      40.697  -1.661 -13.455  1.00  0.00     0.096 C 
BRANCH  28  33
HETATM   33  C2  UNL     1      38.780   0.617 -10.662  1.00  0.00    -0.024 C 
HETATM   34  C1  UNL     1      37.653   1.043 -11.204  1.00  0.00     0.008 C 
ENDBRANCH  28  33
BRANCH  31  35
HETATM   35  O7  UNL     1      40.476  -3.351 -11.758  1.00  0.00    -0.395 OA
ATOM     36  H7  UNL     1      41.060  -3.328 -11.009  1.00  0.00     0.210 HD
ENDBRANCH  31  35
ENDBRANCH  25  26
ENDBRANCH   1  25
BRANCH  19  37
HETATM   37  C23 UNL     1      34.666  -1.666 -21.225  1.00  0.00    -0.015 C 
HETATM   38  C24 UNL     1      35.268  -2.712 -21.757  1.00  0.00     0.019 C 
BRANCH  38  39
HETATM   39  C25 UNL     1      34.547  -3.738 -22.502  1.00  0.00     0.024 C 
HETATM   40  C26 UNL     1      33.353  -3.525 -22.997  1.00  0.00     0.037 C 
HETATM   41 CL1  UNL     1      35.295  -5.297 -22.740  1.00  0.00    -0.085 Cl
ENDBRANCH  38  39
ENDBRANCH  19  37
TORSDOF 6
ENDMDL
MODEL 2
REMARK VINA RESULT: -9.748203583      1.177      1.947
REMARK  6 active torsions:
REMARK  status: ('A' for Active; 'I' for Inactive)
REMARK    1  A    between atoms: C2_2  and  C3_3 
REMARK    2  A    between atoms: C6_6  and  O1_7 
REMARK    3  A    between atoms: O1_7  and  C7_8 
REMARK    4  A    between atoms: C21_26  and  C23_28 
REMARK    5  A    between atoms: C24_29  and  C25_30 
REMARK    6  A    between atoms: C31_38  and  O7_39 
ROOT
HETATM    1  C7  UNL     1      38.676   1.049 -15.384  1.00  0.00     0.269 C 
HETATM    2  C8  UNL     1      38.662   2.071 -16.519  1.00  0.00     0.104 C 
HETATM    3  C9  UNL     1      37.189   2.009 -16.852  1.00  0.00     0.123 C 
HETATM    4  C10 UNL     1      36.447   2.768 -15.798  1.00  0.00     0.052 C 
HETATM    5  O2  UNL     1      36.900   2.439 -18.150  1.00  0.00    -0.224 OA
HETATM    6  O3  UNL     1      35.754   1.960 -18.420  1.00  0.00    -0.198 OA
HETATM    7  C11 UNL     1      35.159   2.188 -19.587  1.00  0.00     0.215 C 
HETATM    8  O4  UNL     1      33.944   2.908 -19.260  1.00  0.00    -0.279 OA
HETATM    9  C12 UNL     1      34.373   4.194 -18.991  1.00  0.00     0.266 C 
HETATM   10  O5  UNL     1      34.096   5.000 -18.066  1.00  0.00    -0.265 OA
HETATM   11  C13 UNL     1      35.315   4.494 -20.102  1.00  0.00     0.091 C 
HETATM   12  C14 UNL     1      34.515   5.243 -21.131  1.00  0.00     0.021 C 
HETATM   13  C15 UNL     1      35.778   3.118 -20.552  1.00  0.00     0.065 C 
HETATM   14  C16 UNL     1      35.604   2.922 -21.995  1.00  0.00     0.011 C 
HETATM   15  C17 UNL     1      34.724   1.808 -22.458  1.00  0.00     0.005 C 
HETATM   16  C18 UNL     1      33.877   1.260 -21.348  1.00  0.00    -0.008 C 
HETATM   17  C19 UNL     1      32.800   0.335 -21.826  1.00  0.00     0.010 C 
HETATM   18  C20 UNL     1      34.642   0.871 -20.150  1.00  0.00     0.067 C 
HETATM   19  C21 UNL     1      35.597  -0.234 -20.150  1.00  0.00    -0.017 C 
HETATM   20  C22 UNL     1      36.938  -0.081 -20.757  1.00  0.00     0.020 C 
HETATM   21  C27 UNL     1      35.838  -0.629 -18.678  1.00  0.00     0.016 C 
HETATM   22  C28 UNL     1      37.128  -0.173 -18.113  1.00  0.00     0.036 C 
HETATM   23  C29 UNL     1      36.960   0.494 -16.736  1.00  0.00     0.162 C 
HETATM   24  O6  UNL     1      37.889   0.031 -15.847  1.00  0.00    -0.352 OA
ENDROOT
BRANCH   1  25
HETATM   25  O1  UNL     1      39.996   0.665 -15.066  1.00  0.00    -0.325 OA
BRANCH  25  26
HETATM   26  C6  UNL     1      40.264   0.184 -13.791  1.00  0.00     0.049 C 
HETATM   27  C5  UNL     1      40.732  -1.000 -13.524  1.00  0.00     0.019 C 
HETATM   28  C3  UNL     1      41.025  -1.537 -12.196  1.00  0.00    -0.005 C 
HETATM   29  C4  UNL     1      39.968  -2.585 -11.835  1.00  0.00     0.024 C 
HETATM   30  C32 UNL     1      40.997  -0.506 -11.107  1.00  0.00     0.049 C 
HETATM   31  C31 UNL     1      41.162   0.877 -11.666  1.00  0.00     0.125 C 
HETATM   32  C30 UNL     1      39.991   1.106 -12.631  1.00  0.00     0.096 C 
BRANCH  28  33
HETATM   33  C2  UNL     1      42.353  -2.193 -12.183  1.00  0.00    -0.024 C 
HETATM   34  C1  UNL     1      42.480  -3.482 -11.920  1.00  0.00     0.008 C 
ENDBRANCH  28  33
BRANCH  31  35
HETATM   35  O7  UNL     1      41.196   1.835 -10.681  1.00  0.00    -0.395 OA
ATOM     36  H7  UNL     1      41.331   1.447  -9.825  1.00  0.00     0.210 HD
ENDBRANCH  31  35
ENDBRANCH  25  26
ENDBRANCH   1  25
BRANCH  19  37
HETATM   37  C23 UNL     1      34.984  -1.401 -20.848  1.00  0.00    -0.015 C 
HETATM   38  C24 UNL     1      35.605  -2.182 -21.710  1.00  0.00     0.019 C 
BRANCH  38  39
HETATM   39  C25 UNL     1      34.949  -3.311 -22.360  1.00  0.00     0.024 C 
HETATM   40  C26 UNL     1      33.696  -3.261 -22.739  1.00  0.00     0.037 C 
HETATM   41 CL1  UNL     1      35.859  -4.774 -22.643  1.00  0.00    -0.085 Cl
ENDBRANCH  38  39
ENDBRANCH  19  37
TORSDOF 6
ENDMDL
MODEL 3
REMARK VINA RESULT: -9.728464983      1.111      1.730
REMARK  6 active torsions:
REMARK  status: ('A' for Active; 'I' for Inactive)
REMARK    1  A    between atoms: C2_2  and  C3_3 
REMARK    2  A    between atoms: C6_6  and  O1_7 
REMARK    3  A    between atoms: O1_7  and  C7_8 
REMARK    4  A    between atoms: C21_26  and  C23_28 
REMARK    5  A    between atoms: C24_29  and  C25_30 
REMARK    6  A    between atoms: C31_38  and  O7_39 
ROOT
HETATM    1  C7  UNL     1      37.971   1.075 -15.222  1.00  0.00     0.269 C 
HETATM    2  C8  UNL     1      38.114   2.056 -16.384  1.00  0.00     0.104 C 
HETATM    3  C9  UNL     1      36.682   2.034 -16.866  1.00  0.00     0.123 C 
HETATM    4  C10 UNL     1      35.865   2.856 -15.921  1.00  0.00     0.052 C 
HETATM    5  O2  UNL     1      36.544   2.426 -18.201  1.00  0.00    -0.224 OA
HETATM    6  O3  UNL     1      35.414   1.979 -18.573  1.00  0.00    -0.198 OA
HETATM    7  C11 UNL     1      34.952   2.186 -19.802  1.00  0.00     0.215 C 
HETATM    8  O4  UNL     1      33.738   2.960 -19.627  1.00  0.00    -0.279 OA
HETATM    9  C12 UNL     1      34.187   4.239 -19.357  1.00  0.00     0.266 C 
HETATM   10  O5  UNL     1      33.849   5.086 -18.492  1.00  0.00    -0.265 OA
HETATM   11  C13 UNL     1      35.250   4.464 -20.373  1.00  0.00     0.091 C 
HETATM   12  C14 UNL     1      34.589   5.204 -21.503  1.00  0.00     0.021 C 
HETATM   13  C15 UNL     1      35.703   3.057 -20.728  1.00  0.00     0.065 C 
HETATM   14  C16 UNL     1      35.670   2.815 -22.173  1.00  0.00     0.011 C 
HETATM   15  C17 UNL     1      34.799   1.717 -22.689  1.00  0.00     0.005 C 
HETATM   16  C18 UNL     1      33.822   1.241 -21.656  1.00  0.00    -0.008 C 
HETATM   17  C19 UNL     1      32.765   0.337 -22.213  1.00  0.00     0.010 C 
HETATM   18  C20 UNL     1      34.444   0.868 -20.372  1.00  0.00     0.067 C 
HETATM   19  C21 UNL     1      35.350  -0.269 -20.238  1.00  0.00    -0.017 C 
HETATM   20  C22 UNL     1      36.751  -0.186 -20.707  1.00  0.00     0.020 C 
HETATM   21  C27 UNL     1      35.423  -0.619 -18.736  1.00  0.00     0.016 C 
HETATM   22  C28 UNL     1      36.664  -0.189 -18.056  1.00  0.00     0.036 C 
HETATM   23  C29 UNL     1      36.382   0.533 -16.726  1.00  0.00     0.162 C 
HETATM   24  O6  UNL     1      37.196   0.070 -15.730  1.00  0.00    -0.352 OA
ENDROOT
BRANCH   1  25
HETATM   25  O1  UNL     1      39.235   0.657 -14.756  1.00  0.00    -0.325 OA
BRANCH  25  26
HETATM   26  C6  UNL     1      39.327   0.081 -13.495  1.00  0.00     0.049 C 
HETATM   27  C5  UNL     1      40.309  -0.668 -13.087  1.00  0.00     0.019 C 
HETATM   28  C3  UNL     1      40.437  -1.289 -11.770  1.00  0.00    -0.005 C 
HETATM   29  C4  UNL     1      40.200  -2.797 -11.901  1.00  0.00     0.024 C 
HETATM   30  C32 UNL     1      39.444  -0.784 -10.765  1.00  0.00     0.049 C 
HETATM   31  C31 UNL     1      38.890   0.549 -11.174  1.00  0.00     0.125 C 
HETATM   32  C30 UNL     1      38.201   0.345 -12.529  1.00  0.00     0.096 C 
BRANCH  28  33
HETATM   33  C2  UNL     1      41.799  -1.079 -11.227  1.00  0.00    -0.024 C 
HETATM   34  C1  UNL     1      42.510  -0.014 -11.550  1.00  0.00     0.008 C 
ENDBRANCH  28  33
BRANCH  31  35
HETATM   35  O7  UNL     1      38.020   1.058 -10.240  1.00  0.00    -0.395 OA
ATOM     36  H7  UNL     1      37.877   0.446  -9.528  1.00  0.00     0.210 HD
ENDBRANCH  31  35
ENDBRANCH  25  26
ENDBRANCH   1  25
BRANCH  19  37
HETATM   37  C23 UNL     1      34.766  -1.438 -20.958  1.00  0.00    -0.015 C 
HETATM   38  C24 UNL     1      35.441  -2.268 -21.729  1.00  0.00     0.019 C 
BRANCH  38  39
HETATM   39  C25 UNL     1      34.811  -3.396 -22.407  1.00  0.00     0.024 C 
HETATM   40  C26 UNL     1      33.572  -3.349 -22.827  1.00  0.00     0.037 C 
HETATM   41 CL1  UNL     1      35.736  -4.854 -22.666  1.00  0.00    -0.085 Cl
ENDBRANCH  38  39
ENDBRANCH  19  37
TORSDOF 6
ENDMDL
MODEL 4
REMARK VINA RESULT: -9.547499093      2.592      4.827
REMARK  6 active torsions:
REMARK  status: ('A' for Active; 'I' for Inactive)
REMARK    1  A    between atoms: C2_2  and  C3_3 
REMARK    2  A    between atoms: C6_6  and  O1_7 
REMARK    3  A    between atoms: O1_7  and  C7_8 
REMARK    4  A    between atoms: C21_26  and  C23_28 
REMARK    5  A    between atoms: C24_29  and  C25_30 
REMARK    6  A    between atoms: C31_38  and  O7_39 
ROOT
HETATM    1  C7  UNL     1      38.622   1.199 -15.347  1.00  0.00     0.269 C 
HETATM    2  C8  UNL     1      37.816   0.034 -15.918  1.00  0.00     0.104 C 
HETATM    3  C9  UNL     1      37.874   0.422 -17.378  1.00  0.00     0.123 C 
HETATM    4  C10 UNL     1      39.237   0.083 -17.891  1.00  0.00     0.052 C 
HETATM    5  O2  UNL     1      36.842  -0.137 -18.137  1.00  0.00    -0.224 OA
HETATM    6  O3  UNL     1      36.771   0.572 -19.190  1.00  0.00    -0.198 OA
HETATM    7  C11 UNL     1      35.892   0.307 -20.152  1.00  0.00     0.215 C 
HETATM    8  O4  UNL     1      36.691   0.001 -21.323  1.00  0.00    -0.279 OA
HETATM    9  C12 UNL     1      37.144  -1.285 -21.098  1.00  0.00     0.266 C 
HETATM   10  O5  UNL     1      38.278  -1.814 -21.227  1.00  0.00    -0.265 OA
HETATM   11  C13 UNL     1      35.935  -2.011 -20.629  1.00  0.00     0.091 C 
HETATM   12  C14 UNL     1      35.366  -2.692 -21.843  1.00  0.00     0.021 C 
HETATM   13  C15 UNL     1      35.057  -0.907 -20.063  1.00  0.00     0.065 C 
HETATM   14  C16 UNL     1      33.707  -0.928 -20.635  1.00  0.00     0.011 C 
HETATM   15  C17 UNL     1      33.231   0.280 -21.374  1.00  0.00     0.005 C 
HETATM   16  C18 UNL     1      34.355   1.216 -21.706  1.00  0.00    -0.008 C 
HETATM   17  C19 UNL     1      33.963   2.293 -22.670  1.00  0.00     0.010 C 
HETATM   18  C20 UNL     1      35.179   1.594 -20.544  1.00  0.00     0.067 C 
HETATM   19  C21 UNL     1      34.660   2.391 -19.436  1.00  0.00    -0.017 C 
HETATM   20  C22 UNL     1      33.780   1.787 -18.411  1.00  0.00     0.020 C 
HETATM   21  C27 UNL     1      35.875   2.961 -18.674  1.00  0.00     0.016 C 
HETATM   22  C28 UNL     1      36.178   2.287 -17.392  1.00  0.00     0.036 C 
HETATM   23  C29 UNL     1      37.671   1.940 -17.252  1.00  0.00     0.162 C 
HETATM   24  O6  UNL     1      38.146   2.291 -16.019  1.00  0.00    -0.352 OA
ENDROOT
BRANCH   1  25
HETATM   25  O1  UNL     1      38.481   1.272 -13.945  1.00  0.00    -0.325 OA
BRANCH  25  26
HETATM   26  C6  UNL     1      39.381   0.580 -13.145  1.00  0.00     0.049 C 
HETATM   27  C5  UNL     1      40.645   0.420 -13.411  1.00  0.00     0.019 C 
HETATM   28  C3  UNL     1      41.618  -0.301 -12.593  1.00  0.00    -0.005 C 
HETATM   29  C4  UNL     1      41.973  -1.621 -13.283  1.00  0.00     0.024 C 
HETATM   30  C32 UNL     1      41.114  -0.654 -11.225  1.00  0.00     0.049 C 
HETATM   31  C31 UNL     1      39.953   0.213 -10.835  1.00  0.00     0.125 C 
HETATM   32  C30 UNL     1      38.851  -0.032 -11.875  1.00  0.00     0.096 C 
BRANCH  28  33
HETATM   33  C2  UNL     1      42.860   0.493 -12.442  1.00  0.00    -0.024 C 
HETATM   34  C1  UNL     1      43.603   0.406 -11.353  1.00  0.00     0.008 C 
ENDBRANCH  28  33
BRANCH  31  35
HETATM   35  O7  UNL     1      39.509  -0.055  -9.562  1.00  0.00    -0.395 OA
ATOM     36  H7  UNL     1      40.146   0.212  -8.909  1.00  0.00     0.210 HD
ENDBRANCH  31  35
ENDBRANCH  25  26
ENDBRANCH   1  25
BRANCH  19  37
HETATM   37  C23 UNL     1      33.882   3.537 -19.990  1.00  0.00    -0.015 C 
HETATM   38  C24 UNL     1      33.824   4.743 -19.459  1.00  0.00     0.019 C 
BRANCH  38  39
HETATM   39  C25 UNL     1      33.044   5.825 -20.050  1.00  0.00     0.024 C 
HETATM   40  C26 UNL     1      32.534   6.789 -19.326  1.00  0.00     0.037 C 
HETATM   41 CL1  UNL     1      32.781   5.836 -21.776  1.00  0.00    -0.085 Cl
ENDBRANCH  38  39
ENDBRANCH  19  37
TORSDOF 6
ENDMDL
MODEL 5
REMARK VINA RESULT: -9.487514217      2.797      4.963
REMARK  6 active torsions:
REMARK  status: ('A' for Active; 'I' for Inactive)
REMARK    1  A    between atoms: C2_2  and  C3_3 
REMARK    2  A    between atoms: C6_6  and  O1_7 
REMARK    3  A    between atoms: O1_7  and  C7_8 
REMARK    4  A    between atoms: C21_26  and  C23_28 
REMARK    5  A    between atoms: C24_29  and  C25_30 
REMARK    6  A    between atoms: C31_38  and  O7_39 
ROOT
HETATM    1  C7  UNL     1      38.482   1.160 -15.230  1.00  0.00     0.269 C 
HETATM    2  C8  UNL     1      37.570   0.061 -15.770  1.00  0.00     0.104 C 
HETATM    3  C9  UNL     1      37.697   0.374 -17.243  1.00  0.00     0.123 C 
HETATM    4  C10 UNL     1      39.026  -0.129 -17.708  1.00  0.00     0.052 C 
HETATM    5  O2  UNL     1      36.627  -0.109 -18.002  1.00  0.00    -0.224 OA
HETATM    6  O3  UNL     1      36.651   0.555 -19.087  1.00  0.00    -0.198 OA
HETATM    7  C11 UNL     1      35.769   0.340 -20.056  1.00  0.00     0.215 C 
HETATM    8  O4  UNL     1      36.553  -0.100 -21.194  1.00  0.00    -0.279 OA
HETATM    9  C12 UNL     1      36.864  -1.415 -20.903  1.00  0.00     0.266 C 
HETATM   10  O5  UNL     1      37.939  -2.065 -20.981  1.00  0.00    -0.265 OA
HETATM   11  C13 UNL     1      35.576  -1.989 -20.432  1.00  0.00     0.091 C 
HETATM   12  C14 UNL     1      34.963  -2.662 -21.629  1.00  0.00     0.021 C 
HETATM   13  C15 UNL     1      34.808  -0.775 -19.936  1.00  0.00     0.065 C 
HETATM   14  C16 UNL     1      33.475  -0.681 -20.540  1.00  0.00     0.011 C 
HETATM   15  C17 UNL     1      33.144   0.535 -21.341  1.00  0.00     0.005 C 
HETATM   16  C18 UNL     1      34.366   1.333 -21.686  1.00  0.00    -0.008 C 
HETATM   17  C19 UNL     1      34.109   2.400 -22.704  1.00  0.00     0.010 C 
HETATM   18  C20 UNL     1      35.203   1.675 -20.521  1.00  0.00     0.067 C 
HETATM   19  C21 UNL     1      34.749   2.571 -19.461  1.00  0.00    -0.017 C 
HETATM   20  C22 UNL     1      33.791   2.110 -18.433  1.00  0.00     0.020 C 
HETATM   21  C27 UNL     1      36.002   3.045 -18.696  1.00  0.00     0.016 C 
HETATM   22  C28 UNL     1      36.207   2.403 -17.379  1.00  0.00     0.036 C 
HETATM   23  C29 UNL     1      37.652   1.909 -17.188  1.00  0.00     0.162 C 
HETATM   24  O6  UNL     1      38.137   2.264 -15.960  1.00  0.00    -0.352 OA
ENDROOT
BRANCH   1  25
HETATM   25  O1  UNL     1      38.323   1.310 -13.837  1.00  0.00    -0.325 OA
BRANCH  25  26
HETATM   26  C6  UNL     1      39.228   0.687 -12.988  1.00  0.00     0.049 C 
HETATM   27  C5  UNL     1      39.897  -0.392 -13.274  1.00  0.00     0.019 C 
HETATM   28  C3  UNL     1      40.855  -1.073 -12.405  1.00  0.00    -0.005 C 
HETATM   29  C4  UNL     1      40.232  -2.376 -11.895  1.00  0.00     0.024 C 
HETATM   30  C32 UNL     1      41.243  -0.280 -11.193  1.00  0.00     0.049 C 
HETATM   31  C31 UNL     1      40.959   1.181 -11.388  1.00  0.00     0.125 C 
HETATM   32  C30 UNL     1      39.450   1.308 -11.633  1.00  0.00     0.096 C 
BRANCH  28  33
HETATM   33  C2  UNL     1      42.087  -1.410 -13.155  1.00  0.00    -0.024 C 
HETATM   34  C1  UNL     1      43.248  -1.555 -12.541  1.00  0.00     0.008 C 
ENDBRANCH  28  33
BRANCH  31  35
HETATM   35  O7  UNL     1      41.358   1.936 -10.311  1.00  0.00    -0.395 OA
ATOM     36  H7  UNL     1      40.990   1.605  -9.500  1.00  0.00     0.210 HD
ENDBRANCH  31  35
ENDBRANCH  25  26
ENDBRANCH   1  25
BRANCH  19  37
HETATM   37  C23 UNL     1      34.107   3.766 -20.083  1.00  0.00    -0.015 C 
HETATM   38  C24 UNL     1      34.537   5.007 -19.964  1.00  0.00     0.019 C 
BRANCH  38  39
HETATM   39  C25 UNL     1      33.864   6.135 -20.599  1.00  0.00     0.024 C 
HETATM   40  C26 UNL     1      32.993   5.970 -21.563  1.00  0.00     0.037 C 
HETATM   41 CL1  UNL     1      34.229   7.755 -20.060  1.00  0.00    -0.085 Cl
ENDBRANCH  38  39
ENDBRANCH  19  37
TORSDOF 6
ENDMDL
