MODEL 1
REMARK VINA RESULT: -8.977798419      0.000      0.000
REMARK  6 active torsions:
REMARK  status: ('A' for Active; 'I' for Inactive)
REMARK    1  A    between atoms: C2_2  and  N1_3 
REMARK    2  A    between atoms: N1_3  and  C3_4 
REMARK    3  A    between atoms: N1_3  and  C5_6 
REMARK    4  A    between atoms: C5_6  and  C6_7 
REMARK    5  A    between atoms: C6_7  and  N2_8 
REMARK    6  A    between atoms: C20_27  and  N5_28 
ROOT
HETATM    1  N2  UNL     1     -21.284  -6.252  23.926  1.00  0.00    -0.306 N 
HETATM    2  C7  UNL     1     -22.233  -7.330  24.328  1.00  0.00     0.133 C 
HETATM    3  C8  UNL     1     -21.591  -8.346  25.202  1.00  0.00     0.021 C 
HETATM    4  C9  UNL     1     -22.621  -9.374  25.653  1.00  0.00     0.005 C 
HETATM    5  C10 UNL     1     -23.561  -8.858  26.686  1.00  0.00     0.027 C 
HETATM    6  C11 UNL     1     -23.522  -9.705  27.918  1.00  0.00    -0.031 C 
HETATM    7  C12 UNL     1     -24.487  -9.816  28.792  1.00  0.00    -0.031 C 
HETATM    8  C13 UNL     1     -25.792  -9.105  28.693  1.00  0.00     0.027 C 
HETATM    9  C14 UNL     1     -25.637  -7.616  28.529  1.00  0.00     0.006 C 
HETATM   10  C15 UNL     1     -26.558  -6.819  29.419  1.00  0.00     0.027 C 
HETATM   11  C16 UNL     1     -26.696  -5.431  28.757  1.00  0.00     0.176 C 
HETATM   12  O1  UNL     1     -27.067  -4.584  29.786  1.00  0.00    -0.345 OA
HETATM   13  C17 UNL     1     -27.975  -3.593  29.936  1.00  0.00     0.142 A 
HETATM   14  C18 UNL     1     -28.075  -2.443  29.175  1.00  0.00     0.105 A 
HETATM   15  N3  UNL     1     -29.061  -1.521  29.455  1.00  0.00    -0.348 N 
ATOM     16  H3  UNL     1     -29.118  -0.679  28.881  1.00  0.00     0.167 HD
HETATM   17  C19 UNL     1     -29.945  -1.679  30.442  1.00  0.00     0.182 A 
HETATM   18  N4  UNL     1     -29.849  -2.789  31.175  1.00  0.00    -0.337 N 
ATOM     19  H4  UNL     1     -30.517  -2.925  31.933  1.00  0.00     0.168 HD
HETATM   20  C20 UNL     1     -28.920  -3.735  30.972  1.00  0.00     0.136 A 
HETATM   21  C21 UNL     1     -27.214  -2.042  28.077  1.00  0.00     0.109 C 
HETATM   22  C22 UNL     1     -26.983  -0.719  28.284  1.00  0.00     0.041 C 
HETATM   23  C23 UNL     1     -26.229   0.329  27.614  1.00  0.00     0.026 C 
HETATM   24  C24 UNL     1     -25.196   0.306  26.746  1.00  0.00     0.034 C 
HETATM   25 CL1  UNL     1     -24.683   1.900  26.262  1.00  0.00    -0.084 Cl
HETATM   26  C25 UNL     1     -24.448  -0.813  26.155  1.00  0.00     0.037 C 
HETATM   27  C26 UNL     1     -24.736  -2.117  25.788  1.00  0.00     0.021 C 
HETATM   28  C27 UNL     1     -23.396  -2.482  25.295  1.00  0.00     0.072 C 
HETATM   29  C28 UNL     1     -22.944  -3.899  25.461  1.00  0.00     0.185 C 
HETATM   30  O2  UNL     1     -22.912  -4.463  24.169  1.00  0.00    -0.303 OA
HETATM   31  C29 UNL     1     -21.828  -5.023  23.507  1.00  0.00     0.366 C 
HETATM   32  O3  UNL     1     -21.290  -4.464  22.515  1.00  0.00    -0.238 OA
HETATM   33  C30 UNL     1     -25.981  -2.809  25.910  1.00  0.00     0.294 C 
HETATM   34  O4  UNL     1     -26.573  -3.432  24.987  1.00  0.00    -0.259 OA
HETATM   35  O5  UNL     1     -26.793  -2.927  27.088  1.00  0.00    -0.273 OA
ENDROOT
BRANCH   1  36
HETATM   36  C6  UNL     1     -19.918  -6.577  23.994  1.00  0.00     0.099 C 
BRANCH  36  37
HETATM   37  C5  UNL     1     -19.272  -7.222  22.821  1.00  0.00     0.317 C 
BRANCH  37  38
HETATM   38  N1  UNL     1     -20.175  -7.703  21.794  1.00  0.00     0.092 N 
BRANCH  38  39
HETATM   39  C2  UNL     1     -20.116  -9.161  21.787  1.00  0.00     0.268 C 
HETATM   40  C1  UNL     1     -21.413  -9.854  21.652  1.00  0.00     0.037 C 
ENDBRANCH  38  39
BRANCH  38  41
HETATM   41  C3  UNL     1     -19.622  -7.266  20.490  1.00  0.00     0.268 C 
HETATM   42  C4  UNL     1     -20.646  -6.498  19.690  1.00  0.00     0.037 C 
ENDBRANCH  38  41
ENDBRANCH  37  38
ENDBRANCH  36  37
ENDBRANCH   1  36
BRANCH  20  43
HETATM   43  N5  UNL     1     -28.965  -4.734  31.784  1.00  0.00    -0.383 N 
ATOM     44  H52 UNL     1     -28.203  -5.405  31.692  1.00  0.00     0.157 HD
ATOM     45  H51 UNL     1     -29.699  -4.881  32.477  1.00  0.00     0.157 HD
ENDBRANCH  20  43
TORSDOF 6
ENDMDL
MODEL 2
REMARK VINA RESULT: -8.832755438      0.741      1.112
REMARK  6 active torsions:
REMARK  status: ('A' for Active; 'I' for Inactive)
REMARK    1  A    between atoms: C2_2  and  N1_3 
REMARK    2  A    between atoms: N1_3  and  C3_4 
REMARK    3  A    between atoms: N1_3  and  C5_6 
REMARK    4  A    between atoms: C5_6  and  C6_7 
REMARK    5  A    between atoms: C6_7  and  N2_8 
REMARK    6  A    between atoms: C20_27  and  N5_28 
ROOT
HETATM    1  N2  UNL     1     -21.317  -6.306  23.544  1.00  0.00    -0.306 N 
HETATM    2  C7  UNL     1     -22.201  -7.412  24.012  1.00  0.00     0.133 C 
HETATM    3  C8  UNL     1     -21.471  -8.396  24.853  1.00  0.00     0.021 C 
HETATM    4  C9  UNL     1     -22.434  -9.455  25.375  1.00  0.00     0.005 C 
HETATM    5  C10 UNL     1     -23.327  -8.961  26.461  1.00  0.00     0.027 C 
HETATM    6  C11 UNL     1     -23.182  -9.794  27.695  1.00  0.00    -0.031 C 
HETATM    7  C12 UNL     1     -24.087  -9.928  28.627  1.00  0.00    -0.031 C 
HETATM    8  C13 UNL     1     -25.419  -9.264  28.604  1.00  0.00     0.027 C 
HETATM    9  C14 UNL     1     -25.327  -7.772  28.419  1.00  0.00     0.006 C 
HETATM   10  C15 UNL     1     -26.218  -6.999  29.359  1.00  0.00     0.027 C 
HETATM   11  C16 UNL     1     -26.445  -5.622  28.696  1.00  0.00     0.176 C 
HETATM   12  O1  UNL     1     -26.781  -4.779  29.739  1.00  0.00    -0.345 OA
HETATM   13  C17 UNL     1     -27.712  -3.818  29.937  1.00  0.00     0.142 A 
HETATM   14  C18 UNL     1     -27.899  -2.680  29.174  1.00  0.00     0.105 A 
HETATM   15  N3  UNL     1     -28.898  -1.790  29.507  1.00  0.00    -0.348 N 
ATOM     16  H3  UNL     1     -29.019  -0.957  28.931  1.00  0.00     0.167 HD
HETATM   17  C19 UNL     1     -29.713  -1.968  30.549  1.00  0.00     0.182 A 
HETATM   18  N4  UNL     1     -29.533  -3.066  31.283  1.00  0.00    -0.337 N 
ATOM     19  H4  UNL     1     -30.148  -3.218  32.082  1.00  0.00     0.168 HD
HETATM   20  C20 UNL     1     -28.586  -3.982  31.030  1.00  0.00     0.136 A 
HETATM   21  C21 UNL     1     -27.122  -2.260  28.021  1.00  0.00     0.109 C 
HETATM   22  C22 UNL     1     -26.926  -0.929  28.204  1.00  0.00     0.041 C 
HETATM   23  C23 UNL     1     -26.251   0.138  27.480  1.00  0.00     0.026 C 
HETATM   24  C24 UNL     1     -25.274   0.141  26.549  1.00  0.00     0.034 C 
HETATM   25 CL1  UNL     1     -24.848   1.747  26.022  1.00  0.00    -0.084 Cl
HETATM   26  C25 UNL     1     -24.525  -0.957  25.922  1.00  0.00     0.037 C 
HETATM   27  C26 UNL     1     -24.789  -2.273  25.584  1.00  0.00     0.021 C 
HETATM   28  C27 UNL     1     -23.471  -2.597  25.011  1.00  0.00     0.072 C 
HETATM   29  C28 UNL     1     -22.960  -3.996  25.160  1.00  0.00     0.185 C 
HETATM   30  O2  UNL     1     -22.988  -4.572  23.873  1.00  0.00    -0.303 OA
HETATM   31  C29 UNL     1     -21.929  -5.101  23.150  1.00  0.00     0.366 C 
HETATM   32  O3  UNL     1     -21.472  -4.534  22.122  1.00  0.00    -0.238 OA
HETATM   33  C30 UNL     1     -26.000  -3.007  25.789  1.00  0.00     0.294 C 
HETATM   34  O4  UNL     1     -26.626  -3.659  24.909  1.00  0.00    -0.259 OA
HETATM   35  O5  UNL     1     -26.732  -3.141  27.016  1.00  0.00    -0.273 OA
ENDROOT
BRANCH   1  36
HETATM   36  C6  UNL     1     -19.939  -6.583  23.530  1.00  0.00     0.099 C 
BRANCH  36  37
HETATM   37  C5  UNL     1     -19.375  -7.376  22.406  1.00  0.00     0.317 C 
BRANCH  37  38
HETATM   38  N1  UNL     1     -19.148  -6.646  21.175  1.00  0.00     0.092 N 
BRANCH  38  39
HETATM   39  C2  UNL     1     -20.043  -7.185  20.157  1.00  0.00     0.268 C 
HETATM   40  C1  UNL     1     -20.800  -6.187  19.375  1.00  0.00     0.037 C 
ENDBRANCH  38  39
BRANCH  38  41
HETATM   41  C3  UNL     1     -17.774  -6.972  20.724  1.00  0.00     0.268 C 
HETATM   42  C4  UNL     1     -16.982  -5.720  20.430  1.00  0.00     0.037 C 
ENDBRANCH  38  41
ENDBRANCH  37  38
ENDBRANCH  36  37
ENDBRANCH   1  36
BRANCH  20  43
HETATM   43  N5  UNL     1     -28.545  -4.974  31.852  1.00  0.00    -0.383 N 
ATOM     44  H52 UNL     1     -29.067  -5.801  31.563  1.00  0.00     0.157 HD
ATOM     45  H51 UNL     1     -28.045  -4.965  32.741  1.00  0.00     0.157 HD
ENDBRANCH  20  43
TORSDOF 6
ENDMDL
MODEL 3
REMARK VINA RESULT: -8.757430219      2.421      9.138
REMARK  6 active torsions:
REMARK  status: ('A' for Active; 'I' for Inactive)
REMARK    1  A    between atoms: C2_2  and  N1_3 
REMARK    2  A    between atoms: N1_3  and  C3_4 
REMARK    3  A    between atoms: N1_3  and  C5_6 
REMARK    4  A    between atoms: C5_6  and  C6_7 
REMARK    5  A    between atoms: C6_7  and  N2_8 
REMARK    6  A    between atoms: C20_27  and  N5_28 
ROOT
HETATM    1  N2  UNL     1     -27.015  -4.036  28.927  1.00  0.00    -0.306 N 
HETATM    2  C7  UNL     1     -25.813  -4.861  29.239  1.00  0.00     0.133 C 
HETATM    3  C8  UNL     1     -26.173  -6.240  29.660  1.00  0.00     0.021 C 
HETATM    4  C9  UNL     1     -24.911  -7.065  29.882  1.00  0.00     0.005 C 
HETATM    5  C10 UNL     1     -24.233  -7.465  28.618  1.00  0.00     0.027 C 
HETATM    6  C11 UNL     1     -24.091  -8.952  28.532  1.00  0.00    -0.031 C 
HETATM    7  C12 UNL     1     -23.192  -9.586  27.829  1.00  0.00    -0.031 C 
HETATM    8  C13 UNL     1     -22.157  -8.918  26.993  1.00  0.00     0.027 C 
HETATM    9  C14 UNL     1     -22.741  -7.937  26.010  1.00  0.00     0.006 C 
HETATM   10  C15 UNL     1     -22.158  -8.061  24.625  1.00  0.00     0.027 C 
HETATM   11  C16 UNL     1     -22.402  -6.701  23.935  1.00  0.00     0.176 C 
HETATM   12  O1  UNL     1     -22.366  -6.980  22.581  1.00  0.00    -0.345 OA
HETATM   13  C17 UNL     1     -21.807  -6.400  21.494  1.00  0.00     0.142 A 
HETATM   14  C18 UNL     1     -22.011  -5.105  21.054  1.00  0.00     0.105 A 
HETATM   15  N3  UNL     1     -21.365  -4.659  19.920  1.00  0.00    -0.348 N 
ATOM     16  H3  UNL     1     -21.529  -3.700  19.613  1.00  0.00     0.167 HD
HETATM   17  C19 UNL     1     -20.536  -5.423  19.207  1.00  0.00     0.182 A 
HETATM   18  N4  UNL     1     -20.340  -6.672  19.633  1.00  0.00    -0.337 N 
ATOM     19  H4  UNL     1     -19.708  -7.269  19.099  1.00  0.00     0.168 HD
HETATM   20  C20 UNL     1     -20.928  -7.186  20.723  1.00  0.00     0.136 A 
HETATM   21  C21 UNL     1     -22.884  -4.106  21.644  1.00  0.00     0.109 C 
HETATM   22  C22 UNL     1     -23.513  -3.530  20.587  1.00  0.00     0.041 C 
HETATM   23  C23 UNL     1     -24.505  -2.481  20.404  1.00  0.00     0.026 C 
HETATM   24  C24 UNL     1     -25.428  -1.937  21.224  1.00  0.00     0.034 C 
HETATM   25 CL1  UNL     1     -26.366  -0.686  20.452  1.00  0.00    -0.084 Cl
HETATM   26  C25 UNL     1     -25.769  -2.218  22.626  1.00  0.00     0.037 C 
HETATM   27  C26 UNL     1     -25.082  -2.649  23.748  1.00  0.00     0.021 C 
HETATM   28  C27 UNL     1     -26.218  -2.645  24.687  1.00  0.00     0.072 C 
HETATM   29  C28 UNL     1     -26.234  -3.667  25.781  1.00  0.00     0.185 C 
HETATM   30  O2  UNL     1     -26.017  -2.967  26.986  1.00  0.00    -0.303 OA
HETATM   31  C29 UNL     1     -26.840  -2.909  28.100  1.00  0.00     0.366 C 
HETATM   32  O3  UNL     1     -27.461  -1.860  28.420  1.00  0.00    -0.238 OA
HETATM   33  C30 UNL     1     -23.696  -2.985  23.854  1.00  0.00     0.294 C 
HETATM   34  O4  UNL     1     -22.890  -2.531  24.712  1.00  0.00    -0.259 OA
HETATM   35  O5  UNL     1     -22.960  -3.889  23.017  1.00  0.00    -0.273 OA
ENDROOT
BRANCH   1  36
HETATM   36  C6  UNL     1     -28.222  -4.462  29.508  1.00  0.00     0.099 C 
BRANCH  36  37
HETATM   37  C5  UNL     1     -28.681  -3.821  30.768  1.00  0.00     0.317 C 
BRANCH  37  38
HETATM   38  N1  UNL     1     -27.637  -3.483  31.715  1.00  0.00     0.092 N 
BRANCH  38  39
HETATM   39  C2  UNL     1     -27.868  -4.250  32.935  1.00  0.00     0.268 C 
HETATM   40  C1  UNL     1     -26.920  -5.354  33.188  1.00  0.00     0.037 C 
ENDBRANCH  38  39
BRANCH  38  41
HETATM   41  C3  UNL     1     -27.830  -2.060  32.085  1.00  0.00     0.268 C 
HETATM   42  C4  UNL     1     -26.594  -1.246  31.791  1.00  0.00     0.037 C 
ENDBRANCH  38  41
ENDBRANCH  37  38
ENDBRANCH  36  37
ENDBRANCH   1  36
BRANCH  20  43
HETATM   43  N5  UNL     1     -20.635  -8.414  20.979  1.00  0.00    -0.383 N 
ATOM     44  H52 UNL     1     -20.538  -8.642  21.968  1.00  0.00     0.157 HD
ATOM     45  H51 UNL     1     -20.493  -9.133  20.269  1.00  0.00     0.157 HD
ENDBRANCH  20  43
TORSDOF 6
ENDMDL
MODEL 4
REMARK VINA RESULT: -8.747515828      0.732      1.117
REMARK  6 active torsions:
REMARK  status: ('A' for Active; 'I' for Inactive)
REMARK    1  A    between atoms: C2_2  and  N1_3 
REMARK    2  A    between atoms: N1_3  and  C3_4 
REMARK    3  A    between atoms: N1_3  and  C5_6 
REMARK    4  A    between atoms: C5_6  and  C6_7 
REMARK    5  A    between atoms: C6_7  and  N2_8 
REMARK    6  A    between atoms: C20_27  and  N5_28 
ROOT
HETATM    1  N2  UNL     1     -21.258  -6.274  23.514  1.00  0.00    -0.306 N 
HETATM    2  C7  UNL     1     -22.131  -7.389  23.981  1.00  0.00     0.133 C 
HETATM    3  C8  UNL     1     -21.391  -8.368  24.819  1.00  0.00     0.021 C 
HETATM    4  C9  UNL     1     -22.344  -9.436  25.340  1.00  0.00     0.005 C 
HETATM    5  C10 UNL     1     -23.240  -8.953  26.428  1.00  0.00     0.027 C 
HETATM    6  C11 UNL     1     -23.085  -9.787  27.660  1.00  0.00    -0.031 C 
HETATM    7  C12 UNL     1     -23.988  -9.932  28.593  1.00  0.00    -0.031 C 
HETATM    8  C13 UNL     1     -25.326  -9.280  28.573  1.00  0.00     0.027 C 
HETATM    9  C14 UNL     1     -25.248  -7.787  28.391  1.00  0.00     0.006 C 
HETATM   10  C15 UNL     1     -26.146  -7.024  29.333  1.00  0.00     0.027 C 
HETATM   11  C16 UNL     1     -26.387  -5.648  28.673  1.00  0.00     0.176 C 
HETATM   12  O1  UNL     1     -26.729  -4.810  29.718  1.00  0.00    -0.345 OA
HETATM   13  C17 UNL     1     -27.669  -3.858  29.919  1.00  0.00     0.142 A 
HETATM   14  C18 UNL     1     -27.867  -2.721  29.159  1.00  0.00     0.105 A 
HETATM   15  N3  UNL     1     -28.874  -1.840  29.496  1.00  0.00    -0.348 N 
ATOM     16  H3  UNL     1     -29.004  -1.007  28.921  1.00  0.00     0.167 HD
HETATM   17  C19 UNL     1     -29.686  -2.028  30.537  1.00  0.00     0.182 A 
HETATM   18  N4  UNL     1     -29.494  -3.126  31.270  1.00  0.00    -0.337 N 
ATOM     19  H4  UNL     1     -30.108  -3.285  32.069  1.00  0.00     0.168 HD
HETATM   20  C20 UNL     1     -28.540  -4.033  31.014  1.00  0.00     0.136 A 
HETATM   21  C21 UNL     1     -27.096  -2.291  28.006  1.00  0.00     0.109 C 
HETATM   22  C22 UNL     1     -26.911  -0.959  28.191  1.00  0.00     0.041 C 
HETATM   23  C23 UNL     1     -26.248   0.116  27.468  1.00  0.00     0.026 C 
HETATM   24  C24 UNL     1     -25.272   0.130  26.537  1.00  0.00     0.034 C 
HETATM   25 CL1  UNL     1     -24.861   1.741  26.012  1.00  0.00    -0.084 Cl
HETATM   26  C25 UNL     1     -24.513  -0.959  25.907  1.00  0.00     0.037 C 
HETATM   27  C26 UNL     1     -24.766  -2.278  25.566  1.00  0.00     0.021 C 
HETATM   28  C27 UNL     1     -23.445  -2.588  24.991  1.00  0.00     0.072 C 
HETATM   29  C28 UNL     1     -22.921  -3.983  25.136  1.00  0.00     0.185 C 
HETATM   30  O2  UNL     1     -22.945  -4.556  23.848  1.00  0.00    -0.303 OA
HETATM   31  C29 UNL     1     -21.882  -5.073  23.123  1.00  0.00     0.366 C 
HETATM   32  O3  UNL     1     -21.432  -4.500  22.095  1.00  0.00    -0.238 OA
HETATM   33  C30 UNL     1     -25.969  -3.023  25.771  1.00  0.00     0.294 C 
HETATM   34  O4  UNL     1     -26.590  -3.679  24.890  1.00  0.00    -0.259 OA
HETATM   35  O5  UNL     1     -26.699  -3.166  26.998  1.00  0.00    -0.273 OA
ENDROOT
BRANCH   1  36
HETATM   36  C6  UNL     1     -19.878  -6.538  23.497  1.00  0.00     0.099 C 
BRANCH  36  37
HETATM   37  C5  UNL     1     -19.134  -6.401  22.218  1.00  0.00     0.317 C 
BRANCH  37  38
HETATM   38  N1  UNL     1     -19.184  -7.552  21.337  1.00  0.00     0.092 N 
BRANCH  38  39
HETATM   39  C2  UNL     1     -17.876  -7.698  20.708  1.00  0.00     0.268 C 
HETATM   40  C1  UNL     1     -17.042  -6.480  20.674  1.00  0.00     0.037 C 
ENDBRANCH  38  39
BRANCH  38  41
HETATM   41  C3  UNL     1     -20.129  -7.221  20.243  1.00  0.00     0.268 C 
HETATM   42  C4  UNL     1     -21.450  -7.928  20.428  1.00  0.00     0.037 C 
ENDBRANCH  38  41
ENDBRANCH  37  38
ENDBRANCH  36  37
ENDBRANCH   1  36
BRANCH  20  43
HETATM   43  N5  UNL     1     -28.489  -5.025  31.833  1.00  0.00    -0.383 N 
ATOM     44  H52 UNL     1     -27.601  -5.526  31.856  1.00  0.00     0.157 HD
ATOM     45  H51 UNL     1     -29.264  -5.325  32.425  1.00  0.00     0.157 HD
ENDBRANCH  20  43
TORSDOF 6
ENDMDL
MODEL 5
REMARK VINA RESULT: -8.682631386      1.331      2.289
REMARK  6 active torsions:
REMARK  status: ('A' for Active; 'I' for Inactive)
REMARK    1  A    between atoms: C2_2  and  N1_3 
REMARK    2  A    between atoms: N1_3  and  C3_4 
REMARK    3  A    between atoms: N1_3  and  C5_6 
REMARK    4  A    between atoms: C5_6  and  C6_7 
REMARK    5  A    between atoms: C6_7  and  N2_8 
REMARK    6  A    between atoms: C20_27  and  N5_28 
ROOT
HETATM    1  N2  UNL     1     -21.289  -6.746  23.299  1.00  0.00    -0.306 N 
HETATM    2  C7  UNL     1     -22.144  -7.844  23.834  1.00  0.00     0.133 C 
HETATM    3  C8  UNL     1     -21.374  -8.795  24.678  1.00  0.00     0.021 C 
HETATM    4  C9  UNL     1     -22.307  -9.845  25.268  1.00  0.00     0.005 C 
HETATM    5  C10 UNL     1     -23.164  -9.325  26.369  1.00  0.00     0.027 C 
HETATM    6  C11 UNL     1     -22.966 -10.118  27.622  1.00  0.00    -0.031 C 
HETATM    7  C12 UNL     1     -23.836 -10.231  28.591  1.00  0.00    -0.031 C 
HETATM    8  C13 UNL     1     -25.174  -9.580  28.595  1.00  0.00     0.027 C 
HETATM    9  C14 UNL     1     -25.105  -8.094  28.361  1.00  0.00     0.006 C 
HETATM   10  C15 UNL     1     -25.969  -7.300  29.308  1.00  0.00     0.027 C 
HETATM   11  C16 UNL     1     -26.235  -5.947  28.611  1.00  0.00     0.176 C 
HETATM   12  O1  UNL     1     -26.541  -5.074  29.639  1.00  0.00    -0.345 OA
HETATM   13  C17 UNL     1     -27.475  -4.116  29.840  1.00  0.00     0.142 A 
HETATM   14  C18 UNL     1     -27.701  -3.005  29.050  1.00  0.00     0.105 A 
HETATM   15  N3  UNL     1     -28.696  -2.114  29.391  1.00  0.00    -0.348 N 
ATOM     16  H3  UNL     1     -28.847  -1.300  28.794  1.00  0.00     0.167 HD
HETATM   17  C19 UNL     1     -29.472  -2.267  30.467  1.00  0.00     0.182 A 
HETATM   18  N4  UNL     1     -29.253  -3.339  31.228  1.00  0.00    -0.337 N 
ATOM     19  H4  UNL     1     -29.838  -3.471  32.054  1.00  0.00     0.168 HD
HETATM   20  C20 UNL     1     -28.307  -4.254  30.969  1.00  0.00     0.136 A 
HETATM   21  C21 UNL     1     -26.970  -2.615  27.857  1.00  0.00     0.109 C 
HETATM   22  C22 UNL     1     -26.781  -1.276  27.990  1.00  0.00     0.041 C 
HETATM   23  C23 UNL     1     -26.145  -0.227  27.209  1.00  0.00     0.026 C 
HETATM   24  C24 UNL     1     -25.202  -0.244  26.244  1.00  0.00     0.034 C 
HETATM   25 CL1  UNL     1     -24.812   1.349  25.652  1.00  0.00    -0.084 Cl
HETATM   26  C25 UNL     1     -24.465  -1.354  25.625  1.00  0.00     0.037 C 
HETATM   27  C26 UNL     1     -24.727  -2.683  25.338  1.00  0.00     0.021 C 
HETATM   28  C27 UNL     1     -23.427  -3.012  24.727  1.00  0.00     0.072 C 
HETATM   29  C28 UNL     1     -22.896  -4.402  24.901  1.00  0.00     0.185 C 
HETATM   30  O2  UNL     1     -22.965  -5.017  23.635  1.00  0.00    -0.303 OA
HETATM   31  C29 UNL     1     -21.927  -5.559  22.891  1.00  0.00     0.366 C 
HETATM   32  O3  UNL     1     -21.514  -5.021  21.829  1.00  0.00    -0.238 OA
HETATM   33  C30 UNL     1     -25.922  -3.421  25.609  1.00  0.00     0.294 C 
HETATM   34  O4  UNL     1     -26.572  -4.106  24.773  1.00  0.00    -0.259 OA
HETATM   35  O5  UNL     1     -26.608  -3.523  26.866  1.00  0.00    -0.273 OA
ENDROOT
BRANCH   1  36
HETATM   36  C6  UNL     1     -19.910  -7.010  23.244  1.00  0.00     0.099 C 
BRANCH  36  37
HETATM   37  C5  UNL     1     -18.982  -6.161  24.035  1.00  0.00     0.317 C 
BRANCH  37  38
HETATM   38  N1  UNL     1     -18.754  -6.588  25.402  1.00  0.00     0.092 N 
BRANCH  38  39
HETATM   39  C2  UNL     1     -19.454  -5.663  26.287  1.00  0.00     0.268 C 
HETATM   40  C1  UNL     1     -20.516  -6.257  27.124  1.00  0.00     0.037 C 
ENDBRANCH  38  39
BRANCH  38  41
HETATM   41  C3  UNL     1     -17.309  -6.403  25.680  1.00  0.00     0.268 C 
HETATM   42  C4  UNL     1     -16.870  -7.222  26.869  1.00  0.00     0.037 C 
ENDBRANCH  38  41
ENDBRANCH  37  38
ENDBRANCH  36  37
ENDBRANCH   1  36
BRANCH  20  43
HETATM   43  N5  UNL     1     -28.226  -5.219  31.820  1.00  0.00    -0.383 N 
ATOM     44  H52 UNL     1     -29.058  -5.369  32.389  1.00  0.00     0.157 HD
ATOM     45  H51 UNL     1     -27.401  -5.805  31.949  1.00  0.00     0.157 HD
ENDBRANCH  20  43
TORSDOF 6
ENDMDL
