MODEL 1
REMARK VINA RESULT: -8.891507355      0.000      0.000
REMARK  6 active torsions:
REMARK  status: ('A' for Active; 'I' for Inactive)
REMARK    1  A    between atoms: C8_10  and  N1_11 
REMARK       I    between atoms: N1_11  and  C9_13 
REMARK    2  A    between atoms: C9_13  and  C10_15 
REMARK    3  A    between atoms: C16_21  and  C17_22 
REMARK    4  A    between atoms: C23_33  and  O4_34 
REMARK    5  A    between atoms: O4_34  and  C24_35 
REMARK    6  A    between atoms: C30_41  and  O5_42 
ROOT
HETATM    1  C1  UNL     1     -28.903  -4.974  31.968  1.00  0.00     0.010 C 
HETATM    2  C2  UNL     1     -27.595  -4.891  32.725  1.00  0.00    -0.014 C 
HETATM    3  C3  UNL     1     -26.966  -6.274  32.876  1.00  0.00     0.023 C 
HETATM    4  C4  UNL     1     -25.861  -6.250  31.810  1.00  0.00     0.092 C 
HETATM    5  S1  UNL     1     -26.681  -6.534  30.223  1.00  0.00    -0.121 SA
HETATM    6  C5  UNL     1     -25.422  -7.171  29.088  1.00  0.00     0.021 A 
HETATM    7  C6  UNL     1     -26.073  -7.804  28.080  1.00  0.00     0.064 A 
HETATM    8  C7  UNL     1     -25.330  -8.360  27.089  1.00  0.00     0.145 A 
HETATM    9  F1  UNL     1     -26.022  -8.993  26.085  1.00  0.00    -0.204 F 
HETATM   10  C8  UNL     1     -23.984  -8.282  27.108  1.00  0.00     0.086 A 
HETATM   11  C16 UNL     1     -23.226  -7.635  28.130  1.00  0.00     0.024 A 
HETATM   12  C21 UNL     1     -24.023  -7.092  29.108  1.00  0.00     0.070 A 
HETATM   13  C22 UNL     1     -23.109  -6.493  30.068  1.00  0.00     0.298 C 
HETATM   14  O2  UNL     1     -22.090  -7.148  30.195  1.00  0.00    -0.259 OA
HETATM   15  O3  UNL     1     -23.249  -5.315  30.825  1.00  0.00    -0.282 OA
HETATM   16  C23 UNL     1     -24.303  -4.384  31.084  1.00  0.00     0.305 C 
HETATM   17  C30 UNL     1     -25.331  -4.864  32.004  1.00  0.00     0.121 C 
HETATM   18  C31 UNL     1     -26.568  -4.031  32.006  1.00  0.00     0.048 C 
ENDROOT
BRANCH  10  19
HETATM   19  N1  UNL     1     -23.284  -8.892  26.032  1.00  0.00    -0.323 N 
HETATM   20  C9  UNL     1     -23.018  -8.182  24.831  1.00  0.00     0.226 C 
HETATM   21  O1  UNL     1     -23.399  -6.969  24.689  1.00  0.00    -0.273 OA
ATOM     22  H1  UNL     1     -22.967  -9.857  26.124  1.00  0.00     0.169 HD
BRANCH  20  23
HETATM   23  C10 UNL     1     -22.297  -8.786  23.690  1.00  0.00     0.078 C 
HETATM   24  C11 UNL     1     -21.962  -7.744  22.634  1.00  0.00     0.014 C 
HETATM   25  C12 UNL     1     -21.098  -8.436  21.600  1.00  0.00     0.001 C 
HETATM   26  C13 UNL     1     -21.932  -9.474  20.890  1.00  0.00     0.000 C 
HETATM   27  C14 UNL     1     -22.354 -10.504  21.919  1.00  0.00     0.001 C 
HETATM   28  C15 UNL     1     -23.126  -9.896  23.049  1.00  0.00     0.014 C 
ENDBRANCH  20  23
ENDBRANCH  10  19
BRANCH  11  29
HETATM   29  C17 UNL     1     -21.810  -7.571  28.000  1.00  0.00     0.011 A 
HETATM   30  C18 UNL     1     -20.880  -8.499  28.300  1.00  0.00     0.121 A 
HETATM   31  N2  UNL     1     -19.666  -8.039  27.938  1.00  0.00    -0.310 N 
HETATM   32  N3  UNL     1     -19.799  -6.832  27.412  1.00  0.00    -0.307 N 
ATOM     33  H2  UNL     1     -18.785  -8.541  28.053  1.00  0.00     0.186 HD
HETATM   34  C19 UNL     1     -18.726  -6.001  26.903  1.00  0.00     0.177 C 
HETATM   35  C20 UNL     1     -21.113  -6.539  27.447  1.00  0.00     0.123 A 
ENDBRANCH  11  29
BRANCH  16  36
HETATM   36  O4  UNL     1     -23.655  -3.277  31.627  1.00  0.00    -0.352 OA
BRANCH  36  37
HETATM   37  C24 UNL     1     -23.405  -2.263  30.734  1.00  0.00     0.124 C 
HETATM   38  C25 UNL     1     -24.490  -1.223  30.852  1.00  0.00     0.032 C 
HETATM   39  C26 UNL     1     -24.772  -1.084  32.342  1.00  0.00     0.002 C 
HETATM   40  C27 UNL     1     -23.492  -0.839  33.113  1.00  0.00     0.000 C 
HETATM   41  C28 UNL     1     -22.374  -0.473  32.150  1.00  0.00     0.002 C 
HETATM   42  C29 UNL     1     -22.076  -1.626  31.218  1.00  0.00     0.032 C 
ENDBRANCH  36  37
ENDBRANCH  16  36
BRANCH  17  43
HETATM   43  O5  UNL     1     -24.804  -4.847  33.315  1.00  0.00    -0.384 OA
ATOM     44  H5  UNL     1     -24.645  -3.930  33.509  1.00  0.00     0.210 HD
ENDBRANCH  17  43
TORSDOF 6
ENDMDL
MODEL 2
REMARK VINA RESULT: -8.815540298      3.300      8.194
REMARK  6 active torsions:
REMARK  status: ('A' for Active; 'I' for Inactive)
REMARK    1  A    between atoms: C8_10  and  N1_11 
REMARK       I    between atoms: N1_11  and  C9_13 
REMARK    2  A    between atoms: C9_13  and  C10_15 
REMARK    3  A    between atoms: C16_21  and  C17_22 
REMARK    4  A    between atoms: C23_33  and  O4_34 
REMARK    5  A    between atoms: O4_34  and  C24_35 
REMARK    6  A    between atoms: C30_41  and  O5_42 
ROOT
HETATM    1  C1  UNL     1     -19.674  -9.090  22.142  1.00  0.00     0.010 C 
HETATM    2  C2  UNL     1     -20.548  -7.897  21.820  1.00  0.00    -0.014 C 
HETATM    3  C3  UNL     1     -22.023  -8.293  21.808  1.00  0.00     0.023 C 
HETATM    4  C4  UNL     1     -22.517  -7.755  23.159  1.00  0.00     0.092 C 
HETATM    5  S1  UNL     1     -21.966  -8.940  24.410  1.00  0.00    -0.121 SA
HETATM    6  C5  UNL     1     -23.051  -8.733  25.844  1.00  0.00     0.021 A 
HETATM    7  C6  UNL     1     -22.965  -9.869  26.579  1.00  0.00     0.064 A 
HETATM    8  C7  UNL     1     -23.691  -9.945  27.724  1.00  0.00     0.145 A 
HETATM    9  F1  UNL     1     -23.581 -11.111  28.444  1.00  0.00    -0.204 F 
HETATM   10  C8  UNL     1     -24.473  -8.920  28.117  1.00  0.00     0.086 A 
HETATM   11  C16 UNL     1     -24.616  -7.693  27.401  1.00  0.00     0.024 A 
HETATM   12  C21 UNL     1     -23.864  -7.667  26.251  1.00  0.00     0.070 A 
HETATM   13  C22 UNL     1     -24.132  -6.374  25.640  1.00  0.00     0.298 C 
HETATM   14  O2  UNL     1     -25.289  -6.027  25.799  1.00  0.00    -0.259 OA
HETATM   15  O3  UNL     1     -23.266  -5.524  24.927  1.00  0.00    -0.282 OA
HETATM   16  C23 UNL     1     -21.941  -5.620  24.401  1.00  0.00     0.305 C 
HETATM   17  C30 UNL     1     -21.819  -6.433  23.194  1.00  0.00     0.121 C 
HETATM   18  C31 UNL     1     -20.412  -6.790  22.853  1.00  0.00     0.048 C 
ENDROOT
BRANCH  10  19
HETATM   19  N1  UNL     1     -25.199  -9.084  29.327  1.00  0.00    -0.323 N 
HETATM   20  C9  UNL     1     -24.599  -8.819  30.587  1.00  0.00     0.226 C 
HETATM   21  O1  UNL     1     -23.386  -8.419  30.664  1.00  0.00    -0.273 OA
ATOM     22  H1  UNL     1     -26.168  -9.398  29.291  1.00  0.00     0.169 HD
BRANCH  20  23
HETATM   23  C10 UNL     1     -25.323  -8.983  31.866  1.00  0.00     0.078 C 
HETATM   24  C11 UNL     1     -25.110  -7.785  32.780  1.00  0.00     0.014 C 
HETATM   25  C12 UNL     1     -26.013  -7.989  33.979  1.00  0.00     0.001 C 
HETATM   26  C13 UNL     1     -25.519  -9.182  34.759  1.00  0.00     0.000 C 
HETATM   27  C14 UNL     1     -25.643 -10.398  33.863  1.00  0.00     0.001 C 
HETATM   28  C15 UNL     1     -24.870 -10.248  32.589  1.00  0.00     0.014 C 
ENDBRANCH  20  23
ENDBRANCH  10  19
BRANCH  11  29
HETATM   29  C17 UNL     1     -25.427  -6.664  27.956  1.00  0.00     0.011 A 
HETATM   30  C18 UNL     1     -26.764  -6.503  27.900  1.00  0.00     0.121 A 
HETATM   31  N2  UNL     1     -27.110  -5.428  28.637  1.00  0.00    -0.310 N 
HETATM   32  N3  UNL     1     -26.019  -4.895  29.165  1.00  0.00    -0.307 N 
ATOM     33  H2  UNL     1     -28.061  -5.082  28.766  1.00  0.00     0.186 HD
HETATM   34  C19 UNL     1     -25.970  -3.726  30.020  1.00  0.00     0.177 C 
HETATM   35  C20 UNL     1     -24.983  -5.649  28.750  1.00  0.00     0.123 A 
ENDBRANCH  11  29
BRANCH  16  36
HETATM   36  O4  UNL     1     -21.585  -4.301  24.128  1.00  0.00    -0.352 OA
BRANCH  36  37
HETATM   37  C24 UNL     1     -20.404  -3.894  24.699  1.00  0.00     0.124 C 
HETATM   38  C25 UNL     1     -20.244  -2.409  24.496  1.00  0.00     0.032 C 
HETATM   39  C26 UNL     1     -21.626  -1.807  24.719  1.00  0.00     0.002 C 
HETATM   40  C27 UNL     1     -22.208  -2.267  26.039  1.00  0.00     0.000 C 
HETATM   41  C28 UNL     1     -21.119  -2.906  26.886  1.00  0.00     0.002 C 
HETATM   42  C29 UNL     1     -20.587  -4.153  26.217  1.00  0.00     0.032 C 
ENDBRANCH  36  37
ENDBRANCH  16  36
BRANCH  17  43
HETATM   43  O5  UNL     1     -22.348  -5.702  22.106  1.00  0.00    -0.384 OA
ATOM     44  H5  UNL     1     -22.537  -4.838  22.453  1.00  0.00     0.210 HD
ENDBRANCH  17  43
TORSDOF 6
ENDMDL
MODEL 3
REMARK VINA RESULT: -8.724499666      1.071      1.612
REMARK  6 active torsions:
REMARK  status: ('A' for Active; 'I' for Inactive)
REMARK    1  A    between atoms: C8_10  and  N1_11 
REMARK       I    between atoms: N1_11  and  C9_13 
REMARK    2  A    between atoms: C9_13  and  C10_15 
REMARK    3  A    between atoms: C16_21  and  C17_22 
REMARK    4  A    between atoms: C23_33  and  O4_34 
REMARK    5  A    between atoms: O4_34  and  C24_35 
REMARK    6  A    between atoms: C30_41  and  O5_42 
ROOT
HETATM    1  C1  UNL     1     -27.611  -4.897  32.430  1.00  0.00     0.010 C 
HETATM    2  C2  UNL     1     -26.229  -4.887  33.048  1.00  0.00    -0.014 C 
HETATM    3  C3  UNL     1     -25.645  -6.296  33.093  1.00  0.00     0.023 C 
HETATM    4  C4  UNL     1     -24.657  -6.280  31.917  1.00  0.00     0.092 C 
HETATM    5  S1  UNL     1     -25.649  -6.484  30.419  1.00  0.00    -0.121 SA
HETATM    6  C5  UNL     1     -24.542  -7.132  29.140  1.00  0.00     0.021 A 
HETATM    7  C6  UNL     1     -25.319  -7.708  28.190  1.00  0.00     0.064 A 
HETATM    8  C7  UNL     1     -24.707  -8.260  27.112  1.00  0.00     0.145 A 
HETATM    9  F1  UNL     1     -25.525  -8.835  26.169  1.00  0.00    -0.204 F 
HETATM   10  C8  UNL     1     -23.364  -8.234  26.991  1.00  0.00     0.086 A 
HETATM   11  C16 UNL     1     -22.479  -7.647  27.944  1.00  0.00     0.024 A 
HETATM   12  C21 UNL     1     -23.146  -7.105  29.015  1.00  0.00     0.070 A 
HETATM   13  C22 UNL     1     -22.113  -6.571  29.889  1.00  0.00     0.298 C 
HETATM   14  O2  UNL     1     -21.114  -7.268  29.890  1.00  0.00    -0.259 OA
HETATM   15  O3  UNL     1     -22.126  -5.413  30.688  1.00  0.00    -0.282 OA
HETATM   16  C23 UNL     1     -23.109  -4.452  31.082  1.00  0.00     0.305 C 
HETATM   17  C30 UNL     1     -24.054  -4.922  32.092  1.00  0.00     0.121 C 
HETATM   18  C31 UNL     1     -25.249  -4.044  32.247  1.00  0.00     0.048 C 
ENDROOT
BRANCH  10  19
HETATM   19  N1  UNL     1     -22.806  -8.835  25.831  1.00  0.00    -0.323 N 
HETATM   20  C9  UNL     1     -22.673  -8.109  24.617  1.00  0.00     0.226 C 
HETATM   21  O1  UNL     1     -23.051  -6.890  24.538  1.00  0.00    -0.273 OA
ATOM     22  H1  UNL     1     -22.494  -9.805  25.870  1.00  0.00     0.169 HD
BRANCH  20  23
HETATM   23  C10 UNL     1     -22.101  -8.705  23.390  1.00  0.00     0.078 C 
HETATM   24  C11 UNL     1     -22.025  -7.684  22.264  1.00  0.00     0.014 C 
HETATM   25  C12 UNL     1     -21.288  -8.353  21.122  1.00  0.00     0.001 C 
HETATM   26  C13 UNL     1     -22.142  -9.475  20.587  1.00  0.00     0.000 C 
HETATM   27  C14 UNL     1     -22.310 -10.492  21.700  1.00  0.00     0.001 C 
HETATM   28  C15 UNL     1     -22.933  -9.897  22.925  1.00  0.00     0.014 C 
ENDBRANCH  20  23
ENDBRANCH  10  19
BRANCH  11  29
HETATM   29  C17 UNL     1     -21.082  -7.632  27.667  1.00  0.00     0.011 A 
HETATM   30  C18 UNL     1     -20.163  -8.600  27.849  1.00  0.00     0.121 A 
HETATM   31  N2  UNL     1     -18.976  -8.177  27.370  1.00  0.00    -0.310 N 
HETATM   32  N3  UNL     1     -19.116  -6.953  26.886  1.00  0.00    -0.307 N 
ATOM     33  H2  UNL     1     -18.109  -8.713  27.381  1.00  0.00     0.186 HD
HETATM   34  C19 UNL     1     -18.070  -6.149  26.284  1.00  0.00     0.177 C 
HETATM   35  C20 UNL     1     -20.406  -6.613  27.065  1.00  0.00     0.123 A 
ENDBRANCH  11  29
BRANCH  16  36
HETATM   36  O4  UNL     1     -22.363  -3.387  31.584  1.00  0.00    -0.352 OA
BRANCH  36  37
HETATM   37  C24 UNL     1     -22.711  -2.156  31.082  1.00  0.00     0.124 C 
HETATM   38  C25 UNL     1     -21.536  -1.221  31.211  1.00  0.00     0.032 C 
HETATM   39  C26 UNL     1     -20.307  -2.046  30.848  1.00  0.00     0.002 C 
HETATM   40  C27 UNL     1     -20.497  -2.740  29.515  1.00  0.00     0.000 C 
HETATM   41  C28 UNL     1     -21.696  -2.146  28.793  1.00  0.00     0.002 C 
HETATM   42  C29 UNL     1     -22.967  -2.400  29.573  1.00  0.00     0.032 C 
ENDBRANCH  36  37
ENDBRANCH  16  36
BRANCH  17  43
HETATM   43  O5  UNL     1     -23.392  -4.965  33.340  1.00  0.00    -0.384 OA
ATOM     44  H5  UNL     1     -23.946  -5.498  33.899  1.00  0.00     0.210 HD
ENDBRANCH  17  43
TORSDOF 6
ENDMDL
MODEL 4
REMARK VINA RESULT: -8.673455985      2.790      3.782
REMARK  6 active torsions:
REMARK  status: ('A' for Active; 'I' for Inactive)
REMARK    1  A    between atoms: C8_10  and  N1_11 
REMARK       I    between atoms: N1_11  and  C9_13 
REMARK    2  A    between atoms: C9_13  and  C10_15 
REMARK    3  A    between atoms: C16_21  and  C17_22 
REMARK    4  A    between atoms: C23_33  and  O4_34 
REMARK    5  A    between atoms: O4_34  and  C24_35 
REMARK    6  A    between atoms: C30_41  and  O5_42 
ROOT
HETATM    1  C1  UNL     1     -25.681 -10.089  32.994  1.00  0.00     0.010 C 
HETATM    2  C2  UNL     1     -25.357  -8.622  33.171  1.00  0.00    -0.014 C 
HETATM    3  C3  UNL     1     -23.888  -8.349  32.857  1.00  0.00     0.023 C 
HETATM    4  C4  UNL     1     -23.962  -7.727  31.454  1.00  0.00     0.092 C 
HETATM    5  S1  UNL     1     -24.199  -9.102  30.303  1.00  0.00    -0.121 SA
HETATM    6  C5  UNL     1     -23.629  -8.532  28.681  1.00  0.00     0.021 A 
HETATM    7  C6  UNL     1     -23.369  -9.636  27.936  1.00  0.00     0.064 A 
HETATM    8  C7  UNL     1     -22.935  -9.459  26.662  1.00  0.00     0.145 A 
HETATM    9  F1  UNL     1     -22.682 -10.599  25.937  1.00  0.00    -0.204 F 
HETATM   10  C8  UNL     1     -22.768  -8.221  26.155  1.00  0.00     0.086 A 
HETATM   11  C16 UNL     1     -23.020  -7.014  26.871  1.00  0.00     0.024 A 
HETATM   12  C21 UNL     1     -23.455  -7.246  28.154  1.00  0.00     0.070 A 
HETATM   13  C22 UNL     1     -23.647  -5.931  28.744  1.00  0.00     0.298 C 
HETATM   14  O2  UNL     1     -22.811  -5.133  28.359  1.00  0.00    -0.259 OA
HETATM   15  O3  UNL     1     -24.625  -5.493  29.657  1.00  0.00    -0.282 OA
HETATM   16  C23 UNL     1     -25.641  -6.116  30.446  1.00  0.00     0.305 C 
HETATM   17  C30 UNL     1     -25.151  -6.834  31.619  1.00  0.00     0.121 C 
HETATM   18  C31 UNL     1     -26.165  -7.737  32.234  1.00  0.00     0.048 C 
ENDROOT
BRANCH  10  19
HETATM   19  N1  UNL     1     -22.309  -8.127  24.813  1.00  0.00    -0.323 N 
HETATM   20  C9  UNL     1     -20.940  -8.322  24.488  1.00  0.00     0.226 C 
HETATM   21  O1  UNL     1     -20.083  -8.592  25.399  1.00  0.00    -0.273 OA
ATOM     22  H1  UNL     1     -22.974  -7.917  24.070  1.00  0.00     0.169 HD
BRANCH  20  23
HETATM   23  C10 UNL     1     -20.427  -8.227  23.104  1.00  0.00     0.078 C 
HETATM   24  C11 UNL     1     -19.384  -7.127  22.976  1.00  0.00     0.014 C 
HETATM   25  C12 UNL     1     -18.822  -7.223  21.573  1.00  0.00     0.001 C 
HETATM   26  C13 UNL     1     -19.908  -6.862  20.591  1.00  0.00     0.000 C 
HETATM   27  C14 UNL     1     -21.012  -7.893  20.730  1.00  0.00     0.001 C 
HETATM   28  C15 UNL     1     -21.562  -7.954  22.121  1.00  0.00     0.014 C 
ENDBRANCH  20  23
ENDBRANCH  10  19
BRANCH  11  29
HETATM   29  C17 UNL     1     -22.863  -5.769  26.198  1.00  0.00     0.011 A 
HETATM   30  C18 UNL     1     -21.739  -5.070  25.943  1.00  0.00     0.121 A 
HETATM   31  N2  UNL     1     -22.052  -3.984  25.207  1.00  0.00    -0.310 N 
HETATM   32  N3  UNL     1     -23.358  -3.973  24.986  1.00  0.00    -0.307 N 
ATOM     33  H2  UNL     1     -21.390  -3.284  24.875  1.00  0.00     0.186 HD
HETATM   34  C19 UNL     1     -24.087  -2.970  24.237  1.00  0.00     0.177 C 
HETATM   35  C20 UNL     1     -23.860  -5.066  25.593  1.00  0.00     0.123 A 
ENDBRANCH  11  29
BRANCH  16  36
HETATM   36  O4  UNL     1     -26.463  -5.061  30.839  1.00  0.00    -0.352 OA
BRANCH  36  37
HETATM   37  C24 UNL     1     -27.761  -5.150  30.400  1.00  0.00     0.124 C 
HETATM   38  C25 UNL     1     -28.681  -5.215  31.592  1.00  0.00     0.032 C 
HETATM   39  C26 UNL     1     -28.121  -4.224  32.605  1.00  0.00     0.002 C 
HETATM   40  C27 UNL     1     -27.907  -2.866  31.967  1.00  0.00     0.000 C 
HETATM   41  C28 UNL     1     -28.621  -2.809  30.627  1.00  0.00     0.002 C 
HETATM   42  C29 UNL     1     -28.025  -3.812  29.663  1.00  0.00     0.032 C 
ENDBRANCH  36  37
ENDBRANCH  16  36
BRANCH  17  43
HETATM   43  O5  UNL     1     -24.774  -5.888  32.599  1.00  0.00    -0.384 OA
ATOM     44  H5  UNL     1     -25.389  -5.170  32.504  1.00  0.00     0.210 HD
ENDBRANCH  17  43
TORSDOF 6
ENDMDL
MODEL 5
REMARK VINA RESULT: -8.670486730      2.817      3.896
REMARK  6 active torsions:
REMARK  status: ('A' for Active; 'I' for Inactive)
REMARK    1  A    between atoms: C8_10  and  N1_11 
REMARK       I    between atoms: N1_11  and  C9_13 
REMARK    2  A    between atoms: C9_13  and  C10_15 
REMARK    3  A    between atoms: C16_21  and  C17_22 
REMARK    4  A    between atoms: C23_33  and  O4_34 
REMARK    5  A    between atoms: O4_34  and  C24_35 
REMARK    6  A    between atoms: C30_41  and  O5_42 
ROOT
HETATM    1  C1  UNL     1     -25.791 -10.875  33.454  1.00  0.00     0.010 C 
HETATM    2  C2  UNL     1     -25.560  -9.410  33.757  1.00  0.00    -0.014 C 
HETATM    3  C3  UNL     1     -24.110  -9.021  33.482  1.00  0.00     0.023 C 
HETATM    4  C4  UNL     1     -24.216  -8.289  32.136  1.00  0.00     0.092 C 
HETATM    5  S1  UNL     1     -24.360  -9.574  30.870  1.00  0.00    -0.121 SA
HETATM    6  C5  UNL     1     -23.819  -8.834  29.308  1.00  0.00     0.021 A 
HETATM    7  C6  UNL     1     -23.487  -9.852  28.476  1.00  0.00     0.064 A 
HETATM    8  C7  UNL     1     -23.058  -9.542  27.226  1.00  0.00     0.145 A 
HETATM    9  F1  UNL     1     -22.730 -10.598  26.410  1.00  0.00    -0.204 F 
HETATM   10  C8  UNL     1     -22.967  -8.258  26.826  1.00  0.00     0.086 A 
HETATM   11  C16 UNL     1     -23.298  -7.133  27.638  1.00  0.00     0.024 A 
HETATM   12  C21 UNL     1     -23.724  -7.500  28.892  1.00  0.00     0.070 A 
HETATM   13  C22 UNL     1     -24.001  -6.254  29.590  1.00  0.00     0.298 C 
HETATM   14  O2  UNL     1     -23.215  -5.375  29.282  1.00  0.00    -0.259 OA
HETATM   15  O3  UNL     1     -25.009  -5.956  30.526  1.00  0.00    -0.282 OA
HETATM   16  C23 UNL     1     -25.988  -6.706  31.249  1.00  0.00     0.305 C 
HETATM   17  C30 UNL     1     -25.459  -7.489  32.363  1.00  0.00     0.121 C 
HETATM   18  C31 UNL     1     -26.417  -8.502  32.889  1.00  0.00     0.048 C 
ENDROOT
BRANCH  10  19
HETATM   19  N1  UNL     1     -22.508  -8.022  25.501  1.00  0.00    -0.323 N 
HETATM   20  C9  UNL     1     -21.120  -7.992  25.198  1.00  0.00     0.226 C 
HETATM   21  O1  UNL     1     -20.246  -8.182  26.112  1.00  0.00    -0.273 OA
ATOM     22  H1  UNL     1     -23.187  -7.872  24.756  1.00  0.00     0.169 HD
BRANCH  20  23
HETATM   23  C10 UNL     1     -20.608  -7.746  23.833  1.00  0.00     0.078 C 
HETATM   24  C11 UNL     1     -21.640  -7.026  22.977  1.00  0.00     0.014 C 
HETATM   25  C12 UNL     1     -20.958  -6.690  21.667  1.00  0.00     0.001 C 
HETATM   26  C13 UNL     1     -20.656  -7.974  20.935  1.00  0.00     0.000 C 
HETATM   27  C14 UNL     1     -19.681  -8.766  21.785  1.00  0.00     0.001 C 
HETATM   28  C15 UNL     1     -20.223  -9.056  23.151  1.00  0.00     0.014 C 
ENDBRANCH  20  23
ENDBRANCH  10  19
BRANCH  11  29
HETATM   29  C17 UNL     1     -23.216  -5.829  27.075  1.00  0.00     0.011 A 
HETATM   30  C18 UNL     1     -22.159  -4.996  26.993  1.00  0.00     0.121 A 
HETATM   31  N2  UNL     1     -22.517  -3.894  26.304  1.00  0.00    -0.310 N 
HETATM   32  N3  UNL     1     -23.786  -4.004  25.942  1.00  0.00    -0.307 N 
ATOM     33  H2  UNL     1     -21.909  -3.103  26.095  1.00  0.00     0.186 HD
HETATM   34  C19 UNL     1     -24.545  -3.026  25.187  1.00  0.00     0.177 C 
HETATM   35  C20 UNL     1     -24.220  -5.189  26.412  1.00  0.00     0.123 A 
ENDBRANCH  11  29
BRANCH  16  36
HETATM   36  O4  UNL     1     -26.876  -5.741  31.721  1.00  0.00    -0.352 OA
BRANCH  36  37
HETATM   37  C24 UNL     1     -28.156  -5.853  31.236  1.00  0.00     0.124 C 
HETATM   38  C25 UNL     1     -29.028  -4.818  31.900  1.00  0.00     0.032 C 
HETATM   39  C26 UNL     1     -28.184  -3.552  31.979  1.00  0.00     0.002 C 
HETATM   40  C27 UNL     1     -27.607  -3.204  30.622  1.00  0.00     0.000 C 
HETATM   41  C28 UNL     1     -28.307  -4.014  29.543  1.00  0.00     0.002 C 
HETATM   42  C29 UNL     1     -28.045  -5.492  29.732  1.00  0.00     0.032 C 
ENDBRANCH  36  37
ENDBRANCH  16  36
BRANCH  17  43
HETATM   43  O5  UNL     1     -25.147  -6.607  33.422  1.00  0.00    -0.384 OA
ATOM     44  H5  UNL     1     -25.984  -6.367  33.804  1.00  0.00     0.210 HD
ENDBRANCH  17  43
TORSDOF 6
ENDMDL
