MODEL 1
REMARK VINA RESULT: -10.471504572      0.000      0.000
REMARK  8 active torsions:
REMARK  status: ('A' for Active; 'I' for Inactive)
REMARK    1  A    between atoms: C2_5  and  N3_6 
REMARK    2  A    between atoms: N3_6  and  C3_8 
REMARK    3  A    between atoms: C13_20  and  C14_21 
REMARK    4  A    between atoms: C14_21  and  C29_44 
REMARK    5  A    between atoms: N4_22  and  N5_24 
REMARK    6  A    between atoms: N5_24  and  C15_26 
REMARK    7  A    between atoms: N6_28  and  O1_29 
REMARK    8  A    between atoms: N7_37  and  C23_38 
ROOT
HETATM    1  C14 UNL     1     -23.500  -7.756  28.698  1.00  0.00     0.102 C 
HETATM    2  N4  UNL     1     -24.032  -8.734  29.373  1.00  0.00    -0.295 N 
ATOM      3  H4  UNL     1     -23.670  -9.674  29.211  1.00  0.00     0.187 HD
ENDROOT
BRANCH   1   4
HETATM    4  C13 UNL     1     -22.429  -8.105  27.771  1.00  0.00     0.080 A 
HETATM    5  C1  UNL     1     -21.083  -8.041  27.981  1.00  0.00     0.138 A 
HETATM    6  N1  UNL     1     -20.552  -7.578  29.257  1.00  0.00    -0.081 NA
HETATM    7  N2  UNL     1     -20.293  -8.407  27.005  1.00  0.00    -0.324 N 
HETATM    8  C2  UNL     1     -20.836  -8.821  25.861  1.00  0.00     0.151 A 
ATOM      9  H2  UNL     1     -19.280  -8.375  27.118  1.00  0.00     0.169 HD
HETATM   10  S1  UNL     1     -22.507  -8.692  26.169  1.00  0.00    -0.048 SA
BRANCH   8  11
HETATM   11  N3  UNL     1     -20.209  -9.227  24.772  1.00  0.00    -0.336 N 
ATOM     12  H3  UNL     1     -19.232  -9.515  24.823  1.00  0.00     0.168 HD
BRANCH  11  13
HETATM   13  C3  UNL     1     -20.898  -9.260  23.530  1.00  0.00     0.045 A 
HETATM   14  C4  UNL     1     -21.979 -10.086  23.308  1.00  0.00     0.033 A 
HETATM   15  C5  UNL     1     -22.571 -10.037  22.067  1.00  0.00     0.045 A 
HETATM   16  C6  UNL     1     -22.148  -9.224  21.057  1.00  0.00     0.127 A 
HETATM   17  F1  UNL     1     -22.715  -9.160  19.829  1.00  0.00    -0.205 F 
HETATM   18  C7  UNL     1     -21.062  -8.404  21.301  1.00  0.00     0.015 A 
HETATM   19  C8  UNL     1     -20.601  -7.556  20.291  1.00  0.00     0.015 A 
HETATM   20  C12 UNL     1     -20.437  -8.418  22.527  1.00  0.00     0.004 A 
HETATM   21  C9  UNL     1     -19.513  -6.755  20.580  1.00  0.00     0.001 A 
HETATM   22  C10 UNL     1     -18.883  -6.762  21.800  1.00  0.00     0.001 A 
HETATM   23  C11 UNL     1     -19.341  -7.592  22.781  1.00  0.00     0.014 A 
ENDBRANCH  11  13
ENDBRANCH   8  11
ENDBRANCH   1   4
BRANCH   1  24
HETATM   24  C29 UNL     1     -23.986  -6.421  28.904  1.00  0.00     0.104 A 
HETATM   25  C30 UNL     1     -23.321  -5.271  29.194  1.00  0.00     0.041 A 
HETATM   26  C31 UNL     1     -24.253  -4.248  29.292  1.00  0.00     0.027 A 
HETATM   27  C32 UNL     1     -25.456  -4.849  29.052  1.00  0.00     0.142 A 
HETATM   28  O2  UNL     1     -25.255  -6.099  28.834  1.00  0.00    -0.320 OA
ENDBRANCH   1  24
BRANCH   2  29
HETATM   29  N5  UNL     1     -25.048  -8.590  30.288  1.00  0.00    -0.283 N 
ATOM     30  H5  UNL     1     -25.790  -7.924  30.072  1.00  0.00     0.188 HD
BRANCH  29  31
HETATM   31  C15 UNL     1     -25.129  -9.238  31.398  1.00  0.00     0.145 A 
HETATM   32  C16 UNL     1     -24.816 -10.576  31.451  1.00  0.00     0.173 A 
HETATM   33  N6  UNL     1     -24.900 -11.266  32.622  1.00  0.00    -0.230 N 
HETATM   34  C17 UNL     1     -25.288 -10.654  33.746  1.00  0.00     0.089 A 
HETATM   35  C18 UNL     1     -25.356 -11.396  34.904  1.00  0.00     0.034 A 
HETATM   36  C22 UNL     1     -25.605  -9.311  33.707  1.00  0.00     0.070 A 
HETATM   37  C19 UNL     1     -25.750 -10.800  36.068  1.00  0.00     0.002 A 
HETATM   38  C20 UNL     1     -26.073  -9.451  36.051  1.00  0.00     0.002 A 
HETATM   39  C21 UNL     1     -25.998  -8.720  34.871  1.00  0.00     0.032 A 
HETATM   40  N7  UNL     1     -25.519  -8.629  32.529  1.00  0.00    -0.293 N 
BRANCH  33  41
HETATM   41  O1  UNL     1     -24.579 -12.586  32.615  1.00  0.00    -0.283 OA
ATOM     42  H1  UNL     1     -25.128 -13.185  33.108  1.00  0.00     0.245 HD
ENDBRANCH  33  41
BRANCH  40  43
HETATM   43  C23 UNL     1     -25.859  -7.251  32.559  1.00  0.00     0.041 A 
HETATM   44  C24 UNL     1     -24.857  -6.326  32.819  1.00  0.00     0.030 A 
HETATM   45  C25 UNL     1     -25.178  -4.995  32.847  1.00  0.00     0.002 A 
HETATM   46  C26 UNL     1     -26.463  -4.552  32.626  1.00  0.00     0.000 A 
HETATM   47  C27 UNL     1     -27.449  -5.474  32.368  1.00  0.00     0.002 A 
HETATM   48  C28 UNL     1     -27.150  -6.806  32.335  1.00  0.00     0.030 A 
ENDBRANCH  40  43
ENDBRANCH  29  31
ENDBRANCH   2  29
TORSDOF 8
ENDMDL
MODEL 2
REMARK VINA RESULT: -10.341426280      1.698      2.357
REMARK  8 active torsions:
REMARK  status: ('A' for Active; 'I' for Inactive)
REMARK    1  A    between atoms: C2_5  and  N3_6 
REMARK    2  A    between atoms: N3_6  and  C3_8 
REMARK    3  A    between atoms: C13_20  and  C14_21 
REMARK    4  A    between atoms: C14_21  and  C29_44 
REMARK    5  A    between atoms: N4_22  and  N5_24 
REMARK    6  A    between atoms: N5_24  and  C15_26 
REMARK    7  A    between atoms: N6_28  and  O1_29 
REMARK    8  A    between atoms: N7_37  and  C23_38 
ROOT
HETATM    1  C14 UNL     1     -23.575  -7.857  27.851  1.00  0.00     0.102 C 
HETATM    2  N4  UNL     1     -24.460  -8.528  28.531  1.00  0.00    -0.295 N 
ATOM      3  H4  UNL     1     -24.854  -9.364  28.101  1.00  0.00     0.187 HD
ENDROOT
BRANCH   1   4
HETATM    4  C13 UNL     1     -23.234  -8.374  26.530  1.00  0.00     0.080 A 
HETATM    5  C1  UNL     1     -22.743  -9.605  26.212  1.00  0.00     0.138 A 
HETATM    6  N1  UNL     1     -22.495 -10.597  27.252  1.00  0.00    -0.081 NA
HETATM    7  N2  UNL     1     -22.505  -9.864  24.952  1.00  0.00    -0.324 N 
HETATM    8  C2  UNL     1     -22.752  -8.918  24.047  1.00  0.00     0.151 A 
ATOM      9  H2  UNL     1     -22.138 -10.772  24.668  1.00  0.00     0.169 HD
HETATM   10  S1  UNL     1     -23.335  -7.629  24.996  1.00  0.00    -0.048 SA
BRANCH   8  11
HETATM   11  N3  UNL     1     -22.578  -8.990  22.740  1.00  0.00    -0.336 N 
ATOM     12  H3  UNL     1     -23.305  -9.393  22.149  1.00  0.00     0.168 HD
BRANCH  11  13
HETATM   13  C3  UNL     1     -21.375  -8.505  22.159  1.00  0.00     0.045 A 
HETATM   14  C4  UNL     1     -20.137  -9.001  22.502  1.00  0.00     0.033 A 
HETATM   15  C5  UNL     1     -19.039  -8.457  21.877  1.00  0.00     0.045 A 
HETATM   16  C6  UNL     1     -19.112  -7.463  20.946  1.00  0.00     0.127 A 
HETATM   17  F1  UNL     1     -18.045  -6.913  20.318  1.00  0.00    -0.205 F 
HETATM   18  C7  UNL     1     -20.364  -6.978  20.616  1.00  0.00     0.015 A 
HETATM   19  C8  UNL     1     -20.478  -5.961  19.666  1.00  0.00     0.015 A 
HETATM   20  C12 UNL     1     -21.491  -7.492  21.216  1.00  0.00     0.004 A 
HETATM   21  C9  UNL     1     -21.750  -5.508  19.369  1.00  0.00     0.001 A 
HETATM   22  C10 UNL     1     -22.881  -6.014  19.961  1.00  0.00     0.001 A 
HETATM   23  C11 UNL     1     -22.760  -7.008  20.887  1.00  0.00     0.014 A 
ENDBRANCH  11  13
ENDBRANCH   8  11
ENDBRANCH   1   4
BRANCH   1  24
HETATM   24  C29 UNL     1     -23.000  -6.676  28.429  1.00  0.00     0.104 A 
HETATM   25  C30 UNL     1     -23.061  -5.377  28.034  1.00  0.00     0.041 A 
HETATM   26  C31 UNL     1     -22.333  -4.617  28.939  1.00  0.00     0.027 A 
HETATM   27  C32 UNL     1     -21.863  -5.519  29.851  1.00  0.00     0.142 A 
HETATM   28  O2  UNL     1     -22.271  -6.691  29.519  1.00  0.00    -0.320 OA
ENDBRANCH   1  24
BRANCH   2  29
HETATM   29  N5  UNL     1     -24.900  -8.189  29.789  1.00  0.00    -0.283 N 
ATOM     30  H5  UNL     1     -25.217  -7.231  29.938  1.00  0.00     0.188 HD
BRANCH  29  31
HETATM   31  C15 UNL     1     -24.940  -8.996  30.792  1.00  0.00     0.145 A 
HETATM   32  C16 UNL     1     -24.682 -10.336  30.621  1.00  0.00     0.173 A 
HETATM   33  N6  UNL     1     -24.722 -11.194  31.677  1.00  0.00    -0.230 N 
HETATM   34  C17 UNL     1     -25.014 -10.750  32.904  1.00  0.00     0.089 A 
HETATM   35  C18 UNL     1     -25.042 -11.657  33.939  1.00  0.00     0.034 A 
HETATM   36  C22 UNL     1     -25.275  -9.406  33.090  1.00  0.00     0.070 A 
HETATM   37  C19 UNL     1     -25.337 -11.235  35.203  1.00  0.00     0.002 A 
HETATM   38  C20 UNL     1     -25.603  -9.889  35.412  1.00  0.00     0.002 A 
HETATM   39  C21 UNL     1     -25.569  -8.988  34.354  1.00  0.00     0.032 A 
HETATM   40  N7  UNL     1     -25.233  -8.556  32.025  1.00  0.00    -0.293 N 
BRANCH  33  41
HETATM   41  O1  UNL     1     -24.459 -12.507  31.450  1.00  0.00    -0.283 OA
ATOM     42  H1  UNL     1     -23.675 -12.883  31.833  1.00  0.00     0.245 HD
ENDBRANCH  33  41
BRANCH  40  43
HETATM   43  C23 UNL     1     -25.511  -7.188  32.285  1.00  0.00     0.041 A 
HETATM   44  C24 UNL     1     -26.836  -6.777  32.331  1.00  0.00     0.030 A 
HETATM   45  C25 UNL     1     -27.112  -5.460  32.582  1.00  0.00     0.002 A 
HETATM   46  C26 UNL     1     -26.112  -4.535  32.790  1.00  0.00     0.000 A 
HETATM   47  C27 UNL     1     -24.803  -4.949  32.744  1.00  0.00     0.002 A 
HETATM   48  C28 UNL     1     -24.507  -6.259  32.495  1.00  0.00     0.030 A 
ENDBRANCH  40  43
ENDBRANCH  29  31
ENDBRANCH   2  29
TORSDOF 8
ENDMDL
MODEL 3
REMARK VINA RESULT: -10.309002868      0.817      1.709
REMARK  8 active torsions:
REMARK  status: ('A' for Active; 'I' for Inactive)
REMARK    1  A    between atoms: C2_5  and  N3_6 
REMARK    2  A    between atoms: N3_6  and  C3_8 
REMARK    3  A    between atoms: C13_20  and  C14_21 
REMARK    4  A    between atoms: C14_21  and  C29_44 
REMARK    5  A    between atoms: N4_22  and  N5_24 
REMARK    6  A    between atoms: N5_24  and  C15_26 
REMARK    7  A    between atoms: N6_28  and  O1_29 
REMARK    8  A    between atoms: N7_37  and  C23_38 
ROOT
HETATM    1  C14 UNL     1     -23.478  -7.635  28.713  1.00  0.00     0.102 C 
HETATM    2  N4  UNL     1     -23.970  -8.647  29.368  1.00  0.00    -0.295 N 
ATOM      3  H4  UNL     1     -23.537  -9.560  29.225  1.00  0.00     0.187 HD
ENDROOT
BRANCH   1   4
HETATM    4  C13 UNL     1     -22.347  -7.910  27.833  1.00  0.00     0.080 A 
HETATM    5  C1  UNL     1     -21.018  -7.780  28.109  1.00  0.00     0.138 A 
HETATM    6  N1  UNL     1     -20.574  -7.313  29.416  1.00  0.00    -0.081 NA
HETATM    7  N2  UNL     1     -20.164  -8.085  27.166  1.00  0.00    -0.324 N 
HETATM    8  C2  UNL     1     -20.630  -8.506  25.991  1.00  0.00     0.151 A 
ATOM      9  H2  UNL     1     -19.160  -8.002  27.328  1.00  0.00     0.169 HD
HETATM   10  S1  UNL     1     -22.318  -8.470  26.220  1.00  0.00    -0.048 SA
BRANCH   8  11
HETATM   11  N3  UNL     1     -19.931  -8.857  24.927  1.00  0.00    -0.336 N 
ATOM     12  H3  UNL     1     -19.408  -9.733  24.927  1.00  0.00     0.168 HD
BRANCH  11  13
HETATM   13  C3  UNL     1     -19.910  -8.014  23.785  1.00  0.00     0.045 A 
HETATM   14  C4  UNL     1     -19.157  -6.861  23.731  1.00  0.00     0.033 A 
HETATM   15  C5  UNL     1     -19.212  -6.119  22.574  1.00  0.00     0.045 A 
HETATM   16  C6  UNL     1     -19.965  -6.461  21.489  1.00  0.00     0.127 A 
HETATM   17  F1  UNL     1     -20.034  -5.746  20.341  1.00  0.00    -0.205 F 
HETATM   18  C7  UNL     1     -20.714  -7.621  21.564  1.00  0.00     0.015 A 
HETATM   19  C8  UNL     1     -21.497  -8.003  20.472  1.00  0.00     0.015 A 
HETATM   20  C12 UNL     1     -20.691  -8.395  22.701  1.00  0.00     0.004 A 
HETATM   21  C9  UNL     1     -22.229  -9.169  20.592  1.00  0.00     0.001 A 
HETATM   22  C10 UNL     1     -22.213  -9.949  21.723  1.00  0.00     0.001 A 
HETATM   23  C11 UNL     1     -21.444  -9.569  22.783  1.00  0.00     0.014 A 
ENDBRANCH  11  13
ENDBRANCH   8  11
ENDBRANCH   1   4
BRANCH   1  24
HETATM   24  C29 UNL     1     -24.063  -6.337  28.893  1.00  0.00     0.104 A 
HETATM   25  C30 UNL     1     -23.491  -5.143  29.203  1.00  0.00     0.041 A 
HETATM   26  C31 UNL     1     -24.495  -4.187  29.261  1.00  0.00     0.027 A 
HETATM   27  C32 UNL     1     -25.643  -4.870  28.976  1.00  0.00     0.142 A 
HETATM   28  O2  UNL     1     -25.348  -6.104  28.772  1.00  0.00    -0.320 OA
ENDBRANCH   1  24
BRANCH   2  29
HETATM   29  N5  UNL     1     -25.031  -8.573  30.238  1.00  0.00    -0.283 N 
ATOM     30  H5  UNL     1     -25.810  -7.964  29.987  1.00  0.00     0.188 HD
BRANCH  29  31
HETATM   31  C15 UNL     1     -25.112  -9.219  31.350  1.00  0.00     0.145 A 
HETATM   32  C16 UNL     1     -24.790 -10.556  31.406  1.00  0.00     0.173 A 
HETATM   33  N6  UNL     1     -24.873 -11.244  32.577  1.00  0.00    -0.230 N 
HETATM   34  C17 UNL     1     -25.269 -10.633  33.699  1.00  0.00     0.089 A 
HETATM   35  C18 UNL     1     -25.337 -11.373  34.858  1.00  0.00     0.034 A 
HETATM   36  C22 UNL     1     -25.596  -9.292  33.657  1.00  0.00     0.070 A 
HETATM   37  C19 UNL     1     -25.739 -10.778  36.020  1.00  0.00     0.002 A 
HETATM   38  C20 UNL     1     -26.071  -9.432  36.000  1.00  0.00     0.002 A 
HETATM   39  C21 UNL     1     -25.996  -8.702  34.819  1.00  0.00     0.032 A 
HETATM   40  N7  UNL     1     -25.510  -8.612  32.478  1.00  0.00    -0.293 N 
BRANCH  33  41
HETATM   41  O1  UNL     1     -24.543 -12.562  32.575  1.00  0.00    -0.283 OA
ATOM     42  H1  UNL     1     -25.008 -13.141  31.983  1.00  0.00     0.245 HD
ENDBRANCH  33  41
BRANCH  40  43
HETATM   43  C23 UNL     1     -25.859  -7.236  32.504  1.00  0.00     0.041 A 
HETATM   44  C24 UNL     1     -24.866  -6.304  32.773  1.00  0.00     0.030 A 
HETATM   45  C25 UNL     1     -25.196  -4.975  32.798  1.00  0.00     0.002 A 
HETATM   46  C26 UNL     1     -26.482  -4.541  32.565  1.00  0.00     0.000 A 
HETATM   47  C27 UNL     1     -27.460  -5.470  32.298  1.00  0.00     0.002 A 
HETATM   48  C28 UNL     1     -27.151  -6.800  32.268  1.00  0.00     0.030 A 
ENDBRANCH  40  43
ENDBRANCH  29  31
ENDBRANCH   2  29
TORSDOF 8
ENDMDL
MODEL 4
REMARK VINA RESULT: -10.259988457      1.165      1.274
REMARK  8 active torsions:
REMARK  status: ('A' for Active; 'I' for Inactive)
REMARK    1  A    between atoms: C2_5  and  N3_6 
REMARK    2  A    between atoms: N3_6  and  C3_8 
REMARK    3  A    between atoms: C13_20  and  C14_21 
REMARK    4  A    between atoms: C14_21  and  C29_44 
REMARK    5  A    between atoms: N4_22  and  N5_24 
REMARK    6  A    between atoms: N5_24  and  C15_26 
REMARK    7  A    between atoms: N6_28  and  O1_29 
REMARK    8  A    between atoms: N7_37  and  C23_38 
ROOT
HETATM    1  C14 UNL     1     -23.944  -7.121  28.512  1.00  0.00     0.102 C 
HETATM    2  N4  UNL     1     -24.234  -8.232  29.127  1.00  0.00    -0.295 N 
ATOM      3  H4  UNL     1     -23.649  -9.046  28.935  1.00  0.00     0.187 HD
ENDROOT
BRANCH   1   4
HETATM    4  C13 UNL     1     -22.802  -7.153  27.604  1.00  0.00     0.080 A 
HETATM    5  C1  UNL     1     -21.485  -7.315  27.917  1.00  0.00     0.138 A 
HETATM    6  N1  UNL     1     -21.067  -7.484  29.304  1.00  0.00    -0.081 NA
HETATM    7  N2  UNL     1     -20.617  -7.314  26.939  1.00  0.00    -0.324 N 
HETATM    8  C2  UNL     1     -21.059  -7.155  25.692  1.00  0.00     0.151 A 
ATOM      9  H2  UNL     1     -19.622  -7.432  27.127  1.00  0.00     0.169 HD
HETATM   10  S1  UNL     1     -22.743  -7.004  25.904  1.00  0.00    -0.048 SA
BRANCH   8  11
HETATM   11  N3  UNL     1     -20.344  -7.126  24.582  1.00  0.00    -0.336 N 
ATOM     12  H3  UNL     1     -19.477  -6.589  24.547  1.00  0.00     0.168 HD
BRANCH  11  13
HETATM   13  C3  UNL     1     -20.784  -7.844  23.438  1.00  0.00     0.045 A 
HETATM   14  C4  UNL     1     -20.644  -9.210  23.325  1.00  0.00     0.033 A 
HETATM   15  C5  UNL     1     -21.105  -9.802  22.172  1.00  0.00     0.045 A 
HETATM   16  C6  UNL     1     -21.687  -9.115  21.147  1.00  0.00     0.127 A 
HETATM   17  F1  UNL     1     -22.149  -9.678  20.005  1.00  0.00    -0.205 F 
HETATM   18  C7  UNL     1     -21.818  -7.745  21.281  1.00  0.00     0.015 A 
HETATM   19  C8  UNL     1     -22.410  -7.009  20.253  1.00  0.00     0.015 A 
HETATM   20  C12 UNL     1     -21.371  -7.109  22.416  1.00  0.00     0.004 A 
HETATM   21  C9  UNL     1     -22.519  -5.643  20.430  1.00  0.00     0.001 A 
HETATM   22  C10 UNL     1     -22.076  -4.998  21.559  1.00  0.00     0.001 A 
HETATM   23  C11 UNL     1     -21.500  -5.725  22.559  1.00  0.00     0.014 A 
ENDBRANCH  11  13
ENDBRANCH   8  11
ENDBRANCH   1   4
BRANCH   1  24
HETATM   24  C29 UNL     1     -24.745  -5.958  28.761  1.00  0.00     0.104 A 
HETATM   25  C30 UNL     1     -24.385  -4.685  29.078  1.00  0.00     0.041 A 
HETATM   26  C31 UNL     1     -25.541  -3.931  29.214  1.00  0.00     0.027 A 
HETATM   27  C32 UNL     1     -26.559  -4.808  28.967  1.00  0.00     0.142 A 
HETATM   28  O2  UNL     1     -26.055  -5.962  28.711  1.00  0.00    -0.320 OA
ENDBRANCH   1  24
BRANCH   2  29
HETATM   29  N5  UNL     1     -25.271  -8.386  30.015  1.00  0.00    -0.283 N 
ATOM     30  H5  UNL     1     -26.149  -7.910  29.806  1.00  0.00     0.188 HD
BRANCH  29  31
HETATM   31  C15 UNL     1     -25.213  -9.087  31.094  1.00  0.00     0.145 A 
HETATM   32  C16 UNL     1     -24.842 -10.411  31.047  1.00  0.00     0.173 A 
HETATM   33  N6  UNL     1     -24.778 -11.158  32.183  1.00  0.00    -0.230 N 
HETATM   34  C17 UNL     1     -25.075 -10.618  33.370  1.00  0.00     0.089 A 
HETATM   35  C18 UNL     1     -24.995 -11.415  34.489  1.00  0.00     0.034 A 
HETATM   36  C22 UNL     1     -25.449  -9.290  33.432  1.00  0.00     0.070 A 
HETATM   37  C19 UNL     1     -25.292 -10.893  35.716  1.00  0.00     0.002 A 
HETATM   38  C20 UNL     1     -25.670  -9.561  35.800  1.00  0.00     0.002 A 
HETATM   39  C21 UNL     1     -25.744  -8.773  34.658  1.00  0.00     0.032 A 
HETATM   40  N7  UNL     1     -25.510  -8.551  32.288  1.00  0.00    -0.293 N 
BRANCH  33  41
HETATM   41  O1  UNL     1     -24.407 -12.460  32.077  1.00  0.00    -0.283 OA
ATOM     42  H1  UNL     1     -23.480 -12.667  32.088  1.00  0.00     0.245 HD
ENDBRANCH  33  41
BRANCH  40  43
HETATM   43  C23 UNL     1     -25.901  -7.192  32.421  1.00  0.00     0.041 A 
HETATM   44  C24 UNL     1     -24.921  -6.242  32.676  1.00  0.00     0.030 A 
HETATM   45  C25 UNL     1     -25.291  -4.930  32.804  1.00  0.00     0.002 A 
HETATM   46  C26 UNL     1     -26.604  -4.530  32.688  1.00  0.00     0.000 A 
HETATM   47  C27 UNL     1     -27.568  -5.477  32.435  1.00  0.00     0.002 A 
HETATM   48  C28 UNL     1     -27.219  -6.791  32.303  1.00  0.00     0.030 A 
ENDBRANCH  40  43
ENDBRANCH  29  31
ENDBRANCH   2  29
TORSDOF 8
ENDMDL
MODEL 5
REMARK VINA RESULT: -10.128196169      1.042      1.215
REMARK  8 active torsions:
REMARK  status: ('A' for Active; 'I' for Inactive)
REMARK    1  A    between atoms: C2_5  and  N3_6 
REMARK    2  A    between atoms: N3_6  and  C3_8 
REMARK    3  A    between atoms: C13_20  and  C14_21 
REMARK    4  A    between atoms: C14_21  and  C29_44 
REMARK    5  A    between atoms: N4_22  and  N5_24 
REMARK    6  A    between atoms: N5_24  and  C15_26 
REMARK    7  A    between atoms: N6_28  and  O1_29 
REMARK    8  A    between atoms: N7_37  and  C23_38 
ROOT
HETATM    1  C14 UNL     1     -24.200  -8.111  28.043  1.00  0.00     0.102 C 
HETATM    2  N4  UNL     1     -24.268  -8.804  29.143  1.00  0.00    -0.295 N 
ATOM      3  H4  UNL     1     -23.662  -9.620  29.227  1.00  0.00     0.187 HD
ENDROOT
BRANCH   1   4
HETATM    4  C13 UNL     1     -23.256  -8.576  27.032  1.00  0.00     0.080 A 
HETATM    5  C1  UNL     1     -21.932  -8.862  27.189  1.00  0.00     0.138 A 
HETATM    6  N1  UNL     1     -21.290  -8.715  28.490  1.00  0.00    -0.081 NA
HETATM    7  N2  UNL     1     -21.264  -9.269  26.141  1.00  0.00    -0.324 N 
HETATM    8  C2  UNL     1     -21.904  -9.383  24.979  1.00  0.00     0.151 A 
ATOM      9  H2  UNL     1     -20.272  -9.494  26.213  1.00  0.00     0.169 HD
HETATM   10  S1  UNL     1     -23.492  -8.904  25.373  1.00  0.00    -0.048 SA
BRANCH   8  11
HETATM   11  N3  UNL     1     -21.406  -9.774  23.820  1.00  0.00    -0.336 N 
ATOM     12  H3  UNL     1     -20.828 -10.613  23.770  1.00  0.00     0.168 HD
BRANCH  11  13
HETATM   13  C3  UNL     1     -21.677  -9.024  22.644  1.00  0.00     0.045 A 
HETATM   14  C4  UNL     1     -22.769  -9.276  21.843  1.00  0.00     0.033 A 
HETATM   15  C5  UNL     1     -22.934  -8.488  20.728  1.00  0.00     0.045 A 
HETATM   16  C6  UNL     1     -22.082  -7.482  20.378  1.00  0.00     0.127 A 
HETATM   17  F1  UNL     1     -22.225  -6.694  19.285  1.00  0.00    -0.205 F 
HETATM   18  C7  UNL     1     -20.991  -7.246  21.195  1.00  0.00     0.015 A 
HETATM   19  C8  UNL     1     -20.097  -6.224  20.868  1.00  0.00     0.015 A 
HETATM   20  C12 UNL     1     -20.785  -8.009  22.321  1.00  0.00     0.004 A 
HETATM   21  C9  UNL     1     -19.023  -6.026  21.714  1.00  0.00     0.001 A 
HETATM   22  C10 UNL     1     -18.808  -6.781  22.841  1.00  0.00     0.001 A 
HETATM   23  C11 UNL     1     -19.687  -7.777  23.152  1.00  0.00     0.014 A 
ENDBRANCH  11  13
ENDBRANCH   8  11
ENDBRANCH   1   4
BRANCH   1  24
HETATM   24  C29 UNL     1     -25.039  -6.956  27.894  1.00  0.00     0.104 A 
HETATM   25  C30 UNL     1     -24.750  -5.632  28.007  1.00  0.00     0.041 A 
HETATM   26  C31 UNL     1     -25.913  -4.915  27.767  1.00  0.00     0.027 A 
HETATM   27  C32 UNL     1     -26.862  -5.866  27.517  1.00  0.00     0.142 A 
HETATM   28  O2  UNL     1     -26.315  -7.026  27.601  1.00  0.00    -0.320 OA
ENDBRANCH   1  24
BRANCH   2  29
HETATM   29  N5  UNL     1     -25.099  -8.514  30.199  1.00  0.00    -0.283 N 
ATOM     30  H5  UNL     1     -25.728  -7.717  30.103  1.00  0.00     0.188 HD
BRANCH  29  31
HETATM   31  C15 UNL     1     -25.138  -9.177  31.303  1.00  0.00     0.145 A 
HETATM   32  C16 UNL     1     -24.787 -10.507  31.331  1.00  0.00     0.173 A 
HETATM   33  N6  UNL     1     -24.826 -11.214  32.494  1.00  0.00    -0.230 N 
HETATM   34  C17 UNL     1     -25.206 -10.627  33.634  1.00  0.00     0.089 A 
HETATM   35  C18 UNL     1     -25.229 -11.385  34.783  1.00  0.00     0.034 A 
HETATM   36  C22 UNL     1     -25.561  -9.293  33.620  1.00  0.00     0.070 A 
HETATM   37  C19 UNL     1     -25.614 -10.816  35.963  1.00  0.00     0.002 A 
HETATM   38  C20 UNL     1     -25.974  -9.476  35.971  1.00  0.00     0.002 A 
HETATM   39  C21 UNL     1     -25.945  -8.728  34.800  1.00  0.00     0.032 A 
HETATM   40  N7  UNL     1     -25.519  -8.594  32.450  1.00  0.00    -0.293 N 
BRANCH  33  41
HETATM   41  O1  UNL     1     -24.469 -12.524  32.463  1.00  0.00    -0.283 OA
ATOM     42  H1  UNL     1     -24.116 -12.914  33.254  1.00  0.00     0.245 HD
ENDBRANCH  33  41
BRANCH  40  43
HETATM   43  C23 UNL     1     -25.896  -7.226  32.504  1.00  0.00     0.041 A 
HETATM   44  C24 UNL     1     -24.911  -6.275  32.731  1.00  0.00     0.030 A 
HETATM   45  C25 UNL     1     -25.268  -4.954  32.783  1.00  0.00     0.002 A 
HETATM   46  C26 UNL     1     -26.573  -4.546  32.619  1.00  0.00     0.000 A 
HETATM   47  C27 UNL     1     -27.543  -5.494  32.395  1.00  0.00     0.002 A 
HETATM   48  C28 UNL     1     -27.207  -6.817  32.338  1.00  0.00     0.030 A 
ENDBRANCH  40  43
ENDBRANCH  29  31
ENDBRANCH   2  29
TORSDOF 8
ENDMDL
