MODEL 1
REMARK VINA RESULT: -9.136412617      0.000      0.000
REMARK  9 active torsions:
REMARK  status: ('A' for Active; 'I' for Inactive)
REMARK    1  A    between atoms: C2_2  and  O1_3 
REMARK    2  A    between atoms: C2_2  and  C23_31 
REMARK    3  A    between atoms: O1_3  and  C3_4 
REMARK    4  A    between atoms: C15_19  and  O5_20 
REMARK    5  A    between atoms: C15_19  and  O6_22 
REMARK    6  A    between atoms: C23_31  and  C24_32 
REMARK    7  A    between atoms: C23_31  and  N1_35 
REMARK       I    between atoms: N1_35  and  C28_37 
REMARK    8  A    between atoms: C28_37  and  O8_39 
REMARK    9  A    between atoms: O8_39  and  C29_40 
ROOT
HETATM    1  C3  UNL     1     -25.283  -6.427  28.988  1.00  0.00     0.271 C 
HETATM    2  O2  UNL     1     -25.407  -5.455  29.910  1.00  0.00    -0.341 OA
HETATM    3  C4  UNL     1     -26.116  -4.342  29.477  1.00  0.00     0.126 C 
HETATM    4  C5  UNL     1     -25.109  -3.381  28.943  1.00  0.00    -0.039 C 
HETATM    5  C6  UNL     1     -23.708  -3.506  29.361  1.00  0.00     0.003 C 
HETATM    6  C7  UNL     1     -23.226  -3.749  30.692  1.00  0.00    -0.010 C 
HETATM    7  C8  UNL     1     -23.662  -3.004  31.885  1.00  0.00     0.126 C 
HETATM    8  C9  UNL     1     -24.472  -1.795  31.760  1.00  0.00    -0.014 C 
HETATM    9  C10 UNL     1     -25.916  -1.790  31.902  1.00  0.00    -0.022 C 
HETATM   10  C11 UNL     1     -26.899  -2.413  30.997  1.00  0.00     0.045 C 
HETATM   11  C12 UNL     1     -28.212  -2.095  31.784  1.00  0.00     0.017 C 
HETATM   12  C13 UNL     1     -26.797  -3.874  30.766  1.00  0.00     0.135 C 
HETATM   13  C14 UNL     1     -28.233  -4.438  30.868  1.00  0.00     0.054 C 
HETATM   14  O3  UNL     1     -26.285  -4.397  31.928  1.00  0.00    -0.221 OA
HETATM   15  O4  UNL     1     -25.142  -4.751  32.127  1.00  0.00    -0.170 OA
HETATM   16  C15 UNL     1     -24.243  -4.053  32.853  1.00  0.00     0.317 C 
HETATM   17  C16 UNL     1     -25.075  -3.065  27.480  1.00  0.00     0.013 C 
HETATM   18  C17 UNL     1     -23.864  -3.648  26.730  1.00  0.00     0.015 C 
HETATM   19  C18 UNL     1     -26.342  -3.223  26.742  1.00  0.00     0.009 C 
HETATM   20  C19 UNL     1     -27.352  -4.129  27.275  1.00  0.00     0.009 C 
HETATM   21  C20 UNL     1     -27.018  -4.963  28.471  1.00  0.00     0.036 C 
HETATM   22  C21 UNL     1     -26.497  -6.350  28.148  1.00  0.00     0.045 C 
HETATM   23  C22 UNL     1     -26.356  -6.645  26.704  1.00  0.00     0.015 C 
ENDROOT
BRANCH   1  24
HETATM   24  O1  UNL     1     -25.163  -7.650  29.685  1.00  0.00    -0.323 OA
BRANCH  24  25
HETATM   25  C2  UNL     1     -24.245  -8.013  30.624  1.00  0.00     0.063 C 
HETATM   26  C1  UNL     1     -23.044  -7.463  30.564  1.00  0.00     0.048 C 
BRANCH  25  27
HETATM   27  C23 UNL     1     -24.525  -8.993  31.713  1.00  0.00     0.148 C 
BRANCH  27  28
HETATM   28  C24 UNL     1     -25.022 -10.264  31.062  1.00  0.00     0.007 C 
HETATM   29  C25 UNL     1     -24.431 -10.314  29.656  1.00  0.00     0.012 C 
HETATM   30  C26 UNL     1     -24.550 -11.494  31.807  1.00  0.00     0.012 C 
ENDBRANCH  27  28
BRANCH  27  31
HETATM   31  N1  UNL     1     -25.515  -8.502  32.648  1.00  0.00    -0.321 N 
HETATM   32  C27 UNL     1     -26.721  -7.867  32.165  1.00  0.00     0.156 C 
HETATM   33  C28 UNL     1     -25.331  -8.648  34.044  1.00  0.00     0.366 C 
HETATM   34  O7  UNL     1     -26.200  -8.216  34.829  1.00  0.00    -0.238 OA
BRANCH  33  35
HETATM   35  O8  UNL     1     -24.207  -9.259  34.564  1.00  0.00    -0.262 OA
BRANCH  35  36
HETATM   36  C29 UNL     1     -24.359 -10.366  35.402  1.00  0.00     0.207 C 
HETATM   37  C30 UNL     1     -25.660 -11.056  35.072  1.00  0.00     0.084 C 
HETATM   38  C31 UNL     1     -23.239 -11.364  35.276  1.00  0.00     0.084 C 
HETATM   39  F1  UNL     1     -24.371  -9.892  36.708  1.00  0.00    -0.212 F 
ENDBRANCH  35  36
ENDBRANCH  33  35
ENDBRANCH  27  31
ENDBRANCH  25  27
ENDBRANCH  24  25
ENDBRANCH   1  24
BRANCH  16  40
HETATM   40  O5  UNL     1     -24.580  -3.581  34.063  1.00  0.00    -0.341 OA
ATOM     41  H5  UNL     1     -24.847  -2.668  34.077  1.00  0.00     0.215 HD
ENDBRANCH  16  40
BRANCH  16  42
HETATM   42  O6  UNL     1     -23.160  -4.955  33.067  1.00  0.00    -0.341 OA
ATOM     43  H6  UNL     1     -23.199  -5.141  33.998  1.00  0.00     0.215 HD
ENDBRANCH  16  42
TORSDOF 9
ENDMDL
MODEL 2
REMARK VINA RESULT: -9.075494595      4.034      6.809
REMARK  9 active torsions:
REMARK  status: ('A' for Active; 'I' for Inactive)
REMARK    1  A    between atoms: C2_2  and  O1_3 
REMARK    2  A    between atoms: C2_2  and  C23_31 
REMARK    3  A    between atoms: O1_3  and  C3_4 
REMARK    4  A    between atoms: C15_19  and  O5_20 
REMARK    5  A    between atoms: C15_19  and  O6_22 
REMARK    6  A    between atoms: C23_31  and  C24_32 
REMARK    7  A    between atoms: C23_31  and  N1_35 
REMARK       I    between atoms: N1_35  and  C28_37 
REMARK    8  A    between atoms: C28_37  and  O8_39 
REMARK    9  A    between atoms: O8_39  and  C29_40 
ROOT
HETATM    1  C3  UNL     1     -24.885  -6.729  29.196  1.00  0.00     0.271 C 
HETATM    2  O2  UNL     1     -25.436  -5.511  29.339  1.00  0.00    -0.341 OA
HETATM    3  C4  UNL     1     -25.716  -5.158  30.653  1.00  0.00     0.126 C 
HETATM    4  C5  UNL     1     -27.126  -5.567  30.909  1.00  0.00    -0.039 C 
HETATM    5  C6  UNL     1     -28.031  -5.768  29.773  1.00  0.00     0.003 C 
HETATM    6  C7  UNL     1     -28.159  -4.927  28.615  1.00  0.00    -0.010 C 
HETATM    7  C8  UNL     1     -28.318  -3.463  28.663  1.00  0.00     0.126 C 
HETATM    8  C9  UNL     1     -28.579  -2.778  29.925  1.00  0.00    -0.014 C 
HETATM    9  C10 UNL     1     -27.539  -2.142  30.713  1.00  0.00    -0.022 C 
HETATM   10  C11 UNL     1     -26.435  -2.807  31.426  1.00  0.00     0.045 C 
HETATM   11  C12 UNL     1     -25.682  -1.547  31.967  1.00  0.00     0.017 C 
HETATM   12  C13 UNL     1     -25.503  -3.643  30.632  1.00  0.00     0.135 C 
HETATM   13  C14 UNL     1     -24.075  -3.279  31.101  1.00  0.00     0.054 C 
HETATM   14  O3  UNL     1     -25.464  -3.069  29.385  1.00  0.00    -0.221 OA
HETATM   15  O4  UNL     1     -26.032  -3.457  28.386  1.00  0.00    -0.170 OA
HETATM   16  C15 UNL     1     -27.136  -2.880  27.863  1.00  0.00     0.317 C 
HETATM   17  C16 UNL     1     -27.424  -6.672  31.874  1.00  0.00     0.013 C 
HETATM   18  C17 UNL     1     -27.919  -7.973  31.218  1.00  0.00     0.015 C 
HETATM   19  C18 UNL     1     -26.432  -6.903  32.940  1.00  0.00     0.009 C 
HETATM   20  C19 UNL     1     -25.057  -6.473  32.718  1.00  0.00     0.009 C 
HETATM   21  C20 UNL     1     -24.674  -5.936  31.375  1.00  0.00     0.036 C 
HETATM   22  C21 UNL     1     -24.097  -6.968  30.425  1.00  0.00     0.045 C 
HETATM   23  C22 UNL     1     -24.048  -8.349  30.955  1.00  0.00     0.015 C 
ENDROOT
BRANCH   1  24
HETATM   24  O1  UNL     1     -24.096  -6.696  28.024  1.00  0.00    -0.323 OA
BRANCH  24  25
HETATM   25  C2  UNL     1     -24.225  -7.431  26.885  1.00  0.00     0.063 C 
HETATM   26  C1  UNL     1     -25.404  -7.447  26.285  1.00  0.00     0.048 C 
BRANCH  25  27
HETATM   27  C23 UNL     1     -23.109  -8.215  26.281  1.00  0.00     0.148 C 
BRANCH  27  28
HETATM   28  C24 UNL     1     -22.447  -8.993  27.395  1.00  0.00     0.007 C 
HETATM   29  C25 UNL     1     -23.432 -10.070  27.843  1.00  0.00     0.012 C 
HETATM   30  C26 UNL     1     -21.188  -9.687  26.919  1.00  0.00     0.012 C 
ENDBRANCH  27  28
BRANCH  27  31
HETATM   31  N1  UNL     1     -22.134  -7.364  25.631  1.00  0.00    -0.321 N 
HETATM   32  C27 UNL     1     -21.319  -6.462  26.414  1.00  0.00     0.156 C 
HETATM   33  C28 UNL     1     -21.949  -7.410  24.229  1.00  0.00     0.366 C 
HETATM   34  O7  UNL     1     -21.102  -6.667  23.694  1.00  0.00    -0.238 OA
BRANCH  33  35
HETATM   35  O8  UNL     1     -22.688  -8.263  23.431  1.00  0.00    -0.262 OA
BRANCH  35  36
HETATM   36  C29 UNL     1     -22.117  -9.466  23.008  1.00  0.00     0.207 C 
HETATM   37  C30 UNL     1     -23.056 -10.598  23.343  1.00  0.00     0.084 C 
HETATM   38  C31 UNL     1     -21.830  -9.497  21.530  1.00  0.00     0.084 C 
HETATM   39  F1  UNL     1     -20.912  -9.608  23.685  1.00  0.00    -0.212 F 
ENDBRANCH  35  36
ENDBRANCH  33  35
ENDBRANCH  27  31
ENDBRANCH  25  27
ENDBRANCH  24  25
ENDBRANCH   1  24
BRANCH  16  40
HETATM   40  O5  UNL     1     -27.176  -1.551  27.682  1.00  0.00    -0.341 OA
ATOM     41  H5  UNL     1     -27.136  -1.269  26.776  1.00  0.00     0.215 HD
ENDBRANCH  16  40
BRANCH  16  42
HETATM   42  O6  UNL     1     -27.280  -3.462  26.570  1.00  0.00    -0.341 OA
ATOM     43  H6  UNL     1     -26.747  -2.908  26.011  1.00  0.00     0.215 HD
ENDBRANCH  16  42
TORSDOF 9
ENDMDL
MODEL 3
REMARK VINA RESULT: -8.910136068      1.714      2.324
REMARK  9 active torsions:
REMARK  status: ('A' for Active; 'I' for Inactive)
REMARK    1  A    between atoms: C2_2  and  O1_3 
REMARK    2  A    between atoms: C2_2  and  C23_31 
REMARK    3  A    between atoms: O1_3  and  C3_4 
REMARK    4  A    between atoms: C15_19  and  O5_20 
REMARK    5  A    between atoms: C15_19  and  O6_22 
REMARK    6  A    between atoms: C23_31  and  C24_32 
REMARK    7  A    between atoms: C23_31  and  N1_35 
REMARK       I    between atoms: N1_35  and  C28_37 
REMARK    8  A    between atoms: C28_37  and  O8_39 
REMARK    9  A    between atoms: O8_39  and  C29_40 
ROOT
HETATM    1  C3  UNL     1     -24.082  -4.878  28.059  1.00  0.00     0.271 C 
HETATM    2  O2  UNL     1     -24.900  -4.323  28.972  1.00  0.00    -0.341 OA
HETATM    3  C4  UNL     1     -25.585  -3.202  28.523  1.00  0.00     0.126 C 
HETATM    4  C5  UNL     1     -24.754  -2.022  28.897  1.00  0.00    -0.039 C 
HETATM    5  C6  UNL     1     -23.761  -2.156  29.967  1.00  0.00     0.003 C 
HETATM    6  C7  UNL     1     -23.938  -2.819  31.229  1.00  0.00    -0.010 C 
HETATM    7  C8  UNL     1     -25.085  -2.604  32.129  1.00  0.00     0.126 C 
HETATM    8  C9  UNL     1     -26.029  -1.516  31.893  1.00  0.00    -0.014 C 
HETATM    9  C10 UNL     1     -27.298  -1.699  31.213  1.00  0.00    -0.022 C 
HETATM   10  C11 UNL     1     -27.503  -2.041  29.794  1.00  0.00     0.045 C 
HETATM   11  C12 UNL     1     -29.063  -2.157  29.779  1.00  0.00     0.017 C 
HETATM   12  C13 UNL     1     -26.904  -3.301  29.293  1.00  0.00     0.135 C 
HETATM   13  C14 UNL     1     -27.990  -3.998  28.440  1.00  0.00     0.054 C 
HETATM   14  O3  UNL     1     -26.899  -4.160  30.365  1.00  0.00    -0.221 OA
HETATM   15  O4  UNL     1     -25.949  -4.452  31.061  1.00  0.00    -0.170 OA
HETATM   16  C15 UNL     1     -25.748  -3.983  32.312  1.00  0.00     0.317 C 
HETATM   17  C16 UNL     1     -24.104  -1.194  27.832  1.00  0.00     0.013 C 
HETATM   18  C17 UNL     1     -22.574  -1.346  27.753  1.00  0.00     0.015 C 
HETATM   19  C18 UNL     1     -24.754  -1.192  26.508  1.00  0.00     0.009 C 
HETATM   20  C19 UNL     1     -25.601  -2.322  26.146  1.00  0.00     0.009 C 
HETATM   21  C20 UNL     1     -25.675  -3.497  27.068  1.00  0.00     0.036 C 
HETATM   22  C21 UNL     1     -24.703  -4.616  26.742  1.00  0.00     0.045 C 
HETATM   23  C22 UNL     1     -23.805  -4.351  25.597  1.00  0.00     0.015 C 
ENDROOT
BRANCH   1  24
HETATM   24  O1  UNL     1     -23.984  -6.253  28.366  1.00  0.00    -0.323 OA
BRANCH  24  25
HETATM   25  C2  UNL     1     -23.707  -6.844  29.562  1.00  0.00     0.063 C 
HETATM   26  C1  UNL     1     -22.747  -6.322  30.307  1.00  0.00     0.048 C 
BRANCH  25  27
HETATM   27  C23 UNL     1     -24.431  -8.043  30.074  1.00  0.00     0.148 C 
BRANCH  27  28
HETATM   28  C24 UNL     1     -24.374  -9.102  28.996  1.00  0.00     0.007 C 
HETATM   29  C25 UNL     1     -22.946  -9.124  28.458  1.00  0.00     0.012 C 
HETATM   30  C26 UNL     1     -24.681 -10.478  29.548  1.00  0.00     0.012 C 
ENDBRANCH  27  28
BRANCH  27  31
HETATM   31  N1  UNL     1     -25.812  -7.750  30.399  1.00  0.00    -0.321 N 
HETATM   32  C27 UNL     1     -26.787  -7.577  29.346  1.00  0.00     0.156 C 
HETATM   33  C28 UNL     1     -26.234  -7.645  31.746  1.00  0.00     0.366 C 
HETATM   34  O7  UNL     1     -27.430  -7.392  31.999  1.00  0.00    -0.238 OA
BRANCH  33  35
HETATM   35  O8  UNL     1     -25.352  -7.816  32.795  1.00  0.00    -0.262 OA
BRANCH  35  36
HETATM   36  C29 UNL     1     -25.369  -9.015  33.512  1.00  0.00     0.207 C 
HETATM   37  C30 UNL     1     -23.949  -9.485  33.714  1.00  0.00     0.084 C 
HETATM   38  C31 UNL     1     -26.032  -8.891  34.857  1.00  0.00     0.084 C 
HETATM   39  F1  UNL     1     -26.090  -9.933  32.757  1.00  0.00    -0.212 F 
ENDBRANCH  35  36
ENDBRANCH  33  35
ENDBRANCH  27  31
ENDBRANCH  25  27
ENDBRANCH  24  25
ENDBRANCH   1  24
BRANCH  16  40
HETATM   40  O5  UNL     1     -26.745  -4.017  33.209  1.00  0.00    -0.341 OA
ATOM     41  H5  UNL     1     -27.512  -3.508  32.974  1.00  0.00     0.215 HD
ENDBRANCH  16  40
BRANCH  16  42
HETATM   42  O6  UNL     1     -24.704  -4.794  32.845  1.00  0.00    -0.341 OA
ATOM     43  H6  UNL     1     -25.163  -5.436  33.376  1.00  0.00     0.215 HD
ENDBRANCH  16  42
TORSDOF 9
ENDMDL
MODEL 4
REMARK VINA RESULT: -8.903252444      3.764      5.759
REMARK  9 active torsions:
REMARK  status: ('A' for Active; 'I' for Inactive)
REMARK    1  A    between atoms: C2_2  and  O1_3 
REMARK    2  A    between atoms: C2_2  and  C23_31 
REMARK    3  A    between atoms: O1_3  and  C3_4 
REMARK    4  A    between atoms: C15_19  and  O5_20 
REMARK    5  A    between atoms: C15_19  and  O6_22 
REMARK    6  A    between atoms: C23_31  and  C24_32 
REMARK    7  A    between atoms: C23_31  and  N1_35 
REMARK       I    between atoms: N1_35  and  C28_37 
REMARK    8  A    between atoms: C28_37  and  O8_39 
REMARK    9  A    between atoms: O8_39  and  C29_40 
ROOT
HETATM    1  C3  UNL     1     -25.747  -6.271  27.829  1.00  0.00     0.271 C 
HETATM    2  O2  UNL     1     -25.670  -6.125  29.164  1.00  0.00    -0.341 OA
HETATM    3  C4  UNL     1     -26.219  -4.944  29.645  1.00  0.00     0.126 C 
HETATM    4  C5  UNL     1     -25.106  -3.955  29.710  1.00  0.00    -0.039 C 
HETATM    5  C6  UNL     1     -23.722  -4.438  29.751  1.00  0.00     0.003 C 
HETATM    6  C7  UNL     1     -23.212  -5.527  30.537  1.00  0.00    -0.010 C 
HETATM    7  C8  UNL     1     -23.464  -5.704  31.978  1.00  0.00     0.126 C 
HETATM    8  C9  UNL     1     -24.082  -4.643  32.766  1.00  0.00    -0.014 C 
HETATM    9  C10 UNL     1     -25.499  -4.610  33.080  1.00  0.00    -0.022 C 
HETATM   10  C11 UNL     1     -26.613  -4.410  32.136  1.00  0.00     0.045 C 
HETATM   11  C12 UNL     1     -27.818  -4.572  33.120  1.00  0.00     0.017 C 
HETATM   12  C13 UNL     1     -26.750  -5.372  31.016  1.00  0.00     0.135 C 
HETATM   13  C14 UNL     1     -28.249  -5.744  30.936  1.00  0.00     0.054 C 
HETATM   14  O3  UNL     1     -26.265  -6.565  31.492  1.00  0.00    -0.221 OA
HETATM   15  O4  UNL     1     -25.182  -7.057  31.256  1.00  0.00    -0.170 OA
HETATM   16  C15 UNL     1     -24.148  -7.077  32.125  1.00  0.00     0.317 C 
HETATM   17  C16 UNL     1     -25.102  -2.768  28.799  1.00  0.00     0.013 C 
HETATM   18  C17 UNL     1     -24.037  -2.822  27.688  1.00  0.00     0.015 C 
HETATM   19  C18 UNL     1     -26.415  -2.302  28.317  1.00  0.00     0.009 C 
HETATM   20  C19 UNL     1     -27.523  -3.249  28.285  1.00  0.00     0.009 C 
HETATM   21  C20 UNL     1     -27.259  -4.684  28.614  1.00  0.00     0.036 C 
HETATM   22  C21 UNL     1     -26.977  -5.564  27.412  1.00  0.00     0.045 C 
HETATM   23  C22 UNL     1     -26.961  -4.860  26.111  1.00  0.00     0.015 C 
ENDROOT
BRANCH   1  24
HETATM   24  O1  UNL     1     -25.781  -7.658  27.562  1.00  0.00    -0.323 OA
BRANCH  24  25
HETATM   25  C2  UNL     1     -25.238  -8.340  26.515  1.00  0.00     0.063 C 
HETATM   26  C1  UNL     1     -26.050  -8.768  25.563  1.00  0.00     0.048 C 
BRANCH  25  27
HETATM   27  C23 UNL     1     -23.780  -8.625  26.387  1.00  0.00     0.148 C 
BRANCH  27  28
HETATM   28  C24 UNL     1     -23.232  -8.818  27.782  1.00  0.00     0.007 C 
HETATM   29  C25 UNL     1     -24.080  -9.892  28.458  1.00  0.00     0.012 C 
HETATM   30  C26 UNL     1     -21.799  -9.309  27.756  1.00  0.00     0.012 C 
ENDBRANCH  27  28
BRANCH  27  31
HETATM   31  N1  UNL     1     -23.069  -7.550  25.726  1.00  0.00    -0.321 N 
HETATM   32  C27 UNL     1     -22.687  -6.368  26.465  1.00  0.00     0.156 C 
HETATM   33  C28 UNL     1     -22.722  -7.642  24.357  1.00  0.00     0.366 C 
HETATM   34  O7  UNL     1     -22.109  -6.702  23.811  1.00  0.00    -0.238 OA
BRANCH  33  35
HETATM   35  O8  UNL     1     -23.047  -8.754  23.604  1.00  0.00    -0.262 OA
BRANCH  35  36
HETATM   36  C29 UNL     1     -22.081  -9.741  23.394  1.00  0.00     0.207 C 
HETATM   37  C30 UNL     1     -21.782  -9.829  21.918  1.00  0.00     0.084 C 
HETATM   38  C31 UNL     1     -20.796  -9.480  24.133  1.00  0.00     0.084 C 
HETATM   39  F1  UNL     1     -22.612 -10.938  23.861  1.00  0.00    -0.212 F 
ENDBRANCH  35  36
ENDBRANCH  33  35
ENDBRANCH  27  31
ENDBRANCH  25  27
ENDBRANCH  24  25
ENDBRANCH   1  24
BRANCH  16  40
HETATM   40  O5  UNL     1     -24.344  -7.479  33.390  1.00  0.00    -0.341 OA
ATOM     41  H5  UNL     1     -24.501  -6.779  34.013  1.00  0.00     0.215 HD
ENDBRANCH  16  40
BRANCH  16  42
HETATM   42  O6  UNL     1     -23.208  -7.988  31.559  1.00  0.00    -0.341 OA
ATOM     43  H6  UNL     1     -23.500  -8.838  31.870  1.00  0.00     0.215 HD
ENDBRANCH  16  42
TORSDOF 9
ENDMDL
MODEL 5
REMARK VINA RESULT: -8.796123430      2.988      6.197
REMARK  9 active torsions:
REMARK  status: ('A' for Active; 'I' for Inactive)
REMARK    1  A    between atoms: C2_2  and  O1_3 
REMARK    2  A    between atoms: C2_2  and  C23_31 
REMARK    3  A    between atoms: O1_3  and  C3_4 
REMARK    4  A    between atoms: C15_19  and  O5_20 
REMARK    5  A    between atoms: C15_19  and  O6_22 
REMARK    6  A    between atoms: C23_31  and  C24_32 
REMARK    7  A    between atoms: C23_31  and  N1_35 
REMARK       I    between atoms: N1_35  and  C28_37 
REMARK    8  A    between atoms: C28_37  and  O8_39 
REMARK    9  A    between atoms: O8_39  and  C29_40 
ROOT
HETATM    1  C3  UNL     1     -24.797  -5.540  28.632  1.00  0.00     0.271 C 
HETATM    2  O2  UNL     1     -23.615  -6.026  28.213  1.00  0.00    -0.341 OA
HETATM    3  C4  UNL     1     -23.697  -7.248  27.559  1.00  0.00     0.126 C 
HETATM    4  C5  UNL     1     -23.492  -8.298  28.597  1.00  0.00    -0.039 C 
HETATM    5  C6  UNL     1     -22.824  -7.942  29.853  1.00  0.00     0.003 C 
HETATM    6  C7  UNL     1     -21.650  -7.128  30.003  1.00  0.00    -0.010 C 
HETATM    7  C8  UNL     1     -20.408  -7.307  29.230  1.00  0.00     0.126 C 
HETATM    8  C9  UNL     1     -20.209  -8.487  28.394  1.00  0.00    -0.014 C 
HETATM    9  C10 UNL     1     -20.454  -8.497  26.964  1.00  0.00    -0.022 C 
HETATM   10  C11 UNL     1     -21.756  -8.370  26.285  1.00  0.00     0.045 C 
HETATM   11  C12 UNL     1     -21.274  -8.377  24.798  1.00  0.00     0.017 C 
HETATM   12  C13 UNL     1     -22.554  -7.147  26.545  1.00  0.00     0.135 C 
HETATM   13  C14 UNL     1     -23.074  -6.660  25.173  1.00  0.00     0.054 C 
HETATM   14  O3  UNL     1     -21.638  -6.152  26.785  1.00  0.00    -0.221 OA
HETATM   15  O4  UNL     1     -21.324  -5.695  27.864  1.00  0.00    -0.170 OA
HETATM   16  C15 UNL     1     -20.165  -5.971  28.501  1.00  0.00     0.317 C 
HETATM   17  C16 UNL     1     -24.618  -9.211  28.973  1.00  0.00     0.013 C 
HETATM   18  C17 UNL     1     -25.206  -8.952  30.372  1.00  0.00     0.015 C 
HETATM   19  C18 UNL     1     -25.650  -9.443  27.946  1.00  0.00     0.009 C 
HETATM   20  C19 UNL     1     -25.833  -8.443  26.902  1.00  0.00     0.009 C 
HETATM   21  C20 UNL     1     -25.065  -7.162  26.983  1.00  0.00     0.036 C 
HETATM   22  C21 UNL     1     -25.804  -6.026  27.665  1.00  0.00     0.045 C 
HETATM   23  C22 UNL     1     -27.146  -6.375  28.184  1.00  0.00     0.015 C 
ENDROOT
BRANCH   1  24
HETATM   24  O1  UNL     1     -24.684  -4.132  28.660  1.00  0.00    -0.323 OA
BRANCH  24  25
HETATM   25  C2  UNL     1     -25.372  -3.233  29.418  1.00  0.00     0.063 C 
HETATM   26  C1  UNL     1     -25.435  -1.981  28.996  1.00  0.00     0.048 C 
BRANCH  25  27
HETATM   27  C23 UNL     1     -26.058  -3.588  30.694  1.00  0.00     0.148 C 
BRANCH  27  28
HETATM   28  C24 UNL     1     -27.253  -2.674  30.835  1.00  0.00     0.007 C 
HETATM   29  C25 UNL     1     -28.273  -3.095  29.781  1.00  0.00     0.012 C 
HETATM   30  C26 UNL     1     -27.908  -2.817  32.193  1.00  0.00     0.012 C 
ENDBRANCH  27  28
BRANCH  27  31
HETATM   31  N1  UNL     1     -25.188  -3.438  31.842  1.00  0.00    -0.321 N 
HETATM   32  C27 UNL     1     -24.720  -2.127  32.234  1.00  0.00     0.156 C 
HETATM   33  C28 UNL     1     -24.794  -4.561  32.607  1.00  0.00     0.366 C 
HETATM   34  O7  UNL     1     -24.044  -4.404  33.592  1.00  0.00    -0.238 OA
BRANCH  33  35
HETATM   35  O8  UNL     1     -25.221  -5.836  32.290  1.00  0.00    -0.262 OA
BRANCH  35  36
HETATM   36  C29 UNL     1     -26.356  -6.352  32.921  1.00  0.00     0.207 C 
HETATM   37  C30 UNL     1     -27.403  -6.653  31.877  1.00  0.00     0.084 C 
HETATM   38  C31 UNL     1     -26.080  -7.607  33.704  1.00  0.00     0.084 C 
HETATM   39  F1  UNL     1     -26.809  -5.381  33.807  1.00  0.00    -0.212 F 
ENDBRANCH  35  36
ENDBRANCH  33  35
ENDBRANCH  27  31
ENDBRANCH  25  27
ENDBRANCH  24  25
ENDBRANCH   1  24
BRANCH  16  40
HETATM   40  O5  UNL     1     -19.001  -5.892  27.838  1.00  0.00    -0.341 OA
ATOM     41  H5  UNL     1     -18.528  -5.076  27.956  1.00  0.00     0.215 HD
ENDBRANCH  16  40
BRANCH  16  42
HETATM   42  O6  UNL     1     -20.088  -5.016  29.557  1.00  0.00    -0.341 OA
ATOM     43  H6  UNL     1     -20.836  -5.223  30.105  1.00  0.00     0.215 HD
ENDBRANCH  16  42
TORSDOF 9
ENDMDL
