MODEL 1
REMARK VINA RESULT: -10.584347844      0.000      0.000
REMARK  7 active torsions:
REMARK  status: ('A' for Active; 'I' for Inactive)
REMARK    1  A    between atoms: O1_1  and  N1_3 
REMARK    2  A    between atoms: C1_5  and  O2_6 
REMARK    3  A    between atoms: C1_5  and  C2_8 
REMARK    4  A    between atoms: C3_9  and  C4_10 
REMARK    5  A    between atoms: C19_29  and  C20_30 
REMARK    6  A    between atoms: C23_33  and  N3_34 
REMARK    7  A    between atoms: N4_37  and  C26_38 
ROOT
HETATM    1  C2  UNL     1     -26.031  -4.829  32.521  1.00  0.00     0.109 C 
HETATM    2  C3  UNL     1     -26.859  -6.075  32.804  1.00  0.00     0.176 C 
HETATM    3  O3  UNL     1     -27.590  -6.454  31.648  1.00  0.00    -0.324 OA
HETATM    4  C14 UNL     1     -27.577  -5.771  30.447  1.00  0.00     0.149 A 
HETATM    5  N2  UNL     1     -28.588  -5.807  29.563  1.00  0.00    -0.345 N 
ATOM      6  H2  UNL     1     -29.412  -6.366  29.781  1.00  0.00     0.167 HD
HETATM    7  C15 UNL     1     -28.551  -5.131  28.398  1.00  0.00     0.114 A 
HETATM    8  C16 UNL     1     -27.443  -4.388  28.118  1.00  0.00     0.050 A 
HETATM    9 CL1  UNL     1     -27.366  -3.503  26.615  1.00  0.00    -0.083 Cl
HETATM   10  C17 UNL     1     -26.355  -4.301  28.981  1.00  0.00     0.037 A 
HETATM   11  C18 UNL     1     -26.442  -5.010  30.160  1.00  0.00     0.004 A 
HETATM   12  C19 UNL     1     -25.383  -5.054  31.198  1.00  0.00     0.072 C 
ENDROOT
BRANCH  12  13
HETATM   13  C20 UNL     1     -24.178  -4.287  30.913  1.00  0.00    -0.033 A 
HETATM   14  C21 UNL     1     -23.975  -2.971  31.158  1.00  0.00     0.013 A 
HETATM   15  C22 UNL     1     -22.772  -2.385  30.822  1.00  0.00     0.049 A 
HETATM   16  C23 UNL     1     -21.722  -3.068  30.234  1.00  0.00     0.103 A 
HETATM   17  N6  UNL     1     -21.962  -4.382  30.005  1.00  0.00    -0.352 N 
HETATM   18  C33 UNL     1     -23.101  -4.965  30.315  1.00  0.00     0.097 A 
ATOM     19  H6  UNL     1     -21.228  -4.944  29.573  1.00  0.00     0.166 HD
BRANCH  16  20
HETATM   20  N3  UNL     1     -20.493  -2.454  29.892  1.00  0.00    -0.364 N 
HETATM   21  C24 UNL     1     -20.494  -1.005  29.726  1.00  0.00     0.144 C 
HETATM   22  C25 UNL     1     -19.106  -0.442  29.959  1.00  0.00     0.144 C 
HETATM   23  N4  UNL     1     -18.230  -1.162  29.008  1.00  0.00    -0.364 N 
HETATM   24  C31 UNL     1     -18.120  -2.570  29.205  1.00  0.00     0.144 C 
HETATM   25  C32 UNL     1     -19.332  -3.263  29.732  1.00  0.00     0.144 C 
BRANCH  23  26
HETATM   26  C26 UNL     1     -17.591  -0.407  27.998  1.00  0.00     0.102 A 
HETATM   27  C27 UNL     1     -16.278  -0.047  28.113  1.00  0.00     0.048 A 
HETATM   28  C28 UNL     1     -15.641   0.695  27.110  1.00  0.00     0.005 A 
HETATM   29  C29 UNL     1     -16.377   1.043  26.020  1.00  0.00     0.017 A 
HETATM   30  C30 UNL     1     -17.703   0.678  25.908  1.00  0.00     0.089 A 
HETATM   31  N5  UNL     1     -18.263  -0.030  26.894  1.00  0.00    -0.352 N 
ATOM     32  H5  UNL     1     -19.243  -0.296  26.805  1.00  0.00     0.166 HD
ENDBRANCH  23  26
ENDBRANCH  16  20
ENDBRANCH  12  13
BRANCH   1  33
HETATM   33  C1  UNL     1     -26.923  -3.640  32.596  1.00  0.00     0.143 C 
HETATM   34  N1  UNL     1     -26.618  -2.442  32.269  1.00  0.00    -0.251 N 
ATOM     35  H1  UNL     1     -25.672  -2.282  31.923  1.00  0.00     0.196 HD
BRANCH  34  36
HETATM   36  O1  UNL     1     -27.436  -1.371  32.341  1.00  0.00    -0.288 OA
ATOM     37  H1  UNL     1     -27.809  -1.007  33.135  1.00  0.00     0.244 HD
ENDBRANCH  34  36
BRANCH  33  38
HETATM   38  O2  UNL     1     -28.250  -3.786  33.066  1.00  0.00    -0.348 OA
ATOM     39  H2  UNL     1     -28.859  -3.153  32.704  1.00  0.00     0.219 HD
ENDBRANCH  33  38
ENDBRANCH   1  33
BRANCH   2  40
HETATM   40  C4  UNL     1     -26.107  -7.237  33.252  1.00  0.00    -0.027 A 
HETATM   41  C5  UNL     1     -25.077  -7.672  32.402  1.00  0.00     0.011 A 
HETATM   42  C6  UNL     1     -24.306  -8.761  32.725  1.00  0.00     0.013 A 
HETATM   43  C7  UNL     1     -24.565  -9.424  33.914  1.00  0.00    -0.026 A 
HETATM   44  C8  UNL     1     -23.823 -10.519  34.287  1.00  0.00     0.012 A 
HETATM   45  C12 UNL     1     -25.573  -9.017  34.767  1.00  0.00    -0.025 A 
HETATM   46  C9  UNL     1     -24.100 -11.167  35.477  1.00  0.00     0.001 A 
HETATM   47  C10 UNL     1     -25.107 -10.764  36.334  1.00  0.00     0.001 A 
HETATM   48  C11 UNL     1     -25.849  -9.662  35.953  1.00  0.00     0.012 A 
HETATM   49  C13 UNL     1     -26.337  -7.906  34.405  1.00  0.00     0.022 A 
ENDBRANCH   2  40
TORSDOF 7
ENDMDL
MODEL 2
REMARK VINA RESULT: -10.536511201      1.836      2.431
REMARK  7 active torsions:
REMARK  status: ('A' for Active; 'I' for Inactive)
REMARK    1  A    between atoms: O1_1  and  N1_3 
REMARK    2  A    between atoms: C1_5  and  O2_6 
REMARK    3  A    between atoms: C1_5  and  C2_8 
REMARK    4  A    between atoms: C3_9  and  C4_10 
REMARK    5  A    between atoms: C19_29  and  C20_30 
REMARK    6  A    between atoms: C23_33  and  N3_34 
REMARK    7  A    between atoms: N4_37  and  C26_38 
ROOT
HETATM    1  C2  UNL     1     -26.422  -5.115  32.262  1.00  0.00     0.109 C 
HETATM    2  C3  UNL     1     -27.177  -6.436  32.296  1.00  0.00     0.176 C 
HETATM    3  O3  UNL     1     -27.718  -6.728  31.017  1.00  0.00    -0.324 OA
HETATM    4  C14 UNL     1     -27.604  -5.913  29.907  1.00  0.00     0.149 A 
HETATM    5  N2  UNL     1     -28.484  -5.915  28.893  1.00  0.00    -0.345 N 
ATOM      6  H2  UNL     1     -29.283  -6.548  28.936  1.00  0.00     0.167 HD
HETATM    7  C15 UNL     1     -28.350  -5.109  27.821  1.00  0.00     0.114 A 
HETATM    8  C16 UNL     1     -27.278  -4.269  27.776  1.00  0.00     0.050 A 
HETATM    9 CL1  UNL     1     -27.077  -3.215  26.399  1.00  0.00    -0.083 Cl
HETATM   10  C17 UNL     1     -26.323  -4.209  28.786  1.00  0.00     0.037 A 
HETATM   11  C18 UNL     1     -26.505  -5.052  29.862  1.00  0.00     0.004 A 
HETATM   12  C19 UNL     1     -25.591  -5.144  31.026  1.00  0.00     0.072 C 
ENDROOT
BRANCH  12  13
HETATM   13  C20 UNL     1     -24.425  -4.273  30.991  1.00  0.00    -0.033 A 
HETATM   14  C21 UNL     1     -24.422  -2.919  30.989  1.00  0.00     0.013 A 
HETATM   15  C22 UNL     1     -23.226  -2.232  30.948  1.00  0.00     0.049 A 
HETATM   16  C23 UNL     1     -21.988  -2.848  30.910  1.00  0.00     0.103 A 
HETATM   17  N6  UNL     1     -22.030  -4.203  30.914  1.00  0.00    -0.352 N 
HETATM   18  C33 UNL     1     -23.158  -4.881  30.952  1.00  0.00     0.097 A 
ATOM     19  H6  UNL     1     -21.151  -4.718  30.887  1.00  0.00     0.166 HD
BRANCH  16  20
HETATM   20  N3  UNL     1     -20.767  -2.131  30.865  1.00  0.00    -0.364 N 
HETATM   21  C24 UNL     1     -19.536  -2.910  30.804  1.00  0.00     0.144 C 
HETATM   22  C25 UNL     1     -18.421  -2.094  30.177  1.00  0.00     0.144 C 
HETATM   23  N4  UNL     1     -18.325  -0.871  31.004  1.00  0.00    -0.364 N 
HETATM   24  C31 UNL     1     -19.474  -0.027  31.005  1.00  0.00     0.144 C 
HETATM   25  C32 UNL     1     -20.797  -0.707  30.879  1.00  0.00     0.144 C 
BRANCH  23  26
HETATM   26  C26 UNL     1     -17.124  -0.647  31.714  1.00  0.00     0.102 A 
HETATM   27  C27 UNL     1     -16.007  -1.390  31.460  1.00  0.00     0.048 A 
HETATM   28  C28 UNL     1     -14.813  -1.165  32.159  1.00  0.00     0.005 A 
HETATM   29  C29 UNL     1     -14.809  -0.180  33.099  1.00  0.00     0.017 A 
HETATM   30  C30 UNL     1     -15.940   0.567  33.353  1.00  0.00     0.089 A 
HETATM   31  N5  UNL     1     -17.053   0.312  32.658  1.00  0.00    -0.352 N 
ATOM     32  H5  UNL     1     -17.886   0.867  32.851  1.00  0.00     0.166 HD
ENDBRANCH  23  26
ENDBRANCH  16  20
ENDBRANCH  12  13
BRANCH   1  33
HETATM   33  C1  UNL     1     -27.409  -4.003  32.337  1.00  0.00     0.143 C 
HETATM   34  N1  UNL     1     -27.141  -2.760  32.469  1.00  0.00    -0.251 N 
ATOM     35  H1  UNL     1     -26.157  -2.500  32.530  1.00  0.00     0.196 HD
BRANCH  34  36
HETATM   36  O1  UNL     1     -28.044  -1.759  32.534  1.00  0.00    -0.288 OA
ATOM     37  H1  UNL     1     -27.860  -0.834  32.417  1.00  0.00     0.244 HD
ENDBRANCH  34  36
BRANCH  33  38
HETATM   38  O2  UNL     1     -28.794  -4.286  32.257  1.00  0.00    -0.348 OA
ATOM     39  H2  UNL     1     -29.171  -4.122  31.401  1.00  0.00     0.219 HD
ENDBRANCH  33  38
ENDBRANCH   1  33
BRANCH   2  40
HETATM   40  C4  UNL     1     -26.399  -7.590  32.721  1.00  0.00    -0.027 A 
HETATM   41  C5  UNL     1     -25.790  -8.335  31.698  1.00  0.00     0.011 A 
HETATM   42  C6  UNL     1     -25.035  -9.445  31.985  1.00  0.00     0.013 A 
HETATM   43  C7  UNL     1     -24.884  -9.816  33.312  1.00  0.00    -0.026 A 
HETATM   44  C8  UNL     1     -24.139 -10.918  33.655  1.00  0.00     0.012 A 
HETATM   45  C12 UNL     1     -25.474  -9.100  34.337  1.00  0.00    -0.025 A 
HETATM   46  C9  UNL     1     -24.003 -11.271  34.986  1.00  0.00     0.001 A 
HETATM   47  C10 UNL     1     -24.590 -10.560  36.015  1.00  0.00     0.001 A 
HETATM   48  C11 UNL     1     -25.338  -9.452  35.662  1.00  0.00     0.012 A 
HETATM   49  C13 UNL     1     -26.235  -7.978  34.007  1.00  0.00     0.022 A 
ENDBRANCH   2  40
TORSDOF 7
ENDMDL
MODEL 3
REMARK VINA RESULT: -10.413581757      4.627      5.385
REMARK  7 active torsions:
REMARK  status: ('A' for Active; 'I' for Inactive)
REMARK    1  A    between atoms: O1_1  and  N1_3 
REMARK    2  A    between atoms: C1_5  and  O2_6 
REMARK    3  A    between atoms: C1_5  and  C2_8 
REMARK    4  A    between atoms: C3_9  and  C4_10 
REMARK    5  A    between atoms: C19_29  and  C20_30 
REMARK    6  A    between atoms: C23_33  and  N3_34 
REMARK    7  A    between atoms: N4_37  and  C26_38 
ROOT
HETATM    1  C2  UNL     1     -24.628  -5.852  32.074  1.00  0.00     0.109 C 
HETATM    2  C3  UNL     1     -25.467  -6.314  33.257  1.00  0.00     0.176 C 
HETATM    3  O3  UNL     1     -26.787  -5.800  33.155  1.00  0.00    -0.324 OA
HETATM    4  C14 UNL     1     -27.236  -4.974  32.143  1.00  0.00     0.149 A 
HETATM    5  N2  UNL     1     -28.258  -4.115  32.287  1.00  0.00    -0.345 N 
ATOM      6  H2  UNL     1     -28.734  -4.063  33.187  1.00  0.00     0.167 HD
HETATM    7  C15 UNL     1     -28.677  -3.319  31.283  1.00  0.00     0.114 A 
HETATM    8  C16 UNL     1     -28.034  -3.400  30.084  1.00  0.00     0.050 A 
HETATM    9 CL1  UNL     1     -28.556  -2.382  28.765  1.00  0.00    -0.083 Cl
HETATM   10  C17 UNL     1     -26.968  -4.265  29.857  1.00  0.00     0.037 A 
HETATM   11  C18 UNL     1     -26.577  -5.057  30.914  1.00  0.00     0.004 A 
HETATM   12  C19 UNL     1     -25.474  -6.048  30.863  1.00  0.00     0.072 C 
ENDROOT
BRANCH  12  13
HETATM   13  C20 UNL     1     -24.785  -6.171  29.586  1.00  0.00    -0.033 A 
HETATM   14  C21 UNL     1     -24.090  -5.204  28.942  1.00  0.00     0.013 A 
HETATM   15  C22 UNL     1     -23.494  -5.476  27.727  1.00  0.00     0.049 A 
HETATM   16  C23 UNL     1     -23.558  -6.707  27.100  1.00  0.00     0.103 A 
HETATM   17  N6  UNL     1     -24.261  -7.649  27.774  1.00  0.00    -0.352 N 
HETATM   18  C33 UNL     1     -24.839  -7.415  28.933  1.00  0.00     0.097 A 
ATOM     19  H6  UNL     1     -24.346  -8.580  27.365  1.00  0.00     0.166 HD
BRANCH  16  20
HETATM   20  N3  UNL     1     -22.944  -6.972  25.851  1.00  0.00    -0.364 N 
HETATM   21  C24 UNL     1     -22.012  -5.974  25.340  1.00  0.00     0.144 C 
HETATM   22  C25 UNL     1     -21.025  -6.610  24.380  1.00  0.00     0.144 C 
HETATM   23  N4  UNL     1     -21.858  -7.254  23.339  1.00  0.00    -0.364 N 
HETATM   24  C31 UNL     1     -22.707  -8.309  23.784  1.00  0.00     0.144 C 
HETATM   25  C32 UNL     1     -23.256  -8.181  25.166  1.00  0.00     0.144 C 
BRANCH  23  26
HETATM   26  C26 UNL     1     -21.747  -6.774  22.014  1.00  0.00     0.102 A 
HETATM   27  C27 UNL     1     -20.663  -7.084  21.242  1.00  0.00     0.048 A 
HETATM   28  C28 UNL     1     -20.554  -6.614  19.927  1.00  0.00     0.005 A 
HETATM   29  C29 UNL     1     -21.566  -5.840  19.448  1.00  0.00     0.017 A 
HETATM   30  C30 UNL     1     -22.658  -5.529  20.231  1.00  0.00     0.089 A 
HETATM   31  N5  UNL     1     -22.713  -6.003  21.480  1.00  0.00    -0.352 N 
ATOM     32  H5  UNL     1     -23.522  -5.769  22.054  1.00  0.00     0.166 HD
ENDBRANCH  23  26
ENDBRANCH  16  20
ENDBRANCH  12  13
BRANCH   1  33
HETATM   33  C1  UNL     1     -24.189  -4.451  32.320  1.00  0.00     0.143 C 
HETATM   34  N1  UNL     1     -24.532  -3.712  33.305  1.00  0.00    -0.251 N 
ATOM     35  H1  UNL     1     -25.169  -4.118  33.991  1.00  0.00     0.196 HD
BRANCH  34  36
HETATM   36  O1  UNL     1     -24.126  -2.443  33.520  1.00  0.00    -0.288 OA
ATOM     37  H1  UNL     1     -23.910  -2.063  34.363  1.00  0.00     0.244 HD
ENDBRANCH  34  36
BRANCH  33  38
HETATM   38  O2  UNL     1     -23.304  -3.822  31.412  1.00  0.00    -0.348 OA
ATOM     39  H2  UNL     1     -22.982  -4.398  30.728  1.00  0.00     0.219 HD
ENDBRANCH  33  38
ENDBRANCH   1  33
BRANCH   2  40
HETATM   40  C4  UNL     1     -25.565  -7.754  33.431  1.00  0.00    -0.027 A 
HETATM   41  C5  UNL     1     -25.247  -8.535  32.307  1.00  0.00     0.011 A 
HETATM   42  C6  UNL     1     -25.308  -9.906  32.358  1.00  0.00     0.013 A 
HETATM   43  C7  UNL     1     -25.690 -10.506  33.548  1.00  0.00    -0.026 A 
HETATM   44  C8  UNL     1     -25.767 -11.874  33.655  1.00  0.00     0.012 A 
HETATM   45  C12 UNL     1     -26.009  -9.760  34.667  1.00  0.00    -0.025 A 
HETATM   46  C9  UNL     1     -26.152 -12.451  34.851  1.00  0.00     0.001 A 
HETATM   47  C10 UNL     1     -26.472 -11.711  35.973  1.00  0.00     0.001 A 
HETATM   48  C11 UNL     1     -26.392 -10.335  35.859  1.00  0.00     0.012 A 
HETATM   49  C13 UNL     1     -25.936  -8.369  34.578  1.00  0.00     0.022 A 
ENDBRANCH   2  40
TORSDOF 7
ENDMDL
MODEL 4
REMARK VINA RESULT: -10.100616747      4.493      5.156
REMARK  7 active torsions:
REMARK  status: ('A' for Active; 'I' for Inactive)
REMARK    1  A    between atoms: O1_1  and  N1_3 
REMARK    2  A    between atoms: C1_5  and  O2_6 
REMARK    3  A    between atoms: C1_5  and  C2_8 
REMARK    4  A    between atoms: C3_9  and  C4_10 
REMARK    5  A    between atoms: C19_29  and  C20_30 
REMARK    6  A    between atoms: C23_33  and  N3_34 
REMARK    7  A    between atoms: N4_37  and  C26_38 
ROOT
HETATM    1  C2  UNL     1     -24.487  -6.048  32.333  1.00  0.00     0.109 C 
HETATM    2  C3  UNL     1     -25.532  -6.449  33.364  1.00  0.00     0.176 C 
HETATM    3  O3  UNL     1     -26.808  -5.951  32.992  1.00  0.00    -0.324 OA
HETATM    4  C14 UNL     1     -27.059  -5.185  31.870  1.00  0.00     0.149 A 
HETATM    5  N2  UNL     1     -28.087  -4.325  31.775  1.00  0.00    -0.345 N 
ATOM      6  H2  UNL     1     -28.721  -4.227  32.567  1.00  0.00     0.167 HD
HETATM    7  C15 UNL     1     -28.310  -3.589  30.668  1.00  0.00     0.114 A 
HETATM    8  C16 UNL     1     -27.456  -3.732  29.615  1.00  0.00     0.050 A 
HETATM    9 CL1  UNL     1     -27.722  -2.792  28.168  1.00  0.00    -0.083 Cl
HETATM   10  C17 UNL     1     -26.371  -4.601  29.637  1.00  0.00     0.037 A 
HETATM   11  C18 UNL     1     -26.185  -5.331  30.791  1.00  0.00     0.004 A 
HETATM   12  C19 UNL     1     -25.096  -6.317  31.000  1.00  0.00     0.072 C 
ENDROOT
BRANCH  12  13
HETATM   13  C20 UNL     1     -24.183  -6.505  29.881  1.00  0.00    -0.033 A 
HETATM   14  C21 UNL     1     -23.345  -5.583  29.352  1.00  0.00     0.013 A 
HETATM   15  C22 UNL     1     -22.540  -5.916  28.280  1.00  0.00     0.049 A 
HETATM   16  C23 UNL     1     -22.529  -7.167  27.690  1.00  0.00     0.103 A 
HETATM   17  N6  UNL     1     -23.379  -8.063  28.246  1.00  0.00    -0.352 N 
HETATM   18  C33 UNL     1     -24.157  -7.770  29.267  1.00  0.00     0.097 A 
ATOM     19  H6  UNL     1     -23.419  -9.005  27.857  1.00  0.00     0.166 HD
BRANCH  16  20
HETATM   20  N3  UNL     1     -21.700  -7.495  26.589  1.00  0.00    -0.364 N 
HETATM   21  C24 UNL     1     -20.880  -6.427  26.028  1.00  0.00     0.144 C 
HETATM   22  C25 UNL     1     -19.670  -7.002  25.318  1.00  0.00     0.144 C 
HETATM   23  N4  UNL     1     -20.220  -7.938  24.312  1.00  0.00    -0.364 N 
HETATM   24  C31 UNL     1     -20.940  -9.056  24.827  1.00  0.00     0.144 C 
HETATM   25  C32 UNL     1     -21.702  -8.829  26.090  1.00  0.00     0.144 C 
BRANCH  23  26
HETATM   26  C26 UNL     1     -19.994  -7.648  22.947  1.00  0.00     0.102 A 
HETATM   27  C27 UNL     1     -21.036  -7.427  22.092  1.00  0.00     0.048 A 
HETATM   28  C28 UNL     1     -20.813  -7.133  20.741  1.00  0.00     0.005 A 
HETATM   29  C29 UNL     1     -19.522  -7.078  20.312  1.00  0.00     0.017 A 
HETATM   30  C30 UNL     1     -18.473  -7.303  21.178  1.00  0.00     0.089 A 
HETATM   31  N5  UNL     1     -18.741  -7.579  22.458  1.00  0.00    -0.352 N 
ATOM     32  H5  UNL     1     -17.960  -7.745  23.094  1.00  0.00     0.166 HD
ENDBRANCH  23  26
ENDBRANCH  16  20
ENDBRANCH  12  13
BRANCH   1  33
HETATM   33  C1  UNL     1     -24.096  -4.634  32.578  1.00  0.00     0.143 C 
HETATM   34  N1  UNL     1     -24.599  -3.849  33.452  1.00  0.00    -0.251 N 
ATOM     35  H1  UNL     1     -25.344  -4.224  34.040  1.00  0.00     0.196 HD
BRANCH  34  36
HETATM   36  O1  UNL     1     -24.235  -2.567  33.667  1.00  0.00    -0.288 OA
ATOM     37  H1  UNL     1     -24.237  -2.121  34.506  1.00  0.00     0.244 HD
ENDBRANCH  34  36
BRANCH  33  38
HETATM   38  O2  UNL     1     -23.069  -4.044  31.801  1.00  0.00    -0.348 OA
ATOM     39  H2  UNL     1     -22.811  -4.562  31.047  1.00  0.00     0.219 HD
ENDBRANCH  33  38
ENDBRANCH   1  33
BRANCH   2  40
HETATM   40  C4  UNL     1     -25.666  -7.879  33.597  1.00  0.00    -0.027 A 
HETATM   41  C5  UNL     1     -25.491  -8.706  32.475  1.00  0.00     0.011 A 
HETATM   42  C6  UNL     1     -25.597 -10.071  32.580  1.00  0.00     0.013 A 
HETATM   43  C7  UNL     1     -25.882 -10.618  33.821  1.00  0.00    -0.026 A 
HETATM   44  C8  UNL     1     -26.000 -11.977  33.982  1.00  0.00     0.012 A 
HETATM   45  C12 UNL     1     -26.061  -9.825  34.939  1.00  0.00    -0.025 A 
HETATM   46  C9  UNL     1     -26.286 -12.501  35.230  1.00  0.00     0.001 A 
HETATM   47  C10 UNL     1     -26.466 -11.715  36.351  1.00  0.00     0.001 A 
HETATM   48  C11 UNL     1     -26.346 -10.348  36.182  1.00  0.00     0.012 A 
HETATM   49  C13 UNL     1     -25.945  -8.442  34.795  1.00  0.00     0.022 A 
ENDBRANCH   2  40
TORSDOF 7
ENDMDL
MODEL 5
REMARK VINA RESULT: -9.999666569      4.551      5.248
REMARK  7 active torsions:
REMARK  status: ('A' for Active; 'I' for Inactive)
REMARK    1  A    between atoms: O1_1  and  N1_3 
REMARK    2  A    between atoms: C1_5  and  O2_6 
REMARK    3  A    between atoms: C1_5  and  C2_8 
REMARK    4  A    between atoms: C3_9  and  C4_10 
REMARK    5  A    between atoms: C19_29  and  C20_30 
REMARK    6  A    between atoms: C23_33  and  N3_34 
REMARK    7  A    between atoms: N4_37  and  C26_38 
ROOT
HETATM    1  C2  UNL     1     -24.555  -5.471  31.952  1.00  0.00     0.109 C 
HETATM    2  C3  UNL     1     -25.346  -6.131  33.073  1.00  0.00     0.176 C 
HETATM    3  O3  UNL     1     -26.702  -5.714  33.031  1.00  0.00    -0.324 OA
HETATM    4  C14 UNL     1     -27.222  -4.812  32.123  1.00  0.00     0.149 A 
HETATM    5  N2  UNL     1     -28.306  -4.058  32.366  1.00  0.00    -0.345 N 
ATOM      6  H2  UNL     1     -28.777  -4.148  33.267  1.00  0.00     0.167 HD
HETATM    7  C15 UNL     1     -28.794  -3.185  31.463  1.00  0.00     0.114 A 
HETATM    8  C16 UNL     1     -28.157  -3.074  30.263  1.00  0.00     0.050 A 
HETATM    9 CL1  UNL     1     -28.768  -1.953  29.072  1.00  0.00    -0.083 Cl
HETATM   10  C17 UNL     1     -27.030  -3.822  29.936  1.00  0.00     0.037 A 
HETATM   11  C18 UNL     1     -26.569  -4.700  30.894  1.00  0.00     0.004 A 
HETATM   12  C19 UNL     1     -25.394  -5.590  30.727  1.00  0.00     0.072 C 
ENDROOT
BRANCH  12  13
HETATM   13  C20 UNL     1     -24.709  -5.508  29.445  1.00  0.00    -0.033 A 
HETATM   14  C21 UNL     1     -24.795  -4.504  28.540  1.00  0.00     0.013 A 
HETATM   15  C22 UNL     1     -24.082  -4.577  27.360  1.00  0.00     0.049 A 
HETATM   16  C23 UNL     1     -23.260  -5.637  27.024  1.00  0.00     0.103 A 
HETATM   17  N6  UNL     1     -23.199  -6.622  27.953  1.00  0.00    -0.352 N 
HETATM   18  C33 UNL     1     -23.869  -6.577  29.086  1.00  0.00     0.097 A 
ATOM     19  H6  UNL     1     -22.609  -7.433  27.767  1.00  0.00     0.166 HD
BRANCH  16  20
HETATM   20  N3  UNL     1     -22.537  -5.700  25.808  1.00  0.00    -0.364 N 
HETATM   21  C24 UNL     1     -22.674  -4.577  24.889  1.00  0.00     0.144 C 
HETATM   22  C25 UNL     1     -21.463  -4.479  23.982  1.00  0.00     0.144 C 
HETATM   23  N4  UNL     1     -21.370  -5.799  23.318  1.00  0.00    -0.364 N 
HETATM   24  C31 UNL     1     -21.129  -6.912  24.175  1.00  0.00     0.144 C 
HETATM   25  C32 UNL     1     -21.719  -6.837  25.543  1.00  0.00     0.144 C 
BRANCH  23  26
HETATM   26  C26 UNL     1     -21.529  -5.844  21.914  1.00  0.00     0.102 A 
HETATM   27  C27 UNL     1     -20.563  -6.386  21.114  1.00  0.00     0.048 A 
HETATM   28  C28 UNL     1     -20.722  -6.438  19.723  1.00  0.00     0.005 A 
HETATM   29  C29 UNL     1     -21.871  -5.930  19.200  1.00  0.00     0.017 A 
HETATM   30  C30 UNL     1     -22.843  -5.383  20.012  1.00  0.00     0.089 A 
HETATM   31  N5  UNL     1     -22.642  -5.358  21.333  1.00  0.00    -0.352 N 
ATOM     32  H5  UNL     1     -23.364  -4.952  21.928  1.00  0.00     0.166 HD
ENDBRANCH  23  26
ENDBRANCH  16  20
ENDBRANCH  12  13
BRANCH   1  33
HETATM   33  C1  UNL     1     -24.223  -4.079  32.362  1.00  0.00     0.143 C 
HETATM   34  N1  UNL     1     -24.463  -3.546  33.498  1.00  0.00    -0.251 N 
ATOM     35  H1  UNL     1     -24.929  -4.127  34.195  1.00  0.00     0.196 HD
BRANCH  34  36
HETATM   36  O1  UNL     1     -24.156  -2.282  33.859  1.00  0.00    -0.288 OA
ATOM     37  H1  UNL     1     -24.503  -1.818  34.612  1.00  0.00     0.244 HD
ENDBRANCH  34  36
BRANCH  33  38
HETATM   38  O2  UNL     1     -23.576  -3.214  31.447  1.00  0.00    -0.348 OA
ATOM     39  H2  UNL     1     -24.172  -2.707  30.909  1.00  0.00     0.219 HD
ENDBRANCH  33  38
ENDBRANCH   1  33
BRANCH   2  40
HETATM   40  C4  UNL     1     -25.331  -7.586  33.077  1.00  0.00    -0.027 A 
HETATM   41  C5  UNL     1     -25.761  -8.205  34.262  1.00  0.00     0.011 A 
HETATM   42  C6  UNL     1     -25.785  -9.573  34.376  1.00  0.00     0.013 A 
HETATM   43  C7  UNL     1     -25.376 -10.334  33.292  1.00  0.00    -0.026 A 
HETATM   44  C8  UNL     1     -25.380 -11.707  33.353  1.00  0.00     0.012 A 
HETATM   45  C12 UNL     1     -24.948  -9.749  32.116  1.00  0.00    -0.025 A 
HETATM   46  C9  UNL     1     -24.966 -12.446  32.260  1.00  0.00     0.001 A 
HETATM   47  C10 UNL     1     -24.537 -11.867  31.081  1.00  0.00     0.001 A 
HETATM   48  C11 UNL     1     -24.535 -10.485  31.027  1.00  0.00     0.012 A 
HETATM   49  C13 UNL     1     -24.936  -8.355  32.036  1.00  0.00     0.022 A 
ENDBRANCH   2  40
TORSDOF 7
ENDMDL
