MODEL 1
REMARK VINA RESULT: -5.650001569      0.000      0.000
REMARK  9 active torsions:
REMARK  status: ('A' for Active; 'I' for Inactive)
REMARK    1  A    between atoms: C2_2  and  C3_3 
REMARK    2  A    between atoms: C3_3  and  C4_4 
REMARK    3  A    between atoms: C9_13  and  C10_14 
REMARK    4  A    between atoms: C10_14  and  C11_15 
REMARK    5  A    between atoms: C11_15  and  C13_17 
REMARK    6  A    between atoms: C16_23  and  C17_24 
REMARK    7  A    between atoms: C21_31  and  C22_32 
REMARK    8  A    between atoms: C22_32  and  C23_33 
REMARK    9  A    between atoms: C27_38  and  O5_39 
ROOT
HETATM    1  C4  UNL     1       8.243   5.266 -16.888  1.00  0.00     0.159 C 
HETATM    2  N1  UNL     1       8.033   4.585 -18.101  1.00  0.00    -0.349 N 
ATOM      3  H1  UNL     1       8.872   4.238 -18.565  1.00  0.00     0.163 HD
HETATM    4  C5  UNL     1       6.825   4.322 -18.753  1.00  0.00     0.218 C 
HETATM    5  O1  UNL     1       6.723   3.127 -19.237  1.00  0.00    -0.274 OA
HETATM    6  C6  UNL     1       5.666   5.176 -18.974  1.00  0.00     0.110 C 
HETATM    7  C7  UNL     1       5.987   6.596 -19.388  1.00  0.00     0.090 C 
HETATM    8  C8  UNL     1       6.684   6.642 -20.697  1.00  0.00     0.149 C 
HETATM    9  O2  UNL     1       6.483   5.861 -21.583  1.00  0.00    -0.296 OA
HETATM   10  C9  UNL     1       7.692   7.729 -20.913  1.00  0.00     0.154 C 
HETATM   11  N2  UNL     1       8.860   7.141 -21.472  1.00  0.00    -0.348 N 
ATOM     12  H2  UNL     1       8.691   6.419 -22.172  1.00  0.00     0.163 HD
HETATM   13  C15 UNL     1      10.199   7.409 -21.203  1.00  0.00     0.241 C 
HETATM   14  O3  UNL     1      10.999   7.584 -22.171  1.00  0.00    -0.271 OA
HETATM   15  C16 UNL     1      10.823   7.517 -19.831  1.00  0.00     0.180 C 
HETATM   16  N3  UNL     1      11.738   6.403 -19.704  1.00  0.00    -0.342 N 
ATOM     17  H3  UNL     1      12.484   6.374 -20.398  1.00  0.00     0.163 HD
HETATM   18  C20 UNL     1      11.755   5.354 -18.766  1.00  0.00     0.265 C 
HETATM   19  O4  UNL     1      11.722   4.171 -19.286  1.00  0.00    -0.266 OA
HETATM   20  C21 UNL     1      11.805   5.384 -17.311  1.00  0.00     0.081 C 
HETATM   21  N4  UNL     1      10.811   4.691 -16.538  1.00  0.00    -0.333 N 
HETATM   22  C26 UNL     1      11.239   3.364 -16.000  1.00  0.00     0.158 C 
HETATM   23  C27 UNL     1       9.510   5.058 -16.163  1.00  0.00     0.141 C 
ENDROOT
BRANCH  10  24
HETATM   24  C10 UNL     1       7.118   8.900 -21.623  1.00  0.00     0.037 C 
BRANCH  24  25
HETATM   25  C11 UNL     1       7.161  10.207 -20.913  1.00  0.00    -0.017 C 
HETATM   26  C12 UNL     1       6.209  10.318 -19.749  1.00  0.00     0.010 C 
BRANCH  25  27
HETATM   27  C13 UNL     1       6.837  11.369 -21.864  1.00  0.00    -0.000 C 
HETATM   28  C14 UNL     1       7.345  12.638 -21.215  1.00  0.00     0.005 C 
ENDBRANCH  25  27
ENDBRANCH  24  25
ENDBRANCH  10  24
BRANCH  15  29
HETATM   29  C17 UNL     1      11.490   8.860 -19.808  1.00  0.00     0.009 C 
HETATM   30  C18 UNL     1      12.986   8.755 -19.532  1.00  0.00     0.012 C 
HETATM   31  C19 UNL     1      10.958   9.858 -18.852  1.00  0.00     0.012 C 
ENDBRANCH  15  29
BRANCH   1  32
HETATM   32  C3  UNL     1       7.013   5.208 -16.017  1.00  0.00     0.033 C 
BRANCH  32  33
HETATM   33  C2  UNL     1       6.595   3.936 -15.439  1.00  0.00    -0.002 C 
HETATM   34  C1  UNL     1       5.557   3.951 -14.359  1.00  0.00     0.005 C 
ENDBRANCH  32  33
ENDBRANCH   1  32
BRANCH  20  35
HETATM   35  C22 UNL     1      12.257   6.709 -16.705  1.00  0.00     0.067 C 
BRANCH  35  36
HETATM   36  C23 UNL     1      13.205   6.525 -15.555  1.00  0.00    -0.017 C 
HETATM   37  C24 UNL     1      14.475   7.293 -15.903  1.00  0.00     0.010 C 
HETATM   38  C25 UNL     1      12.689   7.076 -14.268  1.00  0.00     0.010 C 
ENDBRANCH  35  36
ENDBRANCH  20  35
BRANCH  23  39
HETATM   39  O5  UNL     1       9.314   5.283 -14.883  1.00  0.00    -0.348 OA
ATOM     40  H5  UNL     1       8.900   4.522 -14.495  1.00  0.00     0.219 HD
ENDBRANCH  23  39
TORSDOF 9
ENDMDL
MODEL 2
REMARK VINA RESULT: -5.588514943      1.228      1.749
REMARK  9 active torsions:
REMARK  status: ('A' for Active; 'I' for Inactive)
REMARK    1  A    between atoms: C2_2  and  C3_3 
REMARK    2  A    between atoms: C3_3  and  C4_4 
REMARK    3  A    between atoms: C9_13  and  C10_14 
REMARK    4  A    between atoms: C10_14  and  C11_15 
REMARK    5  A    between atoms: C11_15  and  C13_17 
REMARK    6  A    between atoms: C16_23  and  C17_24 
REMARK    7  A    between atoms: C21_31  and  C22_32 
REMARK    8  A    between atoms: C22_32  and  C23_33 
REMARK    9  A    between atoms: C27_38  and  O5_39 
ROOT
HETATM    1  C4  UNL     1       8.275   5.103 -16.911  1.00  0.00     0.159 C 
HETATM    2  N1  UNL     1       8.196   4.235 -18.015  1.00  0.00    -0.349 N 
ATOM      3  H1  UNL     1       9.066   4.092 -18.529  1.00  0.00     0.163 HD
HETATM    4  C5  UNL     1       7.083   3.543 -18.500  1.00  0.00     0.218 C 
HETATM    5  O1  UNL     1       7.316   2.318 -18.841  1.00  0.00    -0.274 OA
HETATM    6  C6  UNL     1       5.705   3.980 -18.681  1.00  0.00     0.110 C 
HETATM    7  C7  UNL     1       5.546   5.363 -19.276  1.00  0.00     0.090 C 
HETATM    8  C8  UNL     1       6.099   5.437 -20.651  1.00  0.00     0.149 C 
HETATM    9  O2  UNL     1       6.082   4.520 -21.422  1.00  0.00    -0.296 OA
HETATM   10  C9  UNL     1       6.708   6.734 -21.089  1.00  0.00     0.154 C 
HETATM   11  N2  UNL     1       7.955   6.446 -21.708  1.00  0.00    -0.348 N 
ATOM     12  H2  UNL     1       7.966   5.620 -22.305  1.00  0.00     0.163 HD
HETATM   13  C15 UNL     1       9.164   7.131 -21.616  1.00  0.00     0.241 C 
HETATM   14  O3  UNL     1       9.800   7.402 -22.679  1.00  0.00    -0.271 OA
HETATM   15  C16 UNL     1       9.824   7.600 -20.340  1.00  0.00     0.180 C 
HETATM   16  N3  UNL     1      11.042   6.832 -20.197  1.00  0.00    -0.342 N 
ATOM     17  H3  UNL     1      11.709   6.932 -20.963  1.00  0.00     0.163 HD
HETATM   18  C20 UNL     1      11.447   5.970 -19.162  1.00  0.00     0.265 C 
HETATM   19  O4  UNL     1      11.739   4.772 -19.547  1.00  0.00    -0.266 OA
HETATM   20  C21 UNL     1      11.590   6.207 -17.732  1.00  0.00     0.081 C 
HETATM   21  N4  UNL     1      10.915   5.363 -16.786  1.00  0.00    -0.333 N 
HETATM   22  C26 UNL     1      11.766   4.305 -16.161  1.00  0.00     0.158 C 
HETATM   23  C27 UNL     1       9.595   5.377 -16.311  1.00  0.00     0.141 C 
ENDROOT
BRANCH  10  24
HETATM   24  C10 UNL     1       5.753   7.578 -21.852  1.00  0.00     0.037 C 
BRANCH  24  25
HETATM   25  C11 UNL     1       5.562   8.976 -21.379  1.00  0.00    -0.017 C 
HETATM   26  C12 UNL     1       6.654   9.930 -21.795  1.00  0.00     0.010 C 
BRANCH  25  27
HETATM   27  C13 UNL     1       5.477   9.040 -19.847  1.00  0.00    -0.000 C 
HETATM   28  C14 UNL     1       4.045   8.735 -19.462  1.00  0.00     0.005 C 
ENDBRANCH  25  27
ENDBRANCH  24  25
ENDBRANCH  10  24
BRANCH  15  29
HETATM   29  C17 UNL     1      10.048   9.070 -20.532  1.00  0.00     0.009 C 
HETATM   30  C18 UNL     1      11.528   9.416 -20.651  1.00  0.00     0.012 C 
HETATM   31  C19 UNL     1       9.488   9.975 -19.502  1.00  0.00     0.012 C 
ENDBRANCH  15  29
BRANCH   1  32
HETATM   32  C3  UNL     1       7.189   4.803 -15.909  1.00  0.00     0.033 C 
BRANCH  32  33
HETATM   33  C2  UNL     1       7.204   3.538 -15.183  1.00  0.00    -0.002 C 
HETATM   34  C1  UNL     1       6.116   3.276 -14.187  1.00  0.00     0.005 C 
ENDBRANCH  32  33
ENDBRANCH   1  32
BRANCH  20  35
HETATM   35  C22 UNL     1      11.659   7.675 -17.323  1.00  0.00     0.067 C 
BRANCH  35  36
HETATM   36  C23 UNL     1      13.047   8.240 -17.423  1.00  0.00    -0.017 C 
HETATM   37  C24 UNL     1      12.938   9.732 -17.131  1.00  0.00     0.010 C 
HETATM   38  C25 UNL     1      13.996   7.659 -16.429  1.00  0.00     0.010 C 
ENDBRANCH  35  36
ENDBRANCH  20  35
BRANCH  23  39
HETATM   39  O5  UNL     1       9.433   5.704 -15.049  1.00  0.00    -0.348 OA
ATOM     40  H5  UNL     1       8.699   6.302 -14.976  1.00  0.00     0.219 HD
ENDBRANCH  23  39
TORSDOF 9
ENDMDL
MODEL 3
REMARK VINA RESULT: -5.484835416      2.420      4.265
REMARK  9 active torsions:
REMARK  status: ('A' for Active; 'I' for Inactive)
REMARK    1  A    between atoms: C2_2  and  C3_3 
REMARK    2  A    between atoms: C3_3  and  C4_4 
REMARK    3  A    between atoms: C9_13  and  C10_14 
REMARK    4  A    between atoms: C10_14  and  C11_15 
REMARK    5  A    between atoms: C11_15  and  C13_17 
REMARK    6  A    between atoms: C16_23  and  C17_24 
REMARK    7  A    between atoms: C21_31  and  C22_32 
REMARK    8  A    between atoms: C22_32  and  C23_33 
REMARK    9  A    between atoms: C27_38  and  O5_39 
ROOT
HETATM    1  C4  UNL     1       6.748   7.559 -20.623  1.00  0.00     0.159 C 
HETATM    2  N1  UNL     1       7.102   7.451 -21.980  1.00  0.00    -0.349 N 
ATOM      3  H1  UNL     1       7.867   6.809 -22.188  1.00  0.00     0.163 HD
HETATM    4  C5  UNL     1       6.543   8.107 -23.079  1.00  0.00     0.218 C 
HETATM    5  O1  UNL     1       6.356   7.357 -24.116  1.00  0.00    -0.274 OA
HETATM    6  C6  UNL     1       6.138   9.497 -23.245  1.00  0.00     0.110 C 
HETATM    7  C7  UNL     1       7.105  10.516 -22.682  1.00  0.00     0.090 C 
HETATM    8  C8  UNL     1       8.416  10.470 -23.375  1.00  0.00     0.149 C 
HETATM    9  O2  UNL     1       8.543  10.198 -24.535  1.00  0.00    -0.296 OA
HETATM   10  C9  UNL     1       9.642  10.784 -22.572  1.00  0.00     0.154 C 
HETATM   11  N2  UNL     1      10.617   9.788 -22.853  1.00  0.00    -0.348 N 
ATOM     12  H2  UNL     1      10.675   9.497 -23.829  1.00  0.00     0.163 HD
HETATM   13  C15 UNL     1      11.505   9.154 -21.988  1.00  0.00     0.241 C 
HETATM   14  O3  UNL     1      12.727   9.065 -22.316  1.00  0.00    -0.271 OA
HETATM   15  C16 UNL     1      11.156   8.538 -20.653  1.00  0.00     0.180 C 
HETATM   16  N3  UNL     1      11.354   7.111 -20.791  1.00  0.00    -0.342 N 
ATOM     17  H3  UNL     1      12.301   6.827 -21.041  1.00  0.00     0.163 HD
HETATM   18  C20 UNL     1      10.437   6.055 -20.632  1.00  0.00     0.265 C 
HETATM   19  O4  UNL     1      10.325   5.284 -21.662  1.00  0.00    -0.266 OA
HETATM   20  C21 UNL     1       9.599   5.691 -19.498  1.00  0.00     0.081 C 
HETATM   21  N4  UNL     1       8.180   5.538 -19.666  1.00  0.00    -0.333 N 
HETATM   22  C26 UNL     1       7.706   4.127 -19.796  1.00  0.00     0.158 C 
HETATM   23  C27 UNL     1       7.145   6.485 -19.693  1.00  0.00     0.141 C 
ENDROOT
BRANCH  10  24
HETATM   24  C10 UNL     1      10.062  12.201 -22.712  1.00  0.00     0.037 C 
BRANCH  24  25
HETATM   25  C11 UNL     1       9.853  13.086 -21.534  1.00  0.00    -0.017 C 
HETATM   26  C12 UNL     1       9.479  12.360 -20.266  1.00  0.00     0.010 C 
BRANCH  25  27
HETATM   27  C13 UNL     1       8.744  14.115 -21.800  1.00  0.00    -0.000 C 
HETATM   28  C14 UNL     1       7.578  13.766 -20.900  1.00  0.00     0.005 C 
ENDBRANCH  25  27
ENDBRANCH  24  25
ENDBRANCH  10  24
BRANCH  15  29
HETATM   29  C17 UNL     1      12.079   9.189 -19.667  1.00  0.00     0.009 C 
HETATM   30  C18 UNL     1      13.141   8.225 -19.149  1.00  0.00     0.012 C 
HETATM   31  C19 UNL     1      11.458   9.808 -18.473  1.00  0.00     0.012 C 
ENDBRANCH  15  29
BRANCH   1  32
HETATM   32  C3  UNL     1       5.317   8.013 -20.472  1.00  0.00     0.033 C 
BRANCH  32  33
HETATM   33  C2  UNL     1       5.022   9.251 -19.759  1.00  0.00    -0.002 C 
HETATM   34  C1  UNL     1       6.151  10.193 -19.472  1.00  0.00     0.005 C 
ENDBRANCH  32  33
ENDBRANCH   1  32
BRANCH  20  35
HETATM   35  C22 UNL     1      10.008   6.309 -18.164  1.00  0.00     0.067 C 
BRANCH  35  36
HETATM   36  C23 UNL     1      11.130   5.562 -17.501  1.00  0.00    -0.017 C 
HETATM   37  C24 UNL     1      11.535   6.373 -16.276  1.00  0.00     0.010 C 
HETATM   38  C25 UNL     1      10.738   4.203 -17.026  1.00  0.00     0.010 C 
ENDBRANCH  35  36
ENDBRANCH  20  35
BRANCH  23  39
HETATM   39  O5  UNL     1       6.304   6.458 -18.684  1.00  0.00    -0.348 OA
ATOM     40  H5  UNL     1       5.652   5.785 -18.842  1.00  0.00     0.219 HD
ENDBRANCH  23  39
TORSDOF 9
ENDMDL
MODEL 4
REMARK VINA RESULT: -5.383342980      2.684      6.868
REMARK  9 active torsions:
REMARK  status: ('A' for Active; 'I' for Inactive)
REMARK    1  A    between atoms: C2_2  and  C3_3 
REMARK    2  A    between atoms: C3_3  and  C4_4 
REMARK    3  A    between atoms: C9_13  and  C10_14 
REMARK    4  A    between atoms: C10_14  and  C11_15 
REMARK    5  A    between atoms: C11_15  and  C13_17 
REMARK    6  A    between atoms: C16_23  and  C17_24 
REMARK    7  A    between atoms: C21_31  and  C22_32 
REMARK    8  A    between atoms: C22_32  and  C23_33 
REMARK    9  A    between atoms: C27_38  and  O5_39 
ROOT
HETATM    1  C4  UNL     1       7.768   6.036 -19.924  1.00  0.00     0.159 C 
HETATM    2  N1  UNL     1       7.993   6.620 -18.664  1.00  0.00    -0.349 N 
ATOM      3  H1  UNL     1       7.464   7.470 -18.469  1.00  0.00     0.163 HD
HETATM    4  C5  UNL     1       8.847   6.188 -17.645  1.00  0.00     0.218 C 
HETATM    5  O1  UNL     1       8.342   6.253 -16.456  1.00  0.00    -0.274 OA
HETATM    6  C6  UNL     1      10.210   5.677 -17.707  1.00  0.00     0.110 C 
HETATM    7  C7  UNL     1      11.132   6.429 -18.643  1.00  0.00     0.090 C 
HETATM    8  C8  UNL     1      11.326   7.835 -18.210  1.00  0.00     0.149 C 
HETATM    9  O2  UNL     1      11.334   8.180 -17.063  1.00  0.00    -0.296 OA
HETATM   10  C9  UNL     1      11.525   8.871 -19.273  1.00  0.00     0.154 C 
HETATM   11  N2  UNL     1      10.682   9.976 -18.973  1.00  0.00    -0.348 N 
ATOM     12  H2  UNL     1      10.624  10.225 -17.986  1.00  0.00     0.163 HD
HETATM   13  C15 UNL     1       9.924  10.767 -19.832  1.00  0.00     0.241 C 
HETATM   14  O3  UNL     1       9.988  12.029 -19.724  1.00  0.00    -0.271 OA
HETATM   15  C16 UNL     1       9.000  10.265 -20.917  1.00  0.00     0.180 C 
HETATM   16  N3  UNL     1       7.657  10.627 -20.518  1.00  0.00    -0.342 N 
ATOM     17  H3  UNL     1       7.497  11.626 -20.393  1.00  0.00     0.163 HD
HETATM   18  C20 UNL     1       6.538   9.809 -20.277  1.00  0.00     0.265 C 
HETATM   19  O4  UNL     1       6.016   9.948 -19.104  1.00  0.00    -0.266 OA
HETATM   20  C21 UNL     1       5.874   8.835 -21.132  1.00  0.00     0.081 C 
HETATM   21  N4  UNL     1       5.676   7.487 -20.676  1.00  0.00    -0.333 N 
HETATM   22  C26 UNL     1       4.304   7.187 -20.164  1.00  0.00     0.158 C 
HETATM   23  C27 UNL     1       6.537   6.380 -20.660  1.00  0.00     0.141 C 
ENDROOT
BRANCH  10  24
HETATM   24  C10 UNL     1      12.960   9.162 -19.519  1.00  0.00     0.037 C 
BRANCH  24  25
HETATM   25  C11 UNL     1      13.605   8.460 -20.661  1.00  0.00    -0.017 C 
HETATM   26  C12 UNL     1      14.662   9.266 -21.373  1.00  0.00     0.010 C 
BRANCH  25  27
HETATM   27  C13 UNL     1      12.571   8.051 -21.720  1.00  0.00    -0.000 C 
HETATM   28  C14 UNL     1      13.004   6.714 -22.281  1.00  0.00     0.005 C 
ENDBRANCH  25  27
ENDBRANCH  24  25
ENDBRANCH  10  24
BRANCH  15  29
HETATM   29  C17 UNL     1       9.466  10.940 -22.173  1.00  0.00     0.009 C 
HETATM   30  C18 UNL     1       8.405  11.868 -22.755  1.00  0.00     0.012 C 
HETATM   31  C19 UNL     1       9.909  10.064 -23.282  1.00  0.00     0.012 C 
ENDBRANCH  15  29
BRANCH   1  32
HETATM   32  C3  UNL     1       8.086   4.562 -19.900  1.00  0.00     0.033 C 
BRANCH  32  33
HETATM   33  C2  UNL     1       9.155   4.039 -20.743  1.00  0.00    -0.002 C 
HETATM   34  C1  UNL     1       9.754   4.943 -21.776  1.00  0.00     0.005 C 
ENDBRANCH  32  33
ENDBRANCH   1  32
BRANCH  20  35
HETATM   35  C22 UNL     1       6.197   8.951 -22.619  1.00  0.00     0.067 C 
BRANCH  35  36
HETATM   36  C23 UNL     1       4.972   8.867 -23.485  1.00  0.00    -0.017 C 
HETATM   37  C24 UNL     1       5.252   9.706 -24.726  1.00  0.00     0.010 C 
HETATM   38  C25 UNL     1       4.664   7.481 -23.944  1.00  0.00     0.010 C 
ENDBRANCH  35  36
ENDBRANCH  20  35
BRANCH  23  39
HETATM   39  O5  UNL     1       6.230   5.390 -21.467  1.00  0.00    -0.348 OA
ATOM     40  H5  UNL     1       6.524   5.603 -22.345  1.00  0.00     0.219 HD
ENDBRANCH  23  39
TORSDOF 9
ENDMDL
MODEL 5
REMARK VINA RESULT: -5.376138495      2.658      6.153
REMARK  9 active torsions:
REMARK  status: ('A' for Active; 'I' for Inactive)
REMARK    1  A    between atoms: C2_2  and  C3_3 
REMARK    2  A    between atoms: C3_3  and  C4_4 
REMARK    3  A    between atoms: C9_13  and  C10_14 
REMARK    4  A    between atoms: C10_14  and  C11_15 
REMARK    5  A    between atoms: C11_15  and  C13_17 
REMARK    6  A    between atoms: C16_23  and  C17_24 
REMARK    7  A    between atoms: C21_31  and  C22_32 
REMARK    8  A    between atoms: C22_32  and  C23_33 
REMARK    9  A    between atoms: C27_38  and  O5_39 
ROOT
HETATM    1  C4  UNL     1      11.880   4.490 -16.185  1.00  0.00     0.159 C 
HETATM    2  N1  UNL     1      11.617   5.725 -15.566  1.00  0.00    -0.349 N 
ATOM      3  H1  UNL     1      10.632   5.938 -15.404  1.00  0.00     0.163 HD
HETATM    4  C5  UNL     1      12.526   6.698 -15.144  1.00  0.00     0.218 C 
HETATM    5  O1  UNL     1      12.266   7.214 -13.987  1.00  0.00    -0.274 OA
HETATM    6  C6  UNL     1      13.719   7.222 -15.796  1.00  0.00     0.110 C 
HETATM    7  C7  UNL     1      13.568   7.501 -17.276  1.00  0.00     0.090 C 
HETATM    8  C8  UNL     1      12.559   8.557 -17.536  1.00  0.00     0.149 C 
HETATM    9  O2  UNL     1      12.359   9.479 -16.797  1.00  0.00    -0.296 OA
HETATM   10  C9  UNL     1      11.753   8.457 -18.795  1.00  0.00     0.154 C 
HETATM   11  N2  UNL     1      10.388   8.674 -18.461  1.00  0.00    -0.348 N 
ATOM     12  H2  UNL     1      10.218   9.406 -17.772  1.00  0.00     0.163 HD
HETATM   13  C15 UNL     1       9.249   8.030 -18.938  1.00  0.00     0.241 C 
HETATM   14  O3  UNL     1       8.261   8.728 -19.318  1.00  0.00    -0.271 OA
HETATM   15  C16 UNL     1       9.058   6.536 -19.055  1.00  0.00     0.180 C 
HETATM   16  N3  UNL     1       8.022   6.175 -18.111  1.00  0.00    -0.342 N 
ATOM     17  H3  UNL     1       7.122   6.630 -18.263  1.00  0.00     0.163 HD
HETATM   18  C20 UNL     1       8.068   5.292 -17.017  1.00  0.00     0.265 C 
HETATM   19  O4  UNL     1       7.735   5.823 -15.887  1.00  0.00    -0.266 OA
HETATM   20  C21 UNL     1       8.427   3.883 -16.952  1.00  0.00     0.081 C 
HETATM   21  N4  UNL     1       9.447   3.437 -16.043  1.00  0.00    -0.333 N 
HETATM   22  C26 UNL     1       8.943   2.825 -14.776  1.00  0.00     0.158 C 
HETATM   23  C27 UNL     1      10.846   3.439 -16.150  1.00  0.00     0.141 C 
ENDROOT
BRANCH  10  24
HETATM   24  C10 UNL     1      12.318   9.278 -19.896  1.00  0.00     0.037 C 
BRANCH  24  25
HETATM   25  C11 UNL     1      12.469   8.619 -21.220  1.00  0.00    -0.017 C 
HETATM   26  C12 UNL     1      11.244   8.692 -22.098  1.00  0.00     0.010 C 
BRANCH  25  27
HETATM   27  C13 UNL     1      12.815   7.130 -21.066  1.00  0.00    -0.000 C 
HETATM   28  C14 UNL     1      14.325   7.017 -21.058  1.00  0.00     0.005 C 
ENDBRANCH  25  27
ENDBRANCH  24  25
ENDBRANCH  10  24
BRANCH  15  29
HETATM   29  C17 UNL     1       8.687   6.299 -20.488  1.00  0.00     0.009 C 
HETATM   30  C18 UNL     1       7.247   5.822 -20.639  1.00  0.00     0.012 C 
HETATM   31  C19 UNL     1       9.525   5.344 -21.250  1.00  0.00     0.012 C 
ENDBRANCH  15  29
BRANCH   1  32
HETATM   32  C3  UNL     1      13.269   4.004 -15.852  1.00  0.00     0.033 C 
BRANCH  32  33
HETATM   33  C2  UNL     1      14.247   3.824 -16.919  1.00  0.00    -0.002 C 
HETATM   34  C1  UNL     1      13.793   3.993 -18.336  1.00  0.00     0.005 C 
ENDBRANCH  32  33
ENDBRANCH   1  32
BRANCH  20  35
HETATM   35  C22 UNL     1       8.415   3.148 -18.289  1.00  0.00     0.067 C 
BRANCH  35  36
HETATM   36  C23 UNL     1       7.037   2.712 -18.697  1.00  0.00    -0.017 C 
HETATM   37  C24 UNL     1       7.185   1.958 -20.013  1.00  0.00     0.010 C 
HETATM   38  C25 UNL     1       6.396   1.783 -17.721  1.00  0.00     0.010 C 
ENDBRANCH  35  36
ENDBRANCH  20  35
BRANCH  23  39
HETATM   39  O5  UNL     1      11.425   2.263 -16.246  1.00  0.00    -0.348 OA
ATOM     40  H5  UNL     1      10.757   1.588 -16.245  1.00  0.00     0.219 HD
ENDBRANCH  23  39
TORSDOF 9
ENDMDL
