MODEL 1
REMARK VINA RESULT: -5.098390281      0.000      0.000
REMARK  10 active torsions:
REMARK  status: ('A' for Active; 'I' for Inactive)
REMARK    1  A    between atoms: C2_2  and  C3_3 
REMARK    2  A    between atoms: C3_3  and  C4_4 
REMARK    3  A    between atoms: C4_4  and  C5_5 
REMARK    4  A    between atoms: C10_16  and  C11_17 
REMARK    5  A    between atoms: C11_17  and  C12_18 
REMARK    6  A    between atoms: C15_24  and  C16_25 
REMARK    7  A    between atoms: C16_25  and  C17_26 
REMARK    8  A    between atoms: N4_29  and  S1_30 
REMARK    9  A    between atoms: S1_30  and  C21_33 
REMARK   10  A    between atoms: C24_37  and  O5_38 
ROOT
HETATM    1  C5  UNL     1       9.571  16.877 -23.601  1.00  0.00     0.064 C 
HETATM    2  N1  UNL     1       9.363  17.175 -22.188  1.00  0.00    -0.327 N 
ATOM      3  H1  UNL     1      10.161  17.573 -21.693  1.00  0.00     0.168 HD
HETATM    4  C6  UNL     1       8.206  16.982 -21.435  1.00  0.00     0.223 C 
HETATM    5  O1  UNL     1       7.809  17.978 -20.727  1.00  0.00    -0.273 OA
HETATM    6  C7  UNL     1       7.360  15.774 -21.335  1.00  0.00     0.122 C 
HETATM    7  C8  UNL     1       7.655  14.930 -20.116  1.00  0.00     0.132 C 
HETATM    8  N2  UNL     1       8.882  14.202 -20.171  1.00  0.00    -0.359 N 
ATOM      9  H2  UNL     1       9.724  14.705 -19.892  1.00  0.00     0.162 HD
HETATM   10  C9  UNL     1       9.053  12.854 -20.574  1.00  0.00     0.240 C 
HETATM   11  O2  UNL     1       9.727  12.088 -19.799  1.00  0.00    -0.271 OA
HETATM   12  C10 UNL     1       8.531  12.243 -21.802  1.00  0.00     0.176 C 
HETATM   13  N3  UNL     1       9.543  12.072 -22.853  1.00  0.00    -0.346 N 
ATOM     14  H3  UNL     1      10.498  11.881 -22.549  1.00  0.00     0.163 HD
HETATM   15  C14 UNL     1       9.318  12.147 -24.219  1.00  0.00     0.243 C 
HETATM   16  O3  UNL     1       9.759  11.217 -24.962  1.00  0.00    -0.271 OA
HETATM   17  C15 UNL     1       8.561  13.287 -24.914  1.00  0.00     0.209 C 
HETATM   18  N4  UNL     1       9.421  14.089 -25.651  1.00  0.00    -0.233 N 
HETATM   19  N5  UNL     1      10.399  14.681 -24.790  1.00  0.00    -0.264 N 
HETATM   20  C23 UNL     1      11.763  14.172 -25.069  1.00  0.00     0.181 C 
HETATM   21  C24 UNL     1      10.274  15.614 -23.789  1.00  0.00     0.180 C 
ENDROOT
BRANCH  18  22
HETATM   22  S1  UNL     1       9.909  14.017 -27.404  1.00  0.00     0.037 S 
HETATM   23  C20 UNL     1      11.217  15.109 -28.249  1.00  0.00     0.138 C 
HETATM   24  O4  UNL     1       8.657  15.357 -27.640  1.00  0.00    -0.249 OA
BRANCH  22  25
HETATM   25  C21 UNL     1       8.801  12.994 -28.705  1.00  0.00     0.114 C 
HETATM   26  C22 UNL     1       8.998  11.481 -28.479  1.00  0.00     0.019 C 
ENDBRANCH  22  25
ENDBRANCH  18  22
BRANCH  17  27
HETATM   27  C16 UNL     1       7.324  12.686 -25.389  1.00  0.00     0.041 C 
BRANCH  27  28
HETATM   28  C17 UNL     1       6.355  13.465 -26.215  1.00  0.00    -0.020 C 
HETATM   29  C18 UNL     1       5.104  12.563 -26.366  1.00  0.00     0.009 C 
HETATM   30  C19 UNL     1       5.829  14.684 -25.484  1.00  0.00     0.009 C 
ENDBRANCH  27  28
ENDBRANCH  17  27
BRANCH  21  31
HETATM   31  O5  UNL     1      10.965  15.305 -22.720  1.00  0.00    -0.344 OA
ATOM     32  H5  UNL     1      10.511  14.649 -22.204  1.00  0.00     0.219 HD
ENDBRANCH  21  31
BRANCH   1  33
HETATM   33  C4  UNL     1       8.432  17.186 -24.488  1.00  0.00     0.062 C 
BRANCH  33  34
HETATM   34  C3  UNL     1       8.294  18.661 -24.749  1.00  0.00     0.006 C 
BRANCH  34  35
HETATM   35  C2  UNL     1       7.099  19.317 -24.163  1.00  0.00    -0.004 C 
HETATM   36  C1  UNL     1       5.994  18.247 -24.132  1.00  0.00     0.005 C 
ENDBRANCH  34  35
ENDBRANCH  33  34
ENDBRANCH   1  33
BRANCH  12  37
HETATM   37  C11 UNL     1       7.946  10.856 -21.541  1.00  0.00     0.034 C 
BRANCH  37  38
HETATM   38  C12 UNL     1       6.535  10.862 -21.084  1.00  0.00    -0.002 C 
HETATM   39  C13 UNL     1       6.293  10.220 -19.753  1.00  0.00     0.005 C 
ENDBRANCH  37  38
ENDBRANCH  12  37
TORSDOF 10
ENDMDL
MODEL 2
REMARK VINA RESULT: -4.802069448      0.680      1.072
REMARK  10 active torsions:
REMARK  status: ('A' for Active; 'I' for Inactive)
REMARK    1  A    between atoms: C2_2  and  C3_3 
REMARK    2  A    between atoms: C3_3  and  C4_4 
REMARK    3  A    between atoms: C4_4  and  C5_5 
REMARK    4  A    between atoms: C10_16  and  C11_17 
REMARK    5  A    between atoms: C11_17  and  C12_18 
REMARK    6  A    between atoms: C15_24  and  C16_25 
REMARK    7  A    between atoms: C16_25  and  C17_26 
REMARK    8  A    between atoms: N4_29  and  S1_30 
REMARK    9  A    between atoms: S1_30  and  C21_33 
REMARK   10  A    between atoms: C24_37  and  O5_38 
ROOT
HETATM    1  C5  UNL     1       9.539  16.916 -23.646  1.00  0.00     0.064 C 
HETATM    2  N1  UNL     1       9.308  17.228 -22.240  1.00  0.00    -0.327 N 
ATOM      3  H1  UNL     1      10.094  17.641 -21.737  1.00  0.00     0.168 HD
HETATM    4  C6  UNL     1       8.142  17.031 -21.500  1.00  0.00     0.223 C 
HETATM    5  O1  UNL     1       7.724  18.030 -20.810  1.00  0.00    -0.273 OA
HETATM    6  C7  UNL     1       7.308  15.815 -21.398  1.00  0.00     0.122 C 
HETATM    7  C8  UNL     1       7.596  14.988 -20.165  1.00  0.00     0.132 C 
HETATM    8  N2  UNL     1       8.831  14.273 -20.195  1.00  0.00    -0.359 N 
ATOM      9  H2  UNL     1       9.663  14.789 -19.910  1.00  0.00     0.162 HD
HETATM   10  C9  UNL     1       9.023  12.923 -20.580  1.00  0.00     0.240 C 
HETATM   11  O2  UNL     1       9.695  12.174 -19.786  1.00  0.00    -0.271 OA
HETATM   12  C10 UNL     1       8.525  12.292 -21.808  1.00  0.00     0.176 C 
HETATM   13  N3  UNL     1       9.555  12.121 -22.842  1.00  0.00    -0.346 N 
ATOM     14  H3  UNL     1      10.508  11.943 -22.522  1.00  0.00     0.163 HD
HETATM   15  C14 UNL     1       9.349  12.177 -24.212  1.00  0.00     0.243 C 
HETATM   16  O3  UNL     1       9.811  11.244 -24.938  1.00  0.00    -0.271 OA
HETATM   17  C15 UNL     1       8.589  13.301 -24.931  1.00  0.00     0.209 C 
HETATM   18  N4  UNL     1       9.451  14.104 -25.665  1.00  0.00    -0.233 N 
HETATM   19  N5  UNL     1      10.409  14.717 -24.797  1.00  0.00    -0.264 N 
HETATM   20  C23 UNL     1      11.783  14.220 -25.051  1.00  0.00     0.181 C 
HETATM   21  C24 UNL     1      10.260  15.660 -23.808  1.00  0.00     0.180 C 
ENDROOT
BRANCH  18  22
HETATM   22  S1  UNL     1       9.965  14.017 -27.409  1.00  0.00     0.037 S 
HETATM   23  C20 UNL     1      11.243  15.142 -28.259  1.00  0.00     0.138 C 
HETATM   24  O4  UNL     1       8.667  15.304 -27.687  1.00  0.00    -0.249 OA
BRANCH  22  25
HETATM   25  C21 UNL     1       8.914  12.929 -28.705  1.00  0.00     0.114 C 
HETATM   26  C22 UNL     1       9.146  11.428 -28.433  1.00  0.00     0.019 C 
ENDBRANCH  22  25
ENDBRANCH  18  22
BRANCH  17  27
HETATM   27  C16 UNL     1       7.366  12.680 -25.417  1.00  0.00     0.041 C 
BRANCH  27  28
HETATM   28  C17 UNL     1       6.385  13.448 -26.238  1.00  0.00    -0.020 C 
HETATM   29  C18 UNL     1       5.138  12.537 -26.374  1.00  0.00     0.009 C 
HETATM   30  C19 UNL     1       5.856  14.667 -25.507  1.00  0.00     0.009 C 
ENDBRANCH  27  28
ENDBRANCH  17  27
BRANCH  21  31
HETATM   31  O5  UNL     1      10.939  15.371 -22.726  1.00  0.00    -0.344 OA
ATOM     32  H5  UNL     1      10.837  14.453 -22.500  1.00  0.00     0.219 HD
ENDBRANCH  21  31
BRANCH   1  33
HETATM   33  C4  UNL     1       8.410  17.202 -24.552  1.00  0.00     0.062 C 
BRANCH  33  34
HETATM   34  C3  UNL     1       8.687  18.369 -25.460  1.00  0.00     0.006 C 
BRANCH  34  35
HETATM   35  C2  UNL     1       9.970  18.325 -26.204  1.00  0.00    -0.004 C 
HETATM   36  C1  UNL     1       9.642  18.737 -27.650  1.00  0.00     0.005 C 
ENDBRANCH  34  35
ENDBRANCH  33  34
ENDBRANCH   1  33
BRANCH  12  37
HETATM   37  C11 UNL     1       7.953  10.901 -21.540  1.00  0.00     0.034 C 
BRANCH  37  38
HETATM   38  C12 UNL     1       6.550  10.900 -21.057  1.00  0.00    -0.002 C 
HETATM   39  C13 UNL     1       6.324  10.192 -19.756  1.00  0.00     0.005 C 
ENDBRANCH  37  38
ENDBRANCH  12  37
TORSDOF 10
ENDMDL
MODEL 3
REMARK VINA RESULT: -4.784299950      2.430      3.329
REMARK  10 active torsions:
REMARK  status: ('A' for Active; 'I' for Inactive)
REMARK    1  A    between atoms: C2_2  and  C3_3 
REMARK    2  A    between atoms: C3_3  and  C4_4 
REMARK    3  A    between atoms: C4_4  and  C5_5 
REMARK    4  A    between atoms: C10_16  and  C11_17 
REMARK    5  A    between atoms: C11_17  and  C12_18 
REMARK    6  A    between atoms: C15_24  and  C16_25 
REMARK    7  A    between atoms: C16_25  and  C17_26 
REMARK    8  A    between atoms: N4_29  and  S1_30 
REMARK    9  A    between atoms: S1_30  and  C21_33 
REMARK   10  A    between atoms: C24_37  and  O5_38 
ROOT
HETATM    1  C5  UNL     1       8.461  18.724 -22.658  1.00  0.00     0.064 C 
HETATM    2  N1  UNL     1       8.741  18.176 -21.335  1.00  0.00    -0.327 N 
ATOM      3  H1  UNL     1       9.622  18.463 -20.908  1.00  0.00     0.168 HD
HETATM    4  C6  UNL     1       7.950  17.307 -20.584  1.00  0.00     0.223 C 
HETATM    5  O1  UNL     1       7.739  17.636 -19.361  1.00  0.00    -0.273 OA
HETATM    6  C7  UNL     1       7.311  16.043 -21.005  1.00  0.00     0.122 C 
HETATM    7  C8  UNL     1       8.097  14.811 -20.618  1.00  0.00     0.132 C 
HETATM    8  N2  UNL     1       9.285  14.592 -21.377  1.00  0.00    -0.359 N 
ATOM      9  H2  UNL     1      10.121  15.089 -21.069  1.00  0.00     0.162 HD
HETATM   10  C9  UNL     1       9.427  13.758 -22.514  1.00  0.00     0.240 C 
HETATM   11  O2  UNL     1      10.401  12.925 -22.516  1.00  0.00    -0.271 OA
HETATM   12  C10 UNL     1       8.562  13.755 -23.700  1.00  0.00     0.176 C 
HETATM   13  N3  UNL     1       9.148  14.443 -24.858  1.00  0.00    -0.346 N 
ATOM     14  H3  UNL     1      10.161  14.397 -24.961  1.00  0.00     0.163 HD
HETATM   15  C14 UNL     1       8.446  15.149 -25.825  1.00  0.00     0.243 C 
HETATM   16  O3  UNL     1       8.680  14.904 -27.049  1.00  0.00    -0.271 OA
HETATM   17  C15 UNL     1       7.390  16.220 -25.523  1.00  0.00     0.209 C 
HETATM   18  N4  UNL     1       7.854  17.490 -25.836  1.00  0.00    -0.233 N 
HETATM   19  N5  UNL     1       9.013  17.794 -25.055  1.00  0.00    -0.264 N 
HETATM   20  C23 UNL     1      10.231  17.907 -25.894  1.00  0.00     0.181 C 
HETATM   21  C24 UNL     1       9.166  17.996 -23.705  1.00  0.00     0.180 C 
ENDROOT
BRANCH  18  22
HETATM   22  S1  UNL     1       7.693  18.475 -27.358  1.00  0.00     0.037 S 
HETATM   23  C20 UNL     1       8.408  20.213 -27.650  1.00  0.00     0.138 C 
HETATM   24  O4  UNL     1       6.229  19.233 -26.520  1.00  0.00    -0.249 OA
BRANCH  22  25
HETATM   25  C21 UNL     1       6.387  17.934 -28.762  1.00  0.00     0.114 C 
HETATM   26  C22 UNL     1       6.892  16.667 -29.482  1.00  0.00     0.019 C 
ENDBRANCH  22  25
ENDBRANCH  18  22
BRANCH  17  27
HETATM   27  C16 UNL     1       6.126  15.635 -25.946  1.00  0.00     0.041 C 
BRANCH  27  28
HETATM   28  C17 UNL     1       4.839  16.371 -25.772  1.00  0.00    -0.020 C 
HETATM   29  C18 UNL     1       3.720  15.305 -25.892  1.00  0.00     0.009 C 
HETATM   30  C19 UNL     1       4.671  16.907 -24.365  1.00  0.00     0.009 C 
ENDBRANCH  27  28
ENDBRANCH  17  27
BRANCH  21  31
HETATM   31  O5  UNL     1      10.217  17.385 -23.218  1.00  0.00    -0.344 OA
ATOM     32  H5  UNL     1      10.955  17.460 -23.811  1.00  0.00     0.219 HD
ENDBRANCH  21  31
BRANCH   1  33
HETATM   33  C4  UNL     1       7.058  19.117 -22.896  1.00  0.00     0.062 C 
BRANCH  33  34
HETATM   34  C3  UNL     1       6.946  20.465 -23.553  1.00  0.00     0.006 C 
BRANCH  34  35
HETATM   35  C2  UNL     1       5.714  21.235 -23.252  1.00  0.00    -0.004 C 
HETATM   36  C1  UNL     1       6.174  22.660 -22.896  1.00  0.00     0.005 C 
ENDBRANCH  34  35
ENDBRANCH  33  34
ENDBRANCH   1  33
BRANCH  12  37
HETATM   37  C11 UNL     1       8.240  12.335 -24.163  1.00  0.00     0.034 C 
BRANCH  37  38
HETATM   38  C12 UNL     1       6.940  11.813 -23.675  1.00  0.00    -0.002 C 
HETATM   39  C13 UNL     1       6.939  11.323 -22.260  1.00  0.00     0.005 C 
ENDBRANCH  37  38
ENDBRANCH  12  37
TORSDOF 10
ENDMDL
MODEL 4
REMARK VINA RESULT: -4.744905224      2.164      5.688
REMARK  10 active torsions:
REMARK  status: ('A' for Active; 'I' for Inactive)
REMARK    1  A    between atoms: C2_2  and  C3_3 
REMARK    2  A    between atoms: C3_3  and  C4_4 
REMARK    3  A    between atoms: C4_4  and  C5_5 
REMARK    4  A    between atoms: C10_16  and  C11_17 
REMARK    5  A    between atoms: C11_17  and  C12_18 
REMARK    6  A    between atoms: C15_24  and  C16_25 
REMARK    7  A    between atoms: C16_25  and  C17_26 
REMARK    8  A    between atoms: N4_29  and  S1_30 
REMARK    9  A    between atoms: S1_30  and  C21_33 
REMARK   10  A    between atoms: C24_37  and  O5_38 
ROOT
HETATM    1  C5  UNL     1       9.175  12.824 -25.683  1.00  0.00     0.064 C 
HETATM    2  N1  UNL     1       8.599  14.057 -26.209  1.00  0.00    -0.327 N 
ATOM      3  H1  UNL     1       9.226  14.646 -26.757  1.00  0.00     0.168 HD
HETATM    4  C6  UNL     1       7.296  14.527 -26.053  1.00  0.00     0.223 C 
HETATM    5  O1  UNL     1       6.691  14.907 -27.121  1.00  0.00    -0.273 OA
HETATM    6  C7  UNL     1       6.500  14.649 -24.814  1.00  0.00     0.122 C 
HETATM    7  C8  UNL     1       6.504  16.044 -24.230  1.00  0.00     0.132 C 
HETATM    8  N2  UNL     1       7.731  16.434 -23.613  1.00  0.00    -0.359 N 
ATOM      9  H2  UNL     1       8.453  16.807 -24.229  1.00  0.00     0.162 HD
HETATM   10  C9  UNL     1       8.053  16.356 -22.235  1.00  0.00     0.240 C 
HETATM   11  O2  UNL     1       8.535  17.406 -21.682  1.00  0.00    -0.271 OA
HETATM   12  C10 UNL     1       7.889  15.180 -21.372  1.00  0.00     0.176 C 
HETATM   13  N3  UNL     1       9.144  14.464 -21.105  1.00  0.00    -0.346 N 
ATOM     14  H3  UNL     1       9.995  15.024 -21.055  1.00  0.00     0.163 HD
HETATM   15  C14 UNL     1       9.275  13.096 -20.915  1.00  0.00     0.243 C 
HETATM   16  O3  UNL     1       9.929  12.680 -19.909  1.00  0.00    -0.271 OA
HETATM   17  C15 UNL     1       8.678  12.029 -21.842  1.00  0.00     0.209 C 
HETATM   18  N4  UNL     1       9.667  11.384 -22.572  1.00  0.00    -0.233 N 
HETATM   19  N5  UNL     1      10.366  12.326 -23.391  1.00  0.00    -0.264 N 
HETATM   20  C23 UNL     1      11.775  12.495 -22.962  1.00  0.00     0.181 C 
HETATM   21  C24 UNL     1       9.952  13.065 -24.473  1.00  0.00     0.180 C 
ENDROOT
BRANCH  18  22
HETATM   22  S1  UNL     1      10.592   9.853 -22.231  1.00  0.00     0.037 S 
HETATM   23  C20 UNL     1      12.058   9.181 -23.240  1.00  0.00     0.138 C 
HETATM   24  O4  UNL     1       9.424   9.072 -23.433  1.00  0.00    -0.249 OA
BRANCH  22  25
HETATM   25  C21 UNL     1       9.873   8.522 -20.936  1.00  0.00     0.114 C 
HETATM   26  C22 UNL     1      10.063   9.042 -19.496  1.00  0.00     0.019 C 
ENDBRANCH  22  25
ENDBRANCH  18  22
BRANCH  17  27
HETATM   27  C16 UNL     1       7.630  11.392 -21.061  1.00  0.00     0.041 C 
BRANCH  27  28
HETATM   28  C17 UNL     1       7.018  10.102 -21.497  1.00  0.00    -0.020 C 
HETATM   29  C18 UNL     1       5.950   9.755 -20.428  1.00  0.00     0.009 C 
HETATM   30  C19 UNL     1       6.210  10.253 -22.771  1.00  0.00     0.009 C 
ENDBRANCH  27  28
ENDBRANCH  17  27
BRANCH  21  31
HETATM   31  O5  UNL     1      10.356  14.309 -24.421  1.00  0.00    -0.344 OA
ATOM     32  H5  UNL     1       9.775  14.873 -24.919  1.00  0.00     0.219 HD
ENDBRANCH  21  31
BRANCH   1  33
HETATM   33  C4  UNL     1       8.292  11.643 -25.728  1.00  0.00     0.062 C 
BRANCH  33  34
HETATM   34  C3  UNL     1       8.089  11.134 -27.129  1.00  0.00     0.006 C 
BRANCH  34  35
HETATM   35  C2  UNL     1       6.694  11.161 -27.636  1.00  0.00    -0.004 C 
HETATM   36  C1  UNL     1       5.786  11.154 -26.394  1.00  0.00     0.005 C 
ENDBRANCH  34  35
ENDBRANCH  33  34
ENDBRANCH   1  33
BRANCH  12  37
HETATM   37  C11 UNL     1       7.312  15.555 -20.008  1.00  0.00     0.034 C 
BRANCH  37  38
HETATM   38  C12 UNL     1       8.325  15.702 -18.934  1.00  0.00    -0.002 C 
HETATM   39  C13 UNL     1       8.061  16.802 -17.953  1.00  0.00     0.005 C 
ENDBRANCH  37  38
ENDBRANCH  12  37
TORSDOF 10
ENDMDL
MODEL 5
REMARK VINA RESULT: -4.734240595      2.560      6.322
REMARK  10 active torsions:
REMARK  status: ('A' for Active; 'I' for Inactive)
REMARK    1  A    between atoms: C2_2  and  C3_3 
REMARK    2  A    between atoms: C3_3  and  C4_4 
REMARK    3  A    between atoms: C4_4  and  C5_5 
REMARK    4  A    between atoms: C10_16  and  C11_17 
REMARK    5  A    between atoms: C11_17  and  C12_18 
REMARK    6  A    between atoms: C15_24  and  C16_25 
REMARK    7  A    between atoms: C16_25  and  C17_26 
REMARK    8  A    between atoms: N4_29  and  S1_30 
REMARK    9  A    between atoms: S1_30  and  C21_33 
REMARK   10  A    between atoms: C24_37  and  O5_38 
ROOT
HETATM    1  C5  UNL     1       8.827  16.196 -22.196  1.00  0.00     0.064 C 
HETATM    2  N1  UNL     1      10.113  15.511 -22.266  1.00  0.00    -0.327 N 
ATOM      3  H1  UNL     1      10.880  15.943 -21.751  1.00  0.00     0.168 HD
HETATM    4  C6  UNL     1      10.420  14.337 -22.953  1.00  0.00     0.223 C 
HETATM    5  O1  UNL     1      11.047  13.432 -22.291  1.00  0.00    -0.273 OA
HETATM    6  C7  UNL     1      10.121  13.983 -24.357  1.00  0.00     0.122 C 
HETATM    7  C8  UNL     1      11.284  14.207 -25.297  1.00  0.00     0.132 C 
HETATM    8  N2  UNL     1      11.569  15.576 -25.585  1.00  0.00    -0.359 N 
ATOM      9  H2  UNL     1      12.157  16.071 -24.915  1.00  0.00     0.162 HD
HETATM   10  C9  UNL     1      11.121  16.320 -26.705  1.00  0.00     0.240 C 
HETATM   11  O2  UNL     1      12.000  16.978 -27.366  1.00  0.00    -0.271 OA
HETATM   12  C10 UNL     1       9.738  16.413 -27.187  1.00  0.00     0.176 C 
HETATM   13  N3  UNL     1       9.070  17.670 -26.823  1.00  0.00    -0.346 N 
ATOM     14  H3  UNL     1       9.653  18.505 -26.769  1.00  0.00     0.163 HD
HETATM   15  C14 UNL     1       7.719  17.823 -26.548  1.00  0.00     0.243 C 
HETATM   16  O3  UNL     1       7.080  18.754 -27.128  1.00  0.00    -0.271 OA
HETATM   17  C15 UNL     1       6.924  16.936 -25.581  1.00  0.00     0.209 C 
HETATM   18  N4  UNL     1       6.591  17.624 -24.422  1.00  0.00    -0.233 N 
HETATM   19  N5  UNL     1       7.778  18.046 -23.744  1.00  0.00    -0.264 N 
HETATM   20  C23 UNL     1       7.919  19.522 -23.742  1.00  0.00     0.181 C 
HETATM   21  C24 UNL     1       8.765  17.325 -23.116  1.00  0.00     0.180 C 
ENDROOT
BRANCH  18  22
HETATM   22  S1  UNL     1       5.100  18.573 -23.986  1.00  0.00     0.037 S 
HETATM   23  C20 UNL     1       4.622  19.174 -22.246  1.00  0.00     0.138 C 
HETATM   24  O4  UNL     1       4.358  16.923 -23.606  1.00  0.00    -0.249 OA
BRANCH  22  25
HETATM   25  C21 UNL     1       3.610  18.744 -25.297  1.00  0.00     0.114 C 
HETATM   26  C22 UNL     1       3.878  19.938 -26.237  1.00  0.00     0.019 C 
ENDBRANCH  22  25
ENDBRANCH  18  22
BRANCH  17  27
HETATM   27  C16 UNL     1       6.012  16.178 -26.425  1.00  0.00     0.041 C 
BRANCH  27  28
HETATM   28  C17 UNL     1       5.514  14.834 -26.009  1.00  0.00    -0.020 C 
HETATM   29  C18 UNL     1       5.138  14.096 -27.320  1.00  0.00     0.009 C 
HETATM   30  C19 UNL     1       6.612  13.973 -25.418  1.00  0.00     0.009 C 
ENDBRANCH  27  28
ENDBRANCH  17  27
BRANCH  21  31
HETATM   31  O5  UNL     1       9.968  17.753 -23.406  1.00  0.00    -0.344 OA
ATOM     32  H5  UNL     1      10.183  17.565 -24.312  1.00  0.00     0.219 HD
ENDBRANCH  21  31
BRANCH   1  33
HETATM   33  C4  UNL     1       7.647  15.317 -22.080  1.00  0.00     0.062 C 
BRANCH  33  34
HETATM   34  C3  UNL     1       7.549  14.666 -20.728  1.00  0.00     0.006 C 
BRANCH  34  35
HETATM   35  C2  UNL     1       7.795  13.203 -20.690  1.00  0.00    -0.004 C 
HETATM   36  C1  UNL     1       7.328  12.654 -22.049  1.00  0.00     0.005 C 
ENDBRANCH  34  35
ENDBRANCH  33  34
ENDBRANCH   1  33
BRANCH  12  37
HETATM   37  C11 UNL     1       9.659  16.312 -28.710  1.00  0.00     0.034 C 
BRANCH  37  38
HETATM   38  C12 UNL     1       8.713  15.283 -29.206  1.00  0.00    -0.002 C 
HETATM   39  C13 UNL     1       8.734  13.984 -28.462  1.00  0.00     0.005 C 
ENDBRANCH  37  38
ENDBRANCH  12  37
TORSDOF 10
ENDMDL
