MODEL 1
REMARK VINA RESULT: -6.466629504      0.000      0.000
REMARK  9 active torsions:
REMARK  status: ('A' for Active; 'I' for Inactive)
REMARK    1  A    between atoms: N2_4  and  C2_6 
REMARK       I    between atoms: N3_7  and  C3_9 
REMARK    2  A    between atoms: C3_9  and  C4_11 
REMARK    3  A    between atoms: C6_15  and  C7_16 
REMARK    4  A    between atoms: C7_16  and  C8_17 
REMARK    5  A    between atoms: C8_17  and  C9_18 
REMARK    6  A    between atoms: C15_24  and  C16_25 
REMARK    7  A    between atoms: C16_25  and  N5_26 
REMARK    8  A    between atoms: N5_26  and  S1_28 
REMARK    9  A    between atoms: S1_28  and  C17_31 
ROOT
HETATM    1  C9  UNL     1      10.455  11.018 -21.668  1.00  0.00    -0.057 A 
HETATM    2  C10 UNL     1      10.309  11.165 -20.303  1.00  0.00     0.008 A 
HETATM    3  C11 UNL     1       9.925  10.149 -19.477  1.00  0.00     0.018 A 
HETATM    4  C12 UNL     1       9.655   8.878 -20.002  1.00  0.00     0.040 A 
HETATM    5  C13 UNL     1       9.790   8.700 -21.350  1.00  0.00    -0.018 A 
HETATM    6  C14 UNL     1      10.189   9.769 -22.175  1.00  0.00     0.017 A 
HETATM    7  C15 UNL     1       9.460   7.296 -21.694  1.00  0.00     0.137 A 
HETATM    8  N6  UNL     1       9.128   6.687 -20.444  1.00  0.00    -0.347 N 
ATOM      9  H6  UNL     1       8.850   5.713 -20.326  1.00  0.00     0.163 HD
HETATM   10  C24 UNL     1       9.238   7.631 -19.396  1.00  0.00     0.252 A 
HETATM   11  O4  UNL     1       9.024   7.446 -18.183  1.00  0.00    -0.268 OA
ENDROOT
BRANCH   1  12
HETATM   12  C8  UNL     1      10.874  12.137 -22.539  1.00  0.00     0.044 C 
BRANCH  12  13
HETATM   13  C7  UNL     1      10.000  12.254 -23.770  1.00  0.00     0.061 C 
BRANCH  13  14
HETATM   14  C6  UNL     1       9.393  13.629 -23.742  1.00  0.00     0.010 A 
HETATM   15  N4  UNL     1       8.208  13.988 -24.242  1.00  0.00    -0.368 N 
HETATM   16  C5  UNL     1       7.972  15.277 -24.050  1.00  0.00     0.105 A 
ATOM     17  H4  UNL     1       7.565  13.350 -24.712  1.00  0.00     0.165 HD
HETATM   18  C4  UNL     1       9.062  15.801 -23.389  1.00  0.00     0.049 A 
HETATM   19  C25 UNL     1       9.946  14.757 -23.201  1.00  0.00     0.043 A 
BRANCH  18  20
HETATM   20  C3  UNL     1       9.199  17.187 -22.990  1.00  0.00     0.258 C 
HETATM   21  N3  UNL     1       8.410  17.728 -21.951  1.00  0.00    -0.318 N 
HETATM   22  C2  UNL     1       8.362  17.245 -20.767  1.00  0.00     0.199 C 
ATOM     23  H3  UNL     1       7.845  18.551 -22.157  1.00  0.00     0.169 HD
HETATM   24  O1  UNL     1      10.026  17.925 -23.569  1.00  0.00    -0.267 OA
BRANCH  22  25
HETATM   25  N2  UNL     1       7.559  17.818 -19.759  1.00  0.00    -0.301 N 
HETATM   26  N1  UNL     1       7.795  17.664 -18.535  1.00  0.00    -0.340 N 
HETATM   27  C1  UNL     1       8.933  16.873 -18.104  1.00  0.00     0.167 C 
ATOM     28  H1  UNL     1       7.185  18.097 -17.842  1.00  0.00     0.179 HD
ATOM     29  H2  UNL     1       6.754  18.380 -20.035  1.00  0.00     0.187 HD
ENDBRANCH  22  25
ENDBRANCH  18  20
ENDBRANCH  13  14
ENDBRANCH  12  13
ENDBRANCH   1  12
BRANCH   7  30
HETATM   30  C16 UNL     1       8.208   7.333 -22.557  1.00  0.00     0.162 C 
BRANCH  30  31
HETATM   31  N5  UNL     1       7.169   6.608 -21.852  1.00  0.00    -0.313 N 
ATOM     32  H5  UNL     1       7.258   5.662 -21.479  1.00  0.00     0.172 HD
BRANCH  31  33
HETATM   33  S1  UNL     1       5.749   7.600 -21.741  1.00  0.00     0.258 S 
HETATM   34  O2  UNL     1       4.927   7.045 -20.606  1.00  0.00    -0.201 OA
HETATM   35  O3  UNL     1       4.990   7.468 -23.037  1.00  0.00    -0.201 OA
BRANCH  33  36
HETATM   36  C17 UNL     1       6.202   9.270 -21.439  1.00  0.00     0.079 A 
HETATM   37  C18 UNL     1       6.254   9.797 -20.165  1.00  0.00     0.026 A 
HETATM   38  C19 UNL     1       6.615  11.114 -19.966  1.00  0.00     0.008 A 
HETATM   39  C20 UNL     1       6.937  11.957 -21.010  1.00  0.00    -0.062 A 
HETATM   40  C21 UNL     1       7.325  13.382 -20.756  1.00  0.00     0.048 C 
HETATM   41  C22 UNL     1       6.887  11.431 -22.284  1.00  0.00     0.008 A 
HETATM   42  C23 UNL     1       6.526  10.115 -22.487  1.00  0.00     0.026 A 
ENDBRANCH  33  36
ENDBRANCH  31  33
ENDBRANCH  30  31
ENDBRANCH   7  30
TORSDOF 9
ENDMDL
MODEL 2
REMARK VINA RESULT: -6.229865646      1.923      2.799
REMARK  9 active torsions:
REMARK  status: ('A' for Active; 'I' for Inactive)
REMARK    1  A    between atoms: N2_4  and  C2_6 
REMARK       I    between atoms: N3_7  and  C3_9 
REMARK    2  A    between atoms: C3_9  and  C4_11 
REMARK    3  A    between atoms: C6_15  and  C7_16 
REMARK    4  A    between atoms: C7_16  and  C8_17 
REMARK    5  A    between atoms: C8_17  and  C9_18 
REMARK    6  A    between atoms: C15_24  and  C16_25 
REMARK    7  A    between atoms: C16_25  and  N5_26 
REMARK    8  A    between atoms: N5_26  and  S1_28 
REMARK    9  A    between atoms: S1_28  and  C17_31 
ROOT
HETATM    1  C9  UNL     1       9.405  12.625 -21.740  1.00  0.00    -0.057 A 
HETATM    2  C10 UNL     1       8.058  12.911 -21.646  1.00  0.00     0.008 A 
HETATM    3  C11 UNL     1       7.167  12.113 -20.990  1.00  0.00     0.018 A 
HETATM    4  C12 UNL     1       7.600  10.935 -20.370  1.00  0.00     0.040 A 
HETATM    5  C13 UNL     1       8.929  10.621 -20.446  1.00  0.00    -0.018 A 
HETATM    6  C14 UNL     1       9.823  11.466 -21.129  1.00  0.00     0.017 A 
HETATM    7  C15 UNL     1       9.173   9.346 -19.730  1.00  0.00     0.137 A 
HETATM    8  N6  UNL     1       7.888   8.955 -19.241  1.00  0.00    -0.347 N 
ATOM      9  H6  UNL     1       7.702   8.112 -18.699  1.00  0.00     0.163 HD
HETATM   10  C24 UNL     1       6.911   9.906 -19.617  1.00  0.00     0.252 A 
HETATM   11  O4  UNL     1       5.692   9.885 -19.362  1.00  0.00    -0.268 OA
ENDROOT
BRANCH   1  12
HETATM   12  C8  UNL     1      10.349  13.508 -22.457  1.00  0.00     0.044 C 
BRANCH  12  13
HETATM   13  C7  UNL     1       9.766  14.026 -23.756  1.00  0.00     0.061 C 
BRANCH  13  14
HETATM   14  C6  UNL     1       9.482  15.488 -23.552  1.00  0.00     0.010 A 
HETATM   15  N4  UNL     1      10.045  16.508 -24.203  1.00  0.00    -0.368 N 
HETATM   16  C5  UNL     1       9.571  17.672 -23.782  1.00  0.00     0.105 A 
ATOM     17  H4  UNL     1      10.751  16.406 -24.932  1.00  0.00     0.165 HD
HETATM   18  C4  UNL     1       8.644  17.406 -22.797  1.00  0.00     0.049 A 
HETATM   19  C25 UNL     1       8.597  16.033 -22.662  1.00  0.00     0.043 A 
BRANCH  18  20
HETATM   20  C3  UNL     1       7.892  18.414 -22.076  1.00  0.00     0.258 C 
HETATM   21  N3  UNL     1       7.505  18.213 -20.734  1.00  0.00    -0.318 N 
HETATM   22  C2  UNL     1       8.325  17.947 -19.788  1.00  0.00     0.199 C 
ATOM     23  H3  UNL     1       6.514  18.284 -20.504  1.00  0.00     0.169 HD
HETATM   24  O1  UNL     1       7.574  19.481 -22.645  1.00  0.00    -0.267 OA
BRANCH  22  25
HETATM   25  N2  UNL     1       7.895  17.754 -18.458  1.00  0.00    -0.301 N 
HETATM   26  N1  UNL     1       7.603  16.623 -17.998  1.00  0.00    -0.340 N 
HETATM   27  C1  UNL     1       7.703  15.444 -18.837  1.00  0.00     0.167 C 
ATOM     28  H1  UNL     1       7.296  16.533 -17.029  1.00  0.00     0.179 HD
ATOM     29  H2  UNL     1       7.817  18.566 -17.846  1.00  0.00     0.187 HD
ENDBRANCH  22  25
ENDBRANCH  18  20
ENDBRANCH  13  14
ENDBRANCH  12  13
ENDBRANCH   1  12
BRANCH   7  30
HETATM   30  C16 UNL     1       9.617   8.330 -20.772  1.00  0.00     0.162 C 
BRANCH  30  31
HETATM   31  N5  UNL     1       8.549   7.362 -20.924  1.00  0.00    -0.313 N 
ATOM     32  H5  UNL     1       8.060   6.899 -20.158  1.00  0.00     0.172 HD
BRANCH  31  33
HETATM   33  S1  UNL     1       8.232   7.116 -22.613  1.00  0.00     0.258 S 
HETATM   34  O2  UNL     1       7.113   6.110 -22.695  1.00  0.00    -0.201 OA
HETATM   35  O3  UNL     1       9.480   6.547 -23.239  1.00  0.00    -0.201 OA
BRANCH  33  36
HETATM   36  C17 UNL     1       7.779   8.635 -23.370  1.00  0.00     0.079 A 
HETATM   37  C18 UNL     1       6.487   9.117 -23.330  1.00  0.00     0.026 A 
HETATM   38  C19 UNL     1       6.168  10.315 -23.935  1.00  0.00     0.008 A 
HETATM   39  C20 UNL     1       7.104  11.079 -24.599  1.00  0.00    -0.062 A 
HETATM   40  C21 UNL     1       6.721  12.376 -25.245  1.00  0.00     0.048 C 
HETATM   41  C22 UNL     1       8.396  10.598 -24.639  1.00  0.00     0.008 A 
HETATM   42  C23 UNL     1       8.720   9.401 -24.036  1.00  0.00     0.026 A 
ENDBRANCH  33  36
ENDBRANCH  31  33
ENDBRANCH  30  31
ENDBRANCH   7  30
TORSDOF 9
ENDMDL
MODEL 3
REMARK VINA RESULT: -6.195380531      3.257      5.432
REMARK  9 active torsions:
REMARK  status: ('A' for Active; 'I' for Inactive)
REMARK    1  A    between atoms: N2_4  and  C2_6 
REMARK       I    between atoms: N3_7  and  C3_9 
REMARK    2  A    between atoms: C3_9  and  C4_11 
REMARK    3  A    between atoms: C6_15  and  C7_16 
REMARK    4  A    between atoms: C7_16  and  C8_17 
REMARK    5  A    between atoms: C8_17  and  C9_18 
REMARK    6  A    between atoms: C15_24  and  C16_25 
REMARK    7  A    between atoms: C16_25  and  N5_26 
REMARK    8  A    between atoms: N5_26  and  S1_28 
REMARK    9  A    between atoms: S1_28  and  C17_31 
ROOT
HETATM    1  C9  UNL     1       5.274   9.231 -20.205  1.00  0.00    -0.057 A 
HETATM    2  C10 UNL     1       5.527   8.848 -21.506  1.00  0.00     0.008 A 
HETATM    3  C11 UNL     1       4.729   7.986 -22.202  1.00  0.00     0.018 A 
HETATM    4  C12 UNL     1       3.588   7.441 -21.600  1.00  0.00     0.040 A 
HETATM    5  C13 UNL     1       3.309   7.800 -20.311  1.00  0.00    -0.018 A 
HETATM    6  C14 UNL     1       4.152   8.692 -19.621  1.00  0.00     0.017 A 
HETATM    7  C15 UNL     1       2.070   7.116 -19.869  1.00  0.00     0.137 A 
HETATM    8  N6  UNL     1       1.662   6.343 -20.999  1.00  0.00    -0.347 N 
ATOM      9  H6  UNL     1       0.835   5.747 -21.030  1.00  0.00     0.163 HD
HETATM   10  C24 UNL     1       2.571   6.522 -22.069  1.00  0.00     0.252 A 
HETATM   11  O4  UNL     1       2.525   6.002 -23.200  1.00  0.00    -0.268 OA
ENDROOT
BRANCH   1  12
HETATM   12  C8  UNL     1       6.155  10.167 -19.475  1.00  0.00     0.044 C 
BRANCH  12  13
HETATM   13  C7  UNL     1       7.591  10.079 -19.948  1.00  0.00     0.061 C 
BRANCH  13  14
HETATM   14  C6  UNL     1       7.989  11.462 -20.384  1.00  0.00     0.010 A 
HETATM   15  N4  UNL     1       9.159  12.064 -20.155  1.00  0.00    -0.368 N 
HETATM   16  C5  UNL     1       9.185  13.282 -20.675  1.00  0.00     0.105 A 
ATOM     17  H4  UNL     1       9.933  11.640 -19.645  1.00  0.00     0.165 HD
HETATM   18  C4  UNL     1       7.966  13.499 -21.280  1.00  0.00     0.049 A 
HETATM   19  C25 UNL     1       7.224  12.349 -21.091  1.00  0.00     0.043 A 
BRANCH  18  20
HETATM   20  C3  UNL     1       7.589  14.716 -21.970  1.00  0.00     0.258 C 
HETATM   21  N3  UNL     1       7.298  15.898 -21.255  1.00  0.00    -0.318 N 
HETATM   22  C2  UNL     1       8.104  16.449 -20.428  1.00  0.00     0.199 C 
ATOM     23  H3  UNL     1       6.390  16.338 -21.406  1.00  0.00     0.169 HD
HETATM   24  O1  UNL     1       7.518  14.730 -23.218  1.00  0.00    -0.267 OA
BRANCH  22  25
HETATM   25  N2  UNL     1       7.771  17.631 -19.734  1.00  0.00    -0.301 N 
HETATM   26  N1  UNL     1       7.858  17.732 -18.486  1.00  0.00    -0.340 N 
HETATM   27  C1  UNL     1       8.316  16.607 -17.691  1.00  0.00     0.167 C 
ATOM     28  H1  UNL     1       7.605  18.607 -18.028  1.00  0.00     0.179 HD
ATOM     29  H2  UNL     1       7.447  18.437 -20.269  1.00  0.00     0.187 HD
ENDBRANCH  22  25
ENDBRANCH  18  20
ENDBRANCH  13  14
ENDBRANCH  12  13
ENDBRANCH   1  12
BRANCH   7  30
HETATM   30  C16 UNL     1       2.463   6.162 -18.752  1.00  0.00     0.162 C 
BRANCH  30  31
HETATM   31  N5  UNL     1       2.459   4.821 -19.301  1.00  0.00    -0.313 N 
ATOM     32  H5  UNL     1       1.722   4.424 -19.884  1.00  0.00     0.172 HD
BRANCH  31  33
HETATM   33  S1  UNL     1       3.905   3.994 -18.811  1.00  0.00     0.258 S 
HETATM   34  O2  UNL     1       3.767   2.572 -19.289  1.00  0.00    -0.201 OA
HETATM   35  O3  UNL     1       3.967   4.024 -17.304  1.00  0.00    -0.201 OA
BRANCH  33  36
HETATM   36  C17 UNL     1       5.313   4.770 -19.519  1.00  0.00     0.079 A 
HETATM   37  C18 UNL     1       5.691   4.549 -20.827  1.00  0.00     0.026 A 
HETATM   38  C19 UNL     1       6.803   5.177 -21.349  1.00  0.00     0.008 A 
HETATM   39  C20 UNL     1       7.580   6.042 -20.606  1.00  0.00    -0.062 A 
HETATM   40  C21 UNL     1       8.782   6.706 -21.208  1.00  0.00     0.048 C 
HETATM   41  C22 UNL     1       7.203   6.264 -19.299  1.00  0.00     0.008 A 
HETATM   42  C23 UNL     1       6.092   5.638 -18.772  1.00  0.00     0.026 A 
ENDBRANCH  33  36
ENDBRANCH  31  33
ENDBRANCH  30  31
ENDBRANCH   7  30
TORSDOF 9
ENDMDL
MODEL 4
REMARK VINA RESULT: -6.160434630      1.813      3.972
REMARK  9 active torsions:
REMARK  status: ('A' for Active; 'I' for Inactive)
REMARK    1  A    between atoms: N2_4  and  C2_6 
REMARK       I    between atoms: N3_7  and  C3_9 
REMARK    2  A    between atoms: C3_9  and  C4_11 
REMARK    3  A    between atoms: C6_15  and  C7_16 
REMARK    4  A    between atoms: C7_16  and  C8_17 
REMARK    5  A    between atoms: C8_17  and  C9_18 
REMARK    6  A    between atoms: C15_24  and  C16_25 
REMARK    7  A    between atoms: C16_25  and  N5_26 
REMARK    8  A    between atoms: N5_26  and  S1_28 
REMARK    9  A    between atoms: S1_28  and  C17_31 
ROOT
HETATM    1  C9  UNL     1       7.123  11.519 -23.739  1.00  0.00    -0.057 A 
HETATM    2  C10 UNL     1       6.604  10.339 -24.234  1.00  0.00     0.008 A 
HETATM    3  C11 UNL     1       6.110   9.347 -23.439  1.00  0.00     0.018 A 
HETATM    4  C12 UNL     1       6.112   9.493 -22.047  1.00  0.00     0.040 A 
HETATM    5  C13 UNL     1       6.620  10.649 -21.524  1.00  0.00    -0.018 A 
HETATM    6  C14 UNL     1       7.122  11.655 -22.371  1.00  0.00     0.017 A 
HETATM    7  C15 UNL     1       6.529  10.600 -20.045  1.00  0.00     0.137 A 
HETATM    8  N6  UNL     1       5.932   9.332 -19.763  1.00  0.00    -0.347 N 
ATOM      9  H6  UNL     1       5.726   8.980 -18.828  1.00  0.00     0.163 HD
HETATM   10  C24 UNL     1       5.668   8.636 -20.966  1.00  0.00     0.252 A 
HETATM   11  O4  UNL     1       5.155   7.508 -21.094  1.00  0.00    -0.268 OA
ENDROOT
BRANCH   1  12
HETATM   12  C8  UNL     1       7.651  12.578 -24.624  1.00  0.00     0.044 C 
BRANCH  12  13
HETATM   13  C7  UNL     1       6.556  13.494 -25.131  1.00  0.00     0.061 C 
BRANCH  13  14
HETATM   14  C6  UNL     1       6.863  14.869 -24.606  1.00  0.00     0.010 A 
HETATM   15  N4  UNL     1       6.095  15.955 -24.720  1.00  0.00    -0.368 N 
HETATM   16  C5  UNL     1       6.659  17.008 -24.147  1.00  0.00     0.105 A 
ATOM     17  H4  UNL     1       5.190  15.972 -25.189  1.00  0.00     0.165 HD
HETATM   18  C4  UNL     1       7.867  16.596 -23.626  1.00  0.00     0.049 A 
HETATM   19  C25 UNL     1       7.983  15.252 -23.921  1.00  0.00     0.043 A 
BRANCH  18  20
HETATM   20  C3  UNL     1       8.795  17.451 -22.914  1.00  0.00     0.258 C 
HETATM   21  N3  UNL     1       8.437  18.055 -21.690  1.00  0.00    -0.318 N 
HETATM   22  C2  UNL     1       8.032  17.404 -20.665  1.00  0.00     0.199 C 
ATOM     23  H3  UNL     1       8.504  19.070 -21.617  1.00  0.00     0.169 HD
HETATM   24  O1  UNL     1       9.934  17.664 -23.385  1.00  0.00    -0.267 OA
BRANCH  22  25
HETATM   25  N2  UNL     1       7.684  18.049 -19.460  1.00  0.00    -0.301 N 
HETATM   26  N1  UNL     1       7.849  17.517 -18.334  1.00  0.00    -0.340 N 
HETATM   27  C1  UNL     1       8.420  16.187 -18.231  1.00  0.00     0.167 C 
ATOM     28  H1  UNL     1       7.581  18.022 -17.489  1.00  0.00     0.179 HD
ATOM     29  H2  UNL     1       7.282  18.985 -19.504  1.00  0.00     0.187 HD
ENDBRANCH  22  25
ENDBRANCH  18  20
ENDBRANCH  13  14
ENDBRANCH  12  13
ENDBRANCH   1  12
BRANCH   7  30
HETATM   30  C16 UNL     1       7.953  10.588 -19.512  1.00  0.00     0.162 C 
BRANCH  30  31
HETATM   31  N5  UNL     1       8.267   9.225 -19.131  1.00  0.00    -0.313 N 
ATOM     32  H5  UNL     1       7.642   8.594 -18.628  1.00  0.00     0.172 HD
BRANCH  31  33
HETATM   33  S1  UNL     1       9.871   8.832 -19.664  1.00  0.00     0.258 S 
HETATM   34  O2  UNL     1      10.056   7.358 -19.414  1.00  0.00    -0.201 OA
HETATM   35  O3  UNL     1      10.844   9.621 -18.824  1.00  0.00    -0.201 OA
BRANCH  33  36
HETATM   36  C17 UNL     1      10.051   9.216 -21.369  1.00  0.00     0.079 A 
HETATM   37  C18 UNL     1      10.615  10.399 -21.799  1.00  0.00     0.026 A 
HETATM   38  C19 UNL     1      10.741  10.666 -23.147  1.00  0.00     0.008 A 
HETATM   39  C20 UNL     1      10.317   9.782 -24.117  1.00  0.00    -0.062 A 
HETATM   40  C21 UNL     1      10.469  10.106 -25.572  1.00  0.00     0.048 C 
HETATM   41  C22 UNL     1       9.754   8.598 -23.689  1.00  0.00     0.008 A 
HETATM   42  C23 UNL     1       9.626   8.327 -22.342  1.00  0.00     0.026 A 
ENDBRANCH  33  36
ENDBRANCH  31  33
ENDBRANCH  30  31
ENDBRANCH   7  30
TORSDOF 9
ENDMDL
MODEL 5
REMARK VINA RESULT: -6.153637514      3.419      8.239
REMARK  9 active torsions:
REMARK  status: ('A' for Active; 'I' for Inactive)
REMARK    1  A    between atoms: N2_4  and  C2_6 
REMARK       I    between atoms: N3_7  and  C3_9 
REMARK    2  A    between atoms: C3_9  and  C4_11 
REMARK    3  A    between atoms: C6_15  and  C7_16 
REMARK    4  A    between atoms: C7_16  and  C8_17 
REMARK    5  A    between atoms: C8_17  and  C9_18 
REMARK    6  A    between atoms: C15_24  and  C16_25 
REMARK    7  A    between atoms: C16_25  and  N5_26 
REMARK    8  A    between atoms: N5_26  and  S1_28 
REMARK    9  A    between atoms: S1_28  and  C17_31 
ROOT
HETATM    1  C9  UNL     1       7.368  12.216 -21.761  1.00  0.00    -0.057 A 
HETATM    2  C10 UNL     1       8.120  12.225 -22.919  1.00  0.00     0.008 A 
HETATM    3  C11 UNL     1       8.859  13.298 -23.323  1.00  0.00     0.018 A 
HETATM    4  C12 UNL     1       8.882  14.468 -22.554  1.00  0.00     0.040 A 
HETATM    5  C13 UNL     1       8.146  14.492 -21.402  1.00  0.00    -0.018 A 
HETATM    6  C14 UNL     1       7.395  13.368 -21.011  1.00  0.00     0.017 A 
HETATM    7  C15 UNL     1       8.308  15.812 -20.745  1.00  0.00     0.137 A 
HETATM    8  N6  UNL     1       9.188  16.538 -21.606  1.00  0.00    -0.347 N 
ATOM      9  H6  UNL     1       9.506  17.493 -21.443  1.00  0.00     0.163 HD
HETATM   10  C24 UNL     1       9.552  15.742 -22.717  1.00  0.00     0.252 A 
HETATM   11  O4  UNL     1      10.302  16.054 -23.662  1.00  0.00    -0.268 OA
ENDROOT
BRANCH   1  12
HETATM   12  C8  UNL     1       6.577  11.038 -21.347  1.00  0.00     0.044 C 
BRANCH  12  13
HETATM   13  C7  UNL     1       6.720  10.751 -19.867  1.00  0.00     0.061 C 
BRANCH  13  14
HETATM   14  C6  UNL     1       7.963   9.921 -19.704  1.00  0.00     0.010 A 
HETATM   15  N4  UNL     1       8.020   8.623 -19.394  1.00  0.00    -0.368 N 
HETATM   16  C5  UNL     1       9.273   8.196 -19.329  1.00  0.00     0.105 A 
ATOM     17  H4  UNL     1       7.204   8.036 -19.228  1.00  0.00     0.165 HD
HETATM   18  C4  UNL     1      10.089   9.271 -19.610  1.00  0.00     0.049 A 
HETATM   19  C25 UNL     1       9.256  10.346 -19.844  1.00  0.00     0.043 A 
BRANCH  18  20
HETATM   20  C3  UNL     1      11.537   9.223 -19.642  1.00  0.00     0.258 C 
HETATM   21  N3  UNL     1      12.308   9.807 -18.614  1.00  0.00    -0.318 N 
HETATM   22  C2  UNL     1      12.186   9.512 -17.375  1.00  0.00     0.199 C 
ATOM     23  H3  UNL     1      13.004  10.506 -18.875  1.00  0.00     0.169 HD
HETATM   24  O1  UNL     1      12.122   8.658 -20.592  1.00  0.00    -0.267 OA
BRANCH  22  25
HETATM   25  N2  UNL     1      12.979  10.121 -16.380  1.00  0.00    -0.301 N 
HETATM   26  N1  UNL     1      13.353   9.514 -15.346  1.00  0.00    -0.340 N 
HETATM   27  C1  UNL     1      12.975   8.130 -15.133  1.00  0.00     0.167 C 
ATOM     28  H1  UNL     1      13.925   9.997 -14.653  1.00  0.00     0.179 HD
ATOM     29  H2  UNL     1      13.260  11.093 -16.505  1.00  0.00     0.187 HD
ENDBRANCH  22  25
ENDBRANCH  18  20
ENDBRANCH  13  14
ENDBRANCH  12  13
ENDBRANCH   1  12
BRANCH   7  30
HETATM   30  C16 UNL     1       6.946  16.489 -20.770  1.00  0.00     0.162 C 
BRANCH  30  31
HETATM   31  N5  UNL     1       7.133  17.827 -21.296  1.00  0.00    -0.313 N 
ATOM     32  H5  UNL     1       7.807  18.509 -20.948  1.00  0.00     0.172 HD
BRANCH  31  33
HETATM   33  S1  UNL     1       6.029  18.088 -22.611  1.00  0.00     0.258 S 
HETATM   34  O2  UNL     1       5.983  19.576 -22.841  1.00  0.00    -0.201 OA
HETATM   35  O3  UNL     1       4.672  17.593 -22.180  1.00  0.00    -0.201 OA
BRANCH  33  36
HETATM   36  C17 UNL     1       6.588  17.239 -24.044  1.00  0.00     0.079 A 
HETATM   37  C18 UNL     1       7.489  17.802 -24.924  1.00  0.00     0.026 A 
HETATM   38  C19 UNL     1       7.906  17.105 -26.040  1.00  0.00     0.008 A 
HETATM   39  C20 UNL     1       7.452  15.835 -26.329  1.00  0.00    -0.062 A 
HETATM   40  C21 UNL     1       7.928  15.108 -27.550  1.00  0.00     0.048 C 
HETATM   41  C22 UNL     1       6.552  15.271 -25.449  1.00  0.00     0.008 A 
HETATM   42  C23 UNL     1       6.132  15.964 -24.333  1.00  0.00     0.026 A 
ENDBRANCH  33  36
ENDBRANCH  31  33
ENDBRANCH  30  31
ENDBRANCH   7  30
TORSDOF 9
ENDMDL
