MODEL 1
REMARK VINA RESULT: -5.878788472      0.000      0.000
REMARK  10 active torsions:
REMARK  status: ('A' for Active; 'I' for Inactive)
REMARK    1  A    between atoms: S1_2  and  C2_3 
REMARK    2  A    between atoms: C2_3  and  C3_4 
REMARK    3  A    between atoms: C3_4  and  C4_5 
REMARK    4  A    between atoms: N1_8  and  C6_9 
REMARK    5  A    between atoms: C6_9  and  C7_10 
REMARK    6  A    between atoms: C10_13  and  C11_14 
REMARK    7  A    between atoms: C14_21  and  O2_22 
REMARK    8  A    between atoms: C18_29  and  O3_30 
REMARK    9  A    between atoms: C19_32  and  C20_33 
REMARK   10  A    between atoms: C20_33  and  C21_34 
ROOT
HETATM    1  C4  UNL     1       7.204  16.719 -25.252  1.00  0.00     0.171 C 
HETATM    2  C5  UNL     1       7.406  15.501 -24.436  1.00  0.00     0.239 C 
HETATM    3  O1  UNL     1       6.660  14.515 -24.812  1.00  0.00    -0.272 OA
HETATM    4  N1  UNL     1       8.278  15.285 -23.335  1.00  0.00    -0.295 N 
HETATM    5  C14 UNL     1       8.439  16.145 -22.216  1.00  0.00     0.149 C 
HETATM    6  C15 UNL     1       7.537  16.833 -21.339  1.00  0.00     0.089 C 
HETATM    7  C16 UNL     1       7.448  16.084 -19.961  1.00  0.00     0.047 C 
HETATM    8  C17 UNL     1       8.223  18.147 -20.868  1.00  0.00     0.047 C 
HETATM    9  N4  UNL     1       6.236  17.225 -21.679  1.00  0.00    -0.357 N 
ATOM     10  H4  UNL     1       5.607  17.115 -20.884  1.00  0.00     0.162 HD
HETATM   11  C18 UNL     1       5.555  17.718 -22.780  1.00  0.00     0.136 C 
HETATM   12  C19 UNL     1       5.793  18.870 -23.653  1.00  0.00     0.161 C 
HETATM   13  N5  UNL     1       7.152  19.035 -24.128  1.00  0.00    -0.344 N 
HETATM   14  C24 UNL     1       7.840  20.337 -24.031  1.00  0.00     0.153 C 
HETATM   15  C25 UNL     1       7.815  17.944 -24.704  1.00  0.00     0.233 C 
HETATM   16  O4  UNL     1       9.093  18.041 -24.751  1.00  0.00    -0.272 OA
ENDROOT
BRANCH   4  17
HETATM   17  C6  UNL     1       9.079  14.031 -23.407  1.00  0.00     0.172 C 
BRANCH  17  18
HETATM   18  C7  UNL     1       8.659  13.022 -22.433  1.00  0.00    -0.040 A 
HETATM   19  C8  UNL     1       9.395  12.634 -21.362  1.00  0.00     0.010 A 
HETATM   20  C9  UNL     1       8.979  11.686 -20.454  1.00  0.00     0.015 A 
HETATM   21  C10 UNL     1       7.760  11.082 -20.608  1.00  0.00     0.004 A 
HETATM   22  C12 UNL     1       6.980  11.456 -21.695  1.00  0.00     0.015 A 
HETATM   23  C13 UNL     1       7.429  12.419 -22.598  1.00  0.00     0.010 A 
BRANCH  21  24
HETATM   24  C11 UNL     1       7.263  10.059 -19.665  1.00  0.00     0.120 C 
HETATM   25  N2  UNL     1       8.066   9.245 -19.120  1.00  0.00    -0.387 N 
ATOM     26  H22 UNL     1       9.062   9.299 -19.338  1.00  0.00     0.157 HD
ATOM     27  H21 UNL     1       7.723   8.538 -18.470  1.00  0.00     0.157 HD
HETATM   28  N3  UNL     1       5.876   9.982 -19.362  1.00  0.00    -0.082 NA
ENDBRANCH  21  24
ENDBRANCH  17  18
ENDBRANCH   4  17
BRANCH   5  29
HETATM   29  O2  UNL     1       9.706  16.320 -21.957  1.00  0.00    -0.347 OA
ATOM     30  H2  UNL     1       9.819  16.660 -21.077  1.00  0.00     0.219 HD
ENDBRANCH   5  29
BRANCH   1  31
HETATM   31  C3  UNL     1       7.906  16.490 -26.575  1.00  0.00     0.034 C 
BRANCH  31  32
HETATM   32  C2  UNL     1       7.302  17.143 -27.759  1.00  0.00     0.075 C 
BRANCH  32  33
HETATM   33  S1  UNL     1       5.474  16.981 -27.540  1.00  0.00    -0.173 SA
HETATM   34  C1  UNL     1       4.762  18.641 -27.248  1.00  0.00     0.089 C 
ENDBRANCH  32  33
ENDBRANCH  31  32
ENDBRANCH   1  31
BRANCH  11  35
HETATM   35  O3  UNL     1       4.501  17.016 -23.088  1.00  0.00    -0.348 OA
ATOM     36  H3  UNL     1       3.797  17.539 -23.454  1.00  0.00     0.219 HD
ENDBRANCH  11  35
BRANCH  12  37
HETATM   37  C20 UNL     1       5.343  20.198 -23.158  1.00  0.00     0.037 C 
BRANCH  37  38
HETATM   38  C21 UNL     1       3.997  20.333 -22.581  1.00  0.00    -0.020 C 
HETATM   39  C22 UNL     1       3.648  21.588 -21.872  1.00  0.00     0.009 C 
HETATM   40  C23 UNL     1       3.006  20.216 -23.758  1.00  0.00     0.009 C 
ENDBRANCH  37  38
ENDBRANCH  12  37
TORSDOF 10
ENDMDL
MODEL 2
REMARK VINA RESULT: -5.877404562      4.435      9.707
REMARK  10 active torsions:
REMARK  status: ('A' for Active; 'I' for Inactive)
REMARK    1  A    between atoms: S1_2  and  C2_3 
REMARK    2  A    between atoms: C2_3  and  C3_4 
REMARK    3  A    between atoms: C3_4  and  C4_5 
REMARK    4  A    between atoms: N1_8  and  C6_9 
REMARK    5  A    between atoms: C6_9  and  C7_10 
REMARK    6  A    between atoms: C10_13  and  C11_14 
REMARK    7  A    between atoms: C14_21  and  O2_22 
REMARK    8  A    between atoms: C18_29  and  O3_30 
REMARK    9  A    between atoms: C19_32  and  C20_33 
REMARK   10  A    between atoms: C20_33  and  C21_34 
ROOT
HETATM    1  C4  UNL     1      10.590   9.798 -22.214  1.00  0.00     0.171 C 
HETATM    2  C5  UNL     1       9.747  11.000 -22.027  1.00  0.00     0.239 C 
HETATM    3  O1  UNL     1      10.435  12.058 -21.750  1.00  0.00    -0.272 OA
HETATM    4  N1  UNL     1       8.335  11.135 -22.109  1.00  0.00    -0.295 N 
HETATM    5  C14 UNL     1       7.378  10.283 -21.494  1.00  0.00     0.149 C 
HETATM    6  C15 UNL     1       7.228   9.722 -20.183  1.00  0.00     0.089 C 
HETATM    7  C16 UNL     1       6.122  10.503 -19.386  1.00  0.00     0.047 C 
HETATM    8  C17 UNL     1       6.514   8.346 -20.322  1.00  0.00     0.047 C 
HETATM    9  N4  UNL     1       8.281   9.477 -19.294  1.00  0.00    -0.357 N 
ATOM     10  H4  UNL     1       7.996   9.675 -18.334  1.00  0.00     0.162 HD
HETATM   11  C18 UNL     1       9.596   9.044 -19.337  1.00  0.00     0.136 C 
HETATM   12  C19 UNL     1      10.227   7.856 -19.917  1.00  0.00     0.161 C 
HETATM   13  N5  UNL     1       9.829   7.526 -21.271  1.00  0.00    -0.344 N 
HETATM   14  C24 UNL     1       9.418   6.154 -21.631  1.00  0.00     0.153 C 
HETATM   15  C25 UNL     1       9.854   8.521 -22.255  1.00  0.00     0.233 C 
HETATM   16  O4  UNL     1       9.153   8.276 -23.301  1.00  0.00    -0.272 OA
ENDROOT
BRANCH   4  17
HETATM   17  C6  UNL     1       7.861  12.285 -22.928  1.00  0.00     0.172 C 
BRANCH  17  18
HETATM   18  C7  UNL     1       7.980  13.571 -22.237  1.00  0.00    -0.040 A 
HETATM   19  C8  UNL     1       8.466  14.705 -22.802  1.00  0.00     0.010 A 
HETATM   20  C9  UNL     1       8.565  15.906 -22.137  1.00  0.00     0.015 A 
HETATM   21  C10 UNL     1       8.158  15.999 -20.833  1.00  0.00     0.004 A 
HETATM   22  C12 UNL     1       7.655  14.857 -20.223  1.00  0.00     0.015 A 
HETATM   23  C13 UNL     1       7.568  13.654 -20.924  1.00  0.00     0.010 A 
BRANCH  21  24
HETATM   24  C11 UNL     1       8.241  17.262 -20.070  1.00  0.00     0.120 C 
HETATM   25  N2  UNL     1       8.277  18.375 -20.675  1.00  0.00    -0.387 N 
ATOM     26  H22 UNL     1       8.250  18.394 -21.695  1.00  0.00     0.157 HD
ATOM     27  H21 UNL     1       8.335  19.246 -20.148  1.00  0.00     0.157 HD
HETATM   28  N3  UNL     1       8.279  17.236 -18.650  1.00  0.00    -0.082 NA
ENDBRANCH  21  24
ENDBRANCH  17  18
ENDBRANCH   4  17
BRANCH   5  29
HETATM   29  O2  UNL     1       6.440   9.967 -22.344  1.00  0.00    -0.347 OA
ATOM     30  H2  UNL     1       5.901   9.267 -21.995  1.00  0.00     0.219 HD
ENDBRANCH   5  29
BRANCH   1  31
HETATM   31  C3  UNL     1      11.243   9.918 -23.575  1.00  0.00     0.034 C 
BRANCH  31  32
HETATM   32  C2  UNL     1      12.519   9.189 -23.757  1.00  0.00     0.075 C 
BRANCH  32  33
HETATM   33  S1  UNL     1      13.470   9.450 -22.195  1.00  0.00    -0.173 SA
HETATM   34  C1  UNL     1      13.705   7.836 -21.365  1.00  0.00     0.089 C 
ENDBRANCH  32  33
ENDBRANCH  31  32
ENDBRANCH   1  31
BRANCH  11  35
HETATM   35  O3  UNL     1      10.423   9.859 -18.742  1.00  0.00    -0.348 OA
ATOM     36  H3  UNL     1      10.090  10.193 -17.918  1.00  0.00     0.219 HD
ENDBRANCH  11  35
BRANCH  12  37
HETATM   37  C20 UNL     1      10.156   6.599 -19.125  1.00  0.00     0.037 C 
BRANCH  37  38
HETATM   38  C21 UNL     1       9.634   6.642 -17.751  1.00  0.00    -0.020 C 
HETATM   39  C22 UNL     1       8.571   5.684 -17.363  1.00  0.00     0.009 C 
HETATM   40  C23 UNL     1      10.832   6.352 -16.823  1.00  0.00     0.009 C 
ENDBRANCH  37  38
ENDBRANCH  12  37
TORSDOF 10
ENDMDL
MODEL 3
REMARK VINA RESULT: -5.852924791      0.854      1.113
REMARK  10 active torsions:
REMARK  status: ('A' for Active; 'I' for Inactive)
REMARK    1  A    between atoms: S1_2  and  C2_3 
REMARK    2  A    between atoms: C2_3  and  C3_4 
REMARK    3  A    between atoms: C3_4  and  C4_5 
REMARK    4  A    between atoms: N1_8  and  C6_9 
REMARK    5  A    between atoms: C6_9  and  C7_10 
REMARK    6  A    between atoms: C10_13  and  C11_14 
REMARK    7  A    between atoms: C14_21  and  O2_22 
REMARK    8  A    between atoms: C18_29  and  O3_30 
REMARK    9  A    between atoms: C19_32  and  C20_33 
REMARK   10  A    between atoms: C20_33  and  C21_34 
ROOT
HETATM    1  C4  UNL     1       7.231  16.737 -25.187  1.00  0.00     0.171 C 
HETATM    2  C5  UNL     1       7.417  15.506 -24.387  1.00  0.00     0.239 C 
HETATM    3  O1  UNL     1       6.662  14.533 -24.779  1.00  0.00    -0.272 OA
HETATM    4  N1  UNL     1       8.282  15.266 -23.286  1.00  0.00    -0.295 N 
HETATM    5  C14 UNL     1       8.448  16.110 -22.154  1.00  0.00     0.149 C 
HETATM    6  C15 UNL     1       7.550  16.796 -21.272  1.00  0.00     0.089 C 
HETATM    7  C16 UNL     1       7.449  16.029 -19.904  1.00  0.00     0.047 C 
HETATM    8  C17 UNL     1       8.248  18.096 -20.781  1.00  0.00     0.047 C 
HETATM    9  N4  UNL     1       6.255  17.206 -21.611  1.00  0.00    -0.357 N 
ATOM     10  H4  UNL     1       5.621  17.091 -20.820  1.00  0.00     0.162 HD
HETATM   11  C18 UNL     1       5.583  17.721 -22.708  1.00  0.00     0.136 C 
HETATM   12  C19 UNL     1       5.837  18.882 -23.565  1.00  0.00     0.161 C 
HETATM   13  N5  UNL     1       7.199  19.038 -24.032  1.00  0.00    -0.344 N 
HETATM   14  C24 UNL     1       7.900  20.332 -23.916  1.00  0.00     0.153 C 
HETATM   15  C25 UNL     1       7.852  17.949 -24.620  1.00  0.00     0.233 C 
HETATM   16  O4  UNL     1       9.131  18.033 -24.662  1.00  0.00    -0.272 OA
ENDROOT
BRANCH   4  17
HETATM   17  C6  UNL     1       9.071  14.006 -23.372  1.00  0.00     0.172 C 
BRANCH  17  18
HETATM   18  C7  UNL     1       8.642  12.991 -22.407  1.00  0.00    -0.040 A 
HETATM   19  C8  UNL     1       9.381  12.577 -21.347  1.00  0.00     0.010 A 
HETATM   20  C9  UNL     1       8.957  11.625 -20.448  1.00  0.00     0.015 A 
HETATM   21  C10 UNL     1       7.727  11.043 -20.599  1.00  0.00     0.004 A 
HETATM   22  C12 UNL     1       6.944  11.444 -21.674  1.00  0.00     0.015 A 
HETATM   23  C13 UNL     1       7.401  12.411 -22.568  1.00  0.00     0.010 A 
BRANCH  21  24
HETATM   24  C11 UNL     1       7.221  10.016 -19.665  1.00  0.00     0.120 C 
HETATM   25  N2  UNL     1       8.018   9.194 -19.123  1.00  0.00    -0.387 N 
ATOM     26  H22 UNL     1       9.014   9.244 -19.337  1.00  0.00     0.157 HD
ATOM     27  H21 UNL     1       7.668   8.485 -18.479  1.00  0.00     0.157 HD
HETATM   28  N3  UNL     1       5.833   9.945 -19.367  1.00  0.00    -0.082 NA
ENDBRANCH  21  24
ENDBRANCH  17  18
ENDBRANCH   4  17
BRANCH   5  29
HETATM   29  O2  UNL     1       9.716  16.269 -21.889  1.00  0.00    -0.347 OA
ATOM     30  H2  UNL     1       9.893  17.172 -21.654  1.00  0.00     0.219 HD
ENDBRANCH   5  29
BRANCH   1  31
HETATM   31  C3  UNL     1       7.936  16.519 -26.510  1.00  0.00     0.034 C 
BRANCH  31  32
HETATM   32  C2  UNL     1       7.374  17.236 -27.678  1.00  0.00     0.075 C 
BRANCH  32  33
HETATM   33  S1  UNL     1       8.768  18.233 -28.370  1.00  0.00    -0.173 SA
HETATM   34  C1  UNL     1       8.678  19.930 -27.691  1.00  0.00     0.089 C 
ENDBRANCH  32  33
ENDBRANCH  31  32
ENDBRANCH   1  31
BRANCH  11  35
HETATM   35  O3  UNL     1       4.523  17.033 -23.029  1.00  0.00    -0.348 OA
ATOM     36  H3  UNL     1       3.720  17.538 -22.973  1.00  0.00     0.219 HD
ENDBRANCH  11  35
BRANCH  12  37
HETATM   37  C20 UNL     1       5.398  20.207 -23.053  1.00  0.00     0.037 C 
BRANCH  37  38
HETATM   38  C21 UNL     1       4.053  20.700 -23.388  1.00  0.00    -0.020 C 
HETATM   39  C22 UNL     1       3.346  20.109 -24.550  1.00  0.00     0.009 C 
HETATM   40  C23 UNL     1       3.168  20.416 -22.157  1.00  0.00     0.009 C 
ENDBRANCH  37  38
ENDBRANCH  12  37
TORSDOF 10
ENDMDL
MODEL 4
REMARK VINA RESULT: -5.836359160      4.258      9.405
REMARK  10 active torsions:
REMARK  status: ('A' for Active; 'I' for Inactive)
REMARK    1  A    between atoms: S1_2  and  C2_3 
REMARK    2  A    between atoms: C2_3  and  C3_4 
REMARK    3  A    between atoms: C3_4  and  C4_5 
REMARK    4  A    between atoms: N1_8  and  C6_9 
REMARK    5  A    between atoms: C6_9  and  C7_10 
REMARK    6  A    between atoms: C10_13  and  C11_14 
REMARK    7  A    between atoms: C14_21  and  O2_22 
REMARK    8  A    between atoms: C18_29  and  O3_30 
REMARK    9  A    between atoms: C19_32  and  C20_33 
REMARK   10  A    between atoms: C20_33  and  C21_34 
ROOT
HETATM    1  C4  UNL     1      10.654   9.860 -22.177  1.00  0.00     0.171 C 
HETATM    2  C5  UNL     1       9.776  11.039 -21.999  1.00  0.00     0.239 C 
HETATM    3  O1  UNL     1      10.430  12.111 -21.695  1.00  0.00    -0.272 OA
HETATM    4  N1  UNL     1       8.364  11.139 -22.115  1.00  0.00    -0.295 N 
HETATM    5  C14 UNL     1       7.413  10.256 -21.533  1.00  0.00     0.149 C 
HETATM    6  C15 UNL     1       7.245   9.677 -20.232  1.00  0.00     0.089 C 
HETATM    7  C16 UNL     1       6.101  10.422 -19.455  1.00  0.00     0.047 C 
HETATM    8  C17 UNL     1       6.571   8.286 -20.403  1.00  0.00     0.047 C 
HETATM    9  N4  UNL     1       8.282   9.449 -19.320  1.00  0.00    -0.357 N 
ATOM     10  H4  UNL     1       7.969   9.629 -18.365  1.00  0.00     0.162 HD
HETATM   11  C18 UNL     1       9.609   9.051 -19.334  1.00  0.00     0.136 C 
HETATM   12  C19 UNL     1      10.283   7.885 -19.911  1.00  0.00     0.161 C 
HETATM   13  N5  UNL     1       9.928   7.560 -21.277  1.00  0.00    -0.344 N 
HETATM   14  C24 UNL     1       9.561   6.182 -21.661  1.00  0.00     0.153 C 
HETATM   15  C25 UNL     1       9.951   8.566 -22.250  1.00  0.00     0.233 C 
HETATM   16  O4  UNL     1       9.284   8.315 -23.316  1.00  0.00    -0.272 OA
ENDROOT
BRANCH   4  17
HETATM   17  C6  UNL     1       7.881  12.286 -22.934  1.00  0.00     0.172 C 
BRANCH  17  18
HETATM   18  C7  UNL     1       7.995  13.573 -22.245  1.00  0.00    -0.040 A 
HETATM   19  C8  UNL     1       8.480  14.707 -22.810  1.00  0.00     0.010 A 
HETATM   20  C9  UNL     1       8.574  15.910 -22.146  1.00  0.00     0.015 A 
HETATM   21  C10 UNL     1       8.164  16.004 -20.844  1.00  0.00     0.004 A 
HETATM   22  C12 UNL     1       7.662  14.862 -20.234  1.00  0.00     0.015 A 
HETATM   23  C13 UNL     1       7.579  13.658 -20.933  1.00  0.00     0.010 A 
BRANCH  21  24
HETATM   24  C11 UNL     1       8.242  17.268 -20.083  1.00  0.00     0.120 C 
HETATM   25  N2  UNL     1       8.301  18.379 -20.689  1.00  0.00    -0.387 N 
ATOM     26  H22 UNL     1       8.296  18.395 -21.710  1.00  0.00     0.157 HD
ATOM     27  H21 UNL     1       8.355  19.251 -20.164  1.00  0.00     0.157 HD
HETATM   28  N3  UNL     1       8.250  17.246 -18.662  1.00  0.00    -0.082 NA
ENDBRANCH  21  24
ENDBRANCH  17  18
ENDBRANCH   4  17
BRANCH   5  29
HETATM   29  O2  UNL     1       6.505   9.927 -22.409  1.00  0.00    -0.347 OA
ATOM     30  H2  UNL     1       5.835   9.389 -22.003  1.00  0.00     0.219 HD
ENDBRANCH   5  29
BRANCH   1  31
HETATM   31  C3  UNL     1      11.337  10.012 -23.521  1.00  0.00     0.034 C 
BRANCH  31  32
HETATM   32  C2  UNL     1      12.807  10.187 -23.493  1.00  0.00     0.075 C 
BRANCH  32  33
HETATM   33  S1  UNL     1      13.122  11.871 -24.185  1.00  0.00    -0.173 SA
HETATM   34  C1  UNL     1      11.609  12.460 -25.029  1.00  0.00     0.089 C 
ENDBRANCH  32  33
ENDBRANCH  31  32
ENDBRANCH   1  31
BRANCH  11  35
HETATM   35  O3  UNL     1      10.400   9.879 -18.711  1.00  0.00    -0.348 OA
ATOM     36  H3  UNL     1      10.880  10.450 -19.299  1.00  0.00     0.219 HD
ENDBRANCH  11  35
BRANCH  12  37
HETATM   37  C20 UNL     1      10.225   6.618 -19.134  1.00  0.00     0.037 C 
BRANCH  37  38
HETATM   38  C21 UNL     1       9.678   6.635 -17.769  1.00  0.00    -0.020 C 
HETATM   39  C22 UNL     1       8.633   5.646 -17.408  1.00  0.00     0.009 C 
HETATM   40  C23 UNL     1      10.867   6.367 -16.821  1.00  0.00     0.009 C 
ENDBRANCH  37  38
ENDBRANCH  12  37
TORSDOF 10
ENDMDL
MODEL 5
REMARK VINA RESULT: -5.789747747      0.775      1.179
REMARK  10 active torsions:
REMARK  status: ('A' for Active; 'I' for Inactive)
REMARK    1  A    between atoms: S1_2  and  C2_3 
REMARK    2  A    between atoms: C2_3  and  C3_4 
REMARK    3  A    between atoms: C3_4  and  C4_5 
REMARK    4  A    between atoms: N1_8  and  C6_9 
REMARK    5  A    between atoms: C6_9  and  C7_10 
REMARK    6  A    between atoms: C10_13  and  C11_14 
REMARK    7  A    between atoms: C14_21  and  O2_22 
REMARK    8  A    between atoms: C18_29  and  O3_30 
REMARK    9  A    between atoms: C19_32  and  C20_33 
REMARK   10  A    between atoms: C20_33  and  C21_34 
ROOT
HETATM    1  C4  UNL     1       7.189  16.699 -25.311  1.00  0.00     0.171 C 
HETATM    2  C5  UNL     1       7.400  15.487 -24.488  1.00  0.00     0.239 C 
HETATM    3  O1  UNL     1       6.661  14.493 -24.857  1.00  0.00    -0.272 OA
HETATM    4  N1  UNL     1       8.274  15.284 -23.386  1.00  0.00    -0.295 N 
HETATM    5  C14 UNL     1       8.430  16.153 -22.272  1.00  0.00     0.149 C 
HETATM    6  C15 UNL     1       7.524  16.839 -21.399  1.00  0.00     0.089 C 
HETATM    7  C16 UNL     1       7.442  16.098 -20.016  1.00  0.00     0.047 C 
HETATM    8  C17 UNL     1       8.201  18.161 -20.937  1.00  0.00     0.047 C 
HETATM    9  N4  UNL     1       6.220  17.219 -21.740  1.00  0.00    -0.357 N 
ATOM     10  H4  UNL     1       5.592  17.110 -20.944  1.00  0.00     0.162 HD
HETATM   11  C18 UNL     1       5.535  17.701 -22.844  1.00  0.00     0.136 C 
HETATM   12  C19 UNL     1       5.764  18.849 -23.724  1.00  0.00     0.161 C 
HETATM   13  N5  UNL     1       7.121  19.021 -24.201  1.00  0.00    -0.344 N 
HETATM   14  C24 UNL     1       7.800  20.329 -24.113  1.00  0.00     0.153 C 
HETATM   15  C25 UNL     1       7.791  17.932 -24.771  1.00  0.00     0.233 C 
HETATM   16  O4  UNL     1       9.068  18.037 -24.820  1.00  0.00    -0.272 OA
ENDROOT
BRANCH   4  17
HETATM   17  C6  UNL     1       9.085  14.036 -23.451  1.00  0.00     0.172 C 
BRANCH  17  18
HETATM   18  C7  UNL     1       8.676  13.032 -22.467  1.00  0.00    -0.040 A 
HETATM   19  C8  UNL     1       9.446  12.612 -21.432  1.00  0.00     0.010 A 
HETATM   20  C9  UNL     1       9.042  11.670 -20.513  1.00  0.00     0.015 A 
HETATM   21  C10 UNL     1       7.799  11.105 -20.618  1.00  0.00     0.004 A 
HETATM   22  C12 UNL     1       6.984  11.512 -21.666  1.00  0.00     0.015 A 
HETATM   23  C13 UNL     1       7.422  12.469 -22.581  1.00  0.00     0.010 A 
BRANCH  21  24
HETATM   24  C11 UNL     1       7.312  10.090 -19.661  1.00  0.00     0.120 C 
HETATM   25  N2  UNL     1       8.122   9.283 -19.115  1.00  0.00    -0.387 N 
ATOM     26  H22 UNL     1       9.116   9.338 -19.341  1.00  0.00     0.157 HD
ATOM     27  H21 UNL     1       7.786   8.582 -18.455  1.00  0.00     0.157 HD
HETATM   28  N3  UNL     1       5.928  10.013 -19.345  1.00  0.00    -0.082 NA
ENDBRANCH  21  24
ENDBRANCH  17  18
ENDBRANCH   4  17
BRANCH   5  29
HETATM   29  O2  UNL     1       9.696  16.338 -22.016  1.00  0.00    -0.347 OA
ATOM     30  H2  UNL     1      10.132  16.718 -22.769  1.00  0.00     0.219 HD
ENDBRANCH   5  29
BRANCH   1  31
HETATM   31  C3  UNL     1       7.891  16.467 -26.633  1.00  0.00     0.034 C 
BRANCH  31  32
HETATM   32  C2  UNL     1       7.024  16.387 -27.831  1.00  0.00     0.075 C 
BRANCH  32  33
HETATM   33  S1  UNL     1       7.363  14.734 -28.583  1.00  0.00    -0.173 SA
HETATM   34  C1  UNL     1       8.749  13.945 -27.686  1.00  0.00     0.089 C 
ENDBRANCH  32  33
ENDBRANCH  31  32
ENDBRANCH   1  31
BRANCH  11  35
HETATM   35  O3  UNL     1       4.485  16.989 -23.146  1.00  0.00    -0.348 OA
ATOM     36  H3  UNL     1       4.658  16.333 -23.812  1.00  0.00     0.219 HD
ENDBRANCH  11  35
BRANCH  12  37
HETATM   37  C20 UNL     1       5.304  20.177 -23.236  1.00  0.00     0.037 C 
BRANCH  37  38
HETATM   38  C21 UNL     1       3.994  20.288 -22.576  1.00  0.00    -0.020 C 
HETATM   39  C22 UNL     1       3.673  21.532 -21.836  1.00  0.00     0.009 C 
HETATM   40  C23 UNL     1       2.935  20.168 -23.692  1.00  0.00     0.009 C 
ENDBRANCH  37  38
ENDBRANCH  12  37
TORSDOF 10
ENDMDL
