MODEL 1
REMARK VINA RESULT: -8.051185842      0.000      0.000
REMARK  5 active torsions:
REMARK  status: ('A' for Active; 'I' for Inactive)
REMARK    1  A    between atoms: C2_2  and  N1_3 
REMARK    2  A    between atoms: N1_3  and  C3_5 
REMARK    3  A    between atoms: C6_11  and  C7_12 
REMARK    4  A    between atoms: C7_12  and  C8_13 
REMARK    5  A    between atoms: C9_14  and  C10_15 
ROOT
HETATM    1  C1  UNL     1      31.426  36.692  23.294  1.00  0.00     0.043 C 
HETATM    2  C2  UNL     1      32.907  36.606  23.648  1.00  0.00     0.090 C 
HETATM    3  C6  UNL     1      33.757  36.940  22.423  1.00  0.00     0.224 C 
HETATM    4  N4  UNL     1      34.507  37.844  23.250  1.00  0.00    -0.057 N 
HETATM    5  C14 UNL     1      35.752  37.317  23.781  1.00  0.00     0.273 C 
HETATM    6  C15 UNL     1      34.766  39.178  22.745  1.00  0.00     0.273 C 
HETATM    7  C16 UNL     1      33.415  37.873  24.185  1.00  0.00     0.149 C 
HETATM    8  C17 UNL     1      33.799  37.920  25.644  1.00  0.00     0.049 C 
HETATM    9  C18 UNL     1      32.481  39.042  23.890  1.00  0.00     0.049 C 
ENDROOT
BRANCH   3  10
HETATM   10  C7  UNL     1      34.487  35.764  21.889  1.00  0.00     0.063 C 
BRANCH  10  11
HETATM   11  C8  UNL     1      35.173  35.889  20.601  1.00  0.00    -0.026 C 
HETATM   12  C9  UNL     1      35.608  34.964  19.787  1.00  0.00     0.012 C 
BRANCH  12  13
HETATM   13  C10 UNL     1      36.285  35.307  18.506  1.00  0.00     0.269 C 
HETATM   14  N3  UNL     1      36.810  36.655  18.519  1.00  0.00    -0.058 N 
HETATM   15  C11 UNL     1      37.670  36.783  17.347  1.00  0.00     0.255 C 
ATOM     16  H32 UNL     1      36.084  37.369  18.564  1.00  0.00     0.278 HD
ATOM     17  H31 UNL     1      37.281  36.895  19.391  1.00  0.00     0.278 HD
HETATM   18  C12 UNL     1      36.895  37.076  16.095  1.00  0.00     0.117 C 
HETATM   19 CL1  UNL     1      38.055  37.417  14.797  1.00  0.00    -0.122 Cl
HETATM   20  C13 UNL     1      36.031  35.925  15.659  1.00  0.00     0.098 C 
HETATM   21  S2  UNL     1      35.165  35.167  17.088  1.00  0.00    -0.131 SA
ENDBRANCH  12  13
ENDBRANCH  10  11
ENDBRANCH   3  10
BRANCH   2  22
HETATM   22  N1  UNL     1      33.235  35.389  24.320  1.00  0.00    -0.357 N 
ATOM     23  H1  UNL     1      34.124  35.280  24.809  1.00  0.00     0.162 HD
BRANCH  22  24
HETATM   24  C3  UNL     1      32.271  34.321  24.283  1.00  0.00     0.140 C 
HETATM   25  N2  UNL     1      31.997  33.521  23.346  1.00  0.00    -0.350 N 
HETATM   26  C4  UNL     1      31.023  32.540  23.488  1.00  0.00     0.073 C 
ATOM     27  H2  UNL     1      32.503  33.597  22.464  1.00  0.00     0.167 HD
HETATM   28  C5  UNL     1      30.754  32.214  24.945  1.00  0.00     0.127 C 
HETATM   29  S1  UNL     1      31.197  33.864  25.640  1.00  0.00    -0.089 SA
ENDBRANCH  22  24
ENDBRANCH   2  22
TORSDOF 5
ENDMDL
MODEL 2
REMARK VINA RESULT: -7.983471160      1.357      1.581
REMARK  5 active torsions:
REMARK  status: ('A' for Active; 'I' for Inactive)
REMARK    1  A    between atoms: C2_2  and  N1_3 
REMARK    2  A    between atoms: N1_3  and  C3_5 
REMARK    3  A    between atoms: C6_11  and  C7_12 
REMARK    4  A    between atoms: C7_12  and  C8_13 
REMARK    5  A    between atoms: C9_14  and  C10_15 
ROOT
HETATM    1  C1  UNL     1      31.187  36.167  23.207  1.00  0.00     0.043 C 
HETATM    2  C2  UNL     1      32.639  36.150  23.674  1.00  0.00     0.090 C 
HETATM    3  C6  UNL     1      33.521  36.886  22.667  1.00  0.00     0.224 C 
HETATM    4  N4  UNL     1      34.089  37.613  23.769  1.00  0.00    -0.057 N 
HETATM    5  C14 UNL     1      35.352  37.101  24.269  1.00  0.00     0.273 C 
HETATM    6  C15 UNL     1      34.206  39.053  23.649  1.00  0.00     0.273 C 
HETATM    7  C16 UNL     1      32.940  37.275  24.565  1.00  0.00     0.149 C 
HETATM    8  C17 UNL     1      33.213  36.974  26.019  1.00  0.00     0.049 C 
HETATM    9  C18 UNL     1      31.885  38.373  24.487  1.00  0.00     0.049 C 
ENDROOT
BRANCH   3  10
HETATM   10  C7  UNL     1      34.432  35.979  21.926  1.00  0.00     0.063 C 
BRANCH  10  11
HETATM   11  C8  UNL     1      35.061  36.467  20.696  1.00  0.00    -0.026 C 
HETATM   12  C9  UNL     1      35.757  35.825  19.797  1.00  0.00     0.012 C 
BRANCH  12  13
HETATM   13  C10 UNL     1      36.312  36.515  18.600  1.00  0.00     0.269 C 
HETATM   14  N3  UNL     1      36.206  35.699  17.410  1.00  0.00    -0.058 N 
HETATM   15  C11 UNL     1      36.521  36.563  16.278  1.00  0.00     0.255 C 
ATOM     16  H32 UNL     1      36.781  34.858  17.447  1.00  0.00     0.278 HD
ATOM     17  H31 UNL     1      35.303  35.234  17.321  1.00  0.00     0.278 HD
HETATM   18  C12 UNL     1      38.000  36.714  16.065  1.00  0.00     0.117 C 
HETATM   19 CL1  UNL     1      38.251  37.601  14.550  1.00  0.00    -0.122 Cl
HETATM   20  C13 UNL     1      38.675  37.478  17.171  1.00  0.00     0.098 C 
HETATM   21  S2  UNL     1      38.060  36.947  18.816  1.00  0.00    -0.131 SA
ENDBRANCH  12  13
ENDBRANCH  10  11
ENDBRANCH   3  10
BRANCH   2  22
HETATM   22  N1  UNL     1      33.076  34.840  24.042  1.00  0.00    -0.357 N 
ATOM     23  H1  UNL     1      34.021  34.678  24.391  1.00  0.00     0.162 HD
BRANCH  22  24
HETATM   24  C3  UNL     1      32.139  33.756  23.905  1.00  0.00     0.140 C 
HETATM   25  N2  UNL     1      31.245  33.365  24.705  1.00  0.00    -0.350 N 
HETATM   26  C4  UNL     1      30.421  32.286  24.406  1.00  0.00     0.073 C 
ATOM     27  H2  UNL     1      31.124  33.853  25.593  1.00  0.00     0.167 HD
HETATM   28  C5  UNL     1      30.356  32.019  22.914  1.00  0.00     0.127 C 
HETATM   29  S1  UNL     1      32.027  32.671  22.485  1.00  0.00    -0.089 SA
ENDBRANCH  22  24
ENDBRANCH   2  22
TORSDOF 5
ENDMDL
MODEL 3
REMARK VINA RESULT: -7.896908568      1.326      1.634
REMARK  5 active torsions:
REMARK  status: ('A' for Active; 'I' for Inactive)
REMARK    1  A    between atoms: C2_2  and  N1_3 
REMARK    2  A    between atoms: N1_3  and  C3_5 
REMARK    3  A    between atoms: C6_11  and  C7_12 
REMARK    4  A    between atoms: C7_12  and  C8_13 
REMARK    5  A    between atoms: C9_14  and  C10_15 
ROOT
HETATM    1  C1  UNL     1      31.417  36.739  23.820  1.00  0.00     0.043 C 
HETATM    2  C2  UNL     1      32.938  36.629  23.871  1.00  0.00     0.090 C 
HETATM    3  C6  UNL     1      33.548  37.223  22.602  1.00  0.00     0.224 C 
HETATM    4  N4  UNL     1      34.445  37.969  23.440  1.00  0.00    -0.057 N 
HETATM    5  C14 UNL     1      35.763  37.386  23.617  1.00  0.00     0.273 C 
HETATM    6  C15 UNL     1      34.614  39.384  23.172  1.00  0.00     0.273 C 
HETATM    7  C16 UNL     1      33.546  37.780  24.547  1.00  0.00     0.149 C 
HETATM    8  C17 UNL     1      34.195  37.551  25.890  1.00  0.00     0.049 C 
HETATM    9  C18 UNL     1      32.582  38.956  24.667  1.00  0.00     0.049 C 
ENDROOT
BRANCH   3  10
HETATM   10  C7  UNL     1      34.157  36.197  21.720  1.00  0.00     0.063 C 
BRANCH  10  11
HETATM   11  C8  UNL     1      34.828  36.635  20.494  1.00  0.00    -0.026 C 
HETATM   12  C9  UNL     1      35.833  36.103  19.850  1.00  0.00     0.012 C 
BRANCH  12  13
HETATM   13  C10 UNL     1      36.371  36.712  18.603  1.00  0.00     0.269 C 
HETATM   14  N3  UNL     1      36.175  35.851  17.456  1.00  0.00    -0.058 N 
HETATM   15  C11 UNL     1      36.485  36.647  16.274  1.00  0.00     0.255 C 
ATOM     16  H32 UNL     1      36.710  34.984  17.509  1.00  0.00     0.278 HD
ATOM     17  H31 UNL     1      35.248  35.428  17.424  1.00  0.00     0.278 HD
HETATM   18  C12 UNL     1      37.959  36.714  15.997  1.00  0.00     0.117 C 
HETATM   19 CL1  UNL     1      38.189  37.520  14.434  1.00  0.00    -0.122 Cl
HETATM   20  C13 UNL     1      38.716  37.491  17.039  1.00  0.00     0.098 C 
HETATM   21  S2  UNL     1      38.145  37.064  18.729  1.00  0.00    -0.131 SA
ENDBRANCH  12  13
ENDBRANCH  10  11
ENDBRANCH   3  10
BRANCH   2  22
HETATM   22  N1  UNL     1      33.377  35.314  24.215  1.00  0.00    -0.357 N 
ATOM     23  H1  UNL     1      34.276  34.957  23.892  1.00  0.00     0.162 HD
BRANCH  22  24
HETATM   24  C3  UNL     1      32.509  34.509  25.033  1.00  0.00     0.140 C 
HETATM   25  N2  UNL     1      32.248  34.609  26.263  1.00  0.00    -0.350 N 
HETATM   26  C4  UNL     1      31.375  33.732  26.898  1.00  0.00     0.073 C 
ATOM     27  H2  UNL     1      32.687  35.353  26.806  1.00  0.00     0.167 HD
HETATM   28  C5  UNL     1      30.435  33.059  25.914  1.00  0.00     0.127 C 
HETATM   29  S1  UNL     1      31.550  33.115  24.447  1.00  0.00    -0.089 SA
ENDBRANCH  22  24
ENDBRANCH   2  22
TORSDOF 5
ENDMDL
MODEL 4
REMARK VINA RESULT: -7.850477939      0.860      1.086
REMARK  5 active torsions:
REMARK  status: ('A' for Active; 'I' for Inactive)
REMARK    1  A    between atoms: C2_2  and  N1_3 
REMARK    2  A    between atoms: N1_3  and  C3_5 
REMARK    3  A    between atoms: C6_11  and  C7_12 
REMARK    4  A    between atoms: C7_12  and  C8_13 
REMARK    5  A    between atoms: C9_14  and  C10_15 
ROOT
HETATM    1  C1  UNL     1      31.522  36.386  23.501  1.00  0.00     0.043 C 
HETATM    2  C2  UNL     1      33.031  36.458  23.715  1.00  0.00     0.090 C 
HETATM    3  C6  UNL     1      33.731  36.784  22.396  1.00  0.00     0.224 C 
HETATM    4  N4  UNL     1      34.462  37.806  23.093  1.00  0.00    -0.057 N 
HETATM    5  C14 UNL     1      35.795  37.431  23.531  1.00  0.00     0.273 C 
HETATM    6  C15 UNL     1      34.543  39.121  22.488  1.00  0.00     0.273 C 
HETATM    7  C16 UNL     1      33.461  37.799  24.125  1.00  0.00     0.149 C 
HETATM    8  C17 UNL     1      33.969  37.978  25.535  1.00  0.00     0.049 C 
HETATM    9  C18 UNL     1      32.396  38.856  23.854  1.00  0.00     0.049 C 
ENDROOT
BRANCH   3  10
HETATM   10  C7  UNL     1      34.519  35.645  21.864  1.00  0.00     0.063 C 
BRANCH  10  11
HETATM   11  C8  UNL     1      35.193  35.801  20.573  1.00  0.00    -0.026 C 
HETATM   12  C9  UNL     1      35.654  34.896  19.752  1.00  0.00     0.012 C 
BRANCH  12  13
HETATM   13  C10 UNL     1      36.313  35.269  18.470  1.00  0.00     0.269 C 
HETATM   14  N3  UNL     1      36.827  36.621  18.502  1.00  0.00    -0.058 N 
HETATM   15  C11 UNL     1      37.672  36.778  17.323  1.00  0.00     0.255 C 
ATOM     16  H32 UNL     1      36.095  37.328  18.569  1.00  0.00     0.278 HD
ATOM     17  H31 UNL     1      37.306  36.849  19.373  1.00  0.00     0.278 HD
HETATM   18  C12 UNL     1      36.879  37.088  16.086  1.00  0.00     0.117 C 
HETATM   19 CL1  UNL     1      38.020  37.464  14.781  1.00  0.00    -0.122 Cl
HETATM   20  C13 UNL     1      36.019  35.938  15.638  1.00  0.00     0.098 C 
HETATM   21  S2  UNL     1      35.177  35.146  17.062  1.00  0.00    -0.131 SA
ENDBRANCH  12  13
ENDBRANCH  10  11
ENDBRANCH   3  10
BRANCH   2  22
HETATM   22  N1  UNL     1      33.534  35.323  24.422  1.00  0.00    -0.357 N 
ATOM     23  H1  UNL     1      34.525  35.081  24.393  1.00  0.00     0.162 HD
BRANCH  22  24
HETATM   24  C3  UNL     1      32.598  34.532  25.176  1.00  0.00     0.140 C 
HETATM   25  N2  UNL     1      32.188  34.690  26.359  1.00  0.00    -0.350 N 
HETATM   26  C4  UNL     1      31.272  33.817  26.935  1.00  0.00     0.073 C 
ATOM     27  H2  UNL     1      32.535  35.478  26.905  1.00  0.00     0.167 HD
HETATM   28  C5  UNL     1      30.478  33.057  25.888  1.00  0.00     0.127 C 
HETATM   29  S1  UNL     1      31.760  33.074  24.563  1.00  0.00    -0.089 SA
ENDBRANCH  22  24
ENDBRANCH   2  22
TORSDOF 5
ENDMDL
MODEL 5
REMARK VINA RESULT: -7.761005506      2.000      2.325
REMARK  5 active torsions:
REMARK  status: ('A' for Active; 'I' for Inactive)
REMARK    1  A    between atoms: C2_2  and  N1_3 
REMARK    2  A    between atoms: N1_3  and  C3_5 
REMARK    3  A    between atoms: C6_11  and  C7_12 
REMARK    4  A    between atoms: C7_12  and  C8_13 
REMARK    5  A    between atoms: C9_14  and  C10_15 
ROOT
HETATM    1  C1  UNL     1      32.281  35.686  24.357  1.00  0.00     0.043 C 
HETATM    2  C2  UNL     1      33.515  36.578  24.425  1.00  0.00     0.090 C 
HETATM    3  C6  UNL     1      33.921  37.019  23.020  1.00  0.00     0.224 C 
HETATM    4  N4  UNL     1      33.993  38.366  23.515  1.00  0.00    -0.057 N 
HETATM    5  C14 UNL     1      35.322  38.827  23.877  1.00  0.00     0.273 C 
HETATM    6  C15 UNL     1      33.351  39.413  22.744  1.00  0.00     0.273 C 
HETATM    7  C16 UNL     1      33.160  37.987  24.624  1.00  0.00     0.149 C 
HETATM    8  C17 UNL     1      33.501  38.623  25.950  1.00  0.00     0.049 C 
HETATM    9  C18 UNL     1      31.692  38.263  24.317  1.00  0.00     0.049 C 
ENDROOT
BRANCH   3  10
HETATM   10  C7  UNL     1      35.194  36.406  22.567  1.00  0.00     0.063 C 
BRANCH  10  11
HETATM   11  C8  UNL     1      35.733  36.790  21.261  1.00  0.00    -0.026 C 
HETATM   12  C9  UNL     1      35.503  36.291  20.076  1.00  0.00     0.012 C 
BRANCH  12  13
HETATM   13  C10 UNL     1      36.160  36.838  18.857  1.00  0.00     0.269 C 
HETATM   14  N3  UNL     1      35.891  36.025  17.691  1.00  0.00    -0.058 N 
HETATM   15  C11 UNL     1      36.345  36.788  16.533  1.00  0.00     0.255 C 
ATOM     16  H32 UNL     1      36.303  35.094  17.746  1.00  0.00     0.278 HD
ATOM     17  H31 UNL     1      34.917  35.731  17.621  1.00  0.00     0.278 HD
HETATM   18  C12 UNL     1      37.823  36.660  16.305  1.00  0.00     0.117 C 
HETATM   19 CL1  UNL     1      38.213  37.448  14.764  1.00  0.00    -0.122 Cl
HETATM   20  C13 UNL     1      38.641  37.315  17.384  1.00  0.00     0.098 C 
HETATM   21  S2  UNL     1      37.960  36.948  19.047  1.00  0.00    -0.131 SA
ENDBRANCH  12  13
ENDBRANCH  10  11
ENDBRANCH   3  10
BRANCH   2  22
HETATM   22  N1  UNL     1      34.555  36.008  25.222  1.00  0.00    -0.357 N 
ATOM     23  H1  UNL     1      35.530  36.275  25.086  1.00  0.00     0.162 HD
BRANCH  22  24
HETATM   24  C3  UNL     1      34.181  35.044  26.224  1.00  0.00     0.140 C 
HETATM   25  N2  UNL     1      34.295  33.788  26.207  1.00  0.00    -0.350 N 
HETATM   26  C4  UNL     1      33.873  33.004  27.276  1.00  0.00     0.073 C 
ATOM     27  H2  UNL     1      34.706  33.336  25.391  1.00  0.00     0.167 HD
HETATM   28  C5  UNL     1      33.790  33.801  28.565  1.00  0.00     0.127 C 
HETATM   29  S1  UNL     1      33.439  35.443  27.803  1.00  0.00    -0.089 SA
ENDBRANCH  22  24
ENDBRANCH   2  22
TORSDOF 5
ENDMDL
