MODEL 1
REMARK VINA RESULT: -8.024104239      0.000      0.000
REMARK  8 active torsions:
REMARK  status: ('A' for Active; 'I' for Inactive)
REMARK    1  A    between atoms: C2_2  and  C4_4 
REMARK    2  A    between atoms: C4_4  and  C5_5 
REMARK    3  A    between atoms: C7_9  and  N2_10 
REMARK    4  A    between atoms: N2_10  and  S1_12 
REMARK    5  A    between atoms: S1_12  and  C8_15 
REMARK    6  A    between atoms: C12_20  and  C13_21 
REMARK    7  A    between atoms: C14_22  and  C15_23 
REMARK    8  A    between atoms: C15_23  and  N3_26 
ROOT
HETATM    1  C8  UNL     1      34.027  38.249  22.998  1.00  0.00     0.081 A 
HETATM    2  C9  UNL     1      33.190  39.162  23.591  1.00  0.00     0.028 A 
HETATM    3  C10 UNL     1      31.954  38.771  24.069  1.00  0.00     0.045 A 
HETATM    4  C11 UNL     1      31.590  37.435  23.930  1.00  0.00     0.135 A 
HETATM    5  F1  UNL     1      30.358  37.066  24.413  1.00  0.00    -0.205 F 
HETATM    6  C12 UNL     1      32.400  36.503  23.346  1.00  0.00     0.057 A 
HETATM    7  C18 UNL     1      33.632  36.939  22.879  1.00  0.00     0.049 A 
ENDROOT
BRANCH   1   8
HETATM    8  S1  UNL     1      35.585  38.757  22.398  1.00  0.00     0.264 S 
HETATM    9  O1  UNL     1      36.505  39.134  23.523  1.00  0.00    -0.200 OA
HETATM   10  O2  UNL     1      35.340  39.937  21.486  1.00  0.00    -0.200 OA
BRANCH   8  11
HETATM   11  N2  UNL     1      36.299  37.448  21.529  1.00  0.00    -0.260 N 
ATOM     12  H2  UNL     1      36.880  36.747  21.989  1.00  0.00     0.181 HD
BRANCH  11  13
HETATM   13  C7  UNL     1      36.049  37.406  20.235  1.00  0.00     0.158 A 
HETATM   14  N1  UNL     1      34.900  37.686  19.622  1.00  0.00    -0.345 N 
HETATM   15  C6  UNL     1      34.848  37.586  18.312  1.00  0.00     0.104 A 
ATOM     16  H1  UNL     1      34.080  37.972  20.157  1.00  0.00     0.167 HD
HETATM   17  C5  UNL     1      35.984  37.197  17.661  1.00  0.00     0.002 A 
HETATM   18  S2  UNL     1      37.083  36.991  18.947  1.00  0.00    -0.057 SA
BRANCH  17  19
HETATM   19  C4  UNL     1      36.265  36.991  16.206  1.00  0.00     0.051 C 
BRANCH  19  20
HETATM   20  C2  UNL     1      37.712  36.884  15.874  1.00  0.00    -0.018 C 
HETATM   21  C1  UNL     1      38.224  35.503  15.641  1.00  0.00     0.010 C 
HETATM   22  C3  UNL     1      37.927  37.693  14.595  1.00  0.00     0.010 C 
ENDBRANCH  19  20
ENDBRANCH  17  19
ENDBRANCH  11  13
ENDBRANCH   8  11
ENDBRANCH   1   8
BRANCH   6  23
HETATM   23  C13 UNL     1      31.986  35.135  23.222  1.00  0.00    -0.061 C 
HETATM   24  C14 UNL     1      31.617  33.992  23.114  1.00  0.00    -0.062 C 
BRANCH  24  25
HETATM   25  C15 UNL     1      31.160  32.620  23.003  1.00  0.00     0.179 C 
HETATM   26  C16 UNL     1      32.187  31.684  22.453  1.00  0.00     0.060 C 
HETATM   27  C17 UNL     1      30.697  32.183  24.387  1.00  0.00     0.060 C 
BRANCH  25  28
HETATM   28  N3  UNL     1      29.984  32.620  22.139  1.00  0.00    -0.060 N 
ATOM     29  H33 UNL     1      29.298  31.911  22.399  1.00  0.00     0.276 HD
ATOM     30  H32 UNL     1      29.389  33.437  22.276  1.00  0.00     0.276 HD
ATOM     31  H31 UNL     1      30.312  32.524  21.178  1.00  0.00     0.276 HD
ENDBRANCH  25  28
ENDBRANCH  24  25
ENDBRANCH   6  23
TORSDOF 8
ENDMDL
MODEL 2
REMARK VINA RESULT: -7.989625045      1.220      1.581
REMARK  8 active torsions:
REMARK  status: ('A' for Active; 'I' for Inactive)
REMARK    1  A    between atoms: C2_2  and  C4_4 
REMARK    2  A    between atoms: C4_4  and  C5_5 
REMARK    3  A    between atoms: C7_9  and  N2_10 
REMARK    4  A    between atoms: N2_10  and  S1_12 
REMARK    5  A    between atoms: S1_12  and  C8_15 
REMARK    6  A    between atoms: C12_20  and  C13_21 
REMARK    7  A    between atoms: C14_22  and  C15_23 
REMARK    8  A    between atoms: C15_23  and  N3_26 
ROOT
HETATM    1  C8  UNL     1      34.075  38.256  22.966  1.00  0.00     0.081 A 
HETATM    2  C9  UNL     1      33.230  39.170  23.546  1.00  0.00     0.028 A 
HETATM    3  C10 UNL     1      31.989  38.780  24.012  1.00  0.00     0.045 A 
HETATM    4  C11 UNL     1      31.627  37.443  23.874  1.00  0.00     0.135 A 
HETATM    5  F1  UNL     1      30.390  37.075  24.344  1.00  0.00    -0.205 F 
HETATM    6  C12 UNL     1      32.444  36.509  23.302  1.00  0.00     0.057 A 
HETATM    7  C18 UNL     1      33.681  36.944  22.848  1.00  0.00     0.049 A 
ENDROOT
BRANCH   1   8
HETATM    8  S1  UNL     1      35.638  38.763  22.382  1.00  0.00     0.264 S 
HETATM    9  O1  UNL     1      36.572  39.065  23.519  1.00  0.00    -0.200 OA
HETATM   10  O2  UNL     1      35.412  39.990  21.532  1.00  0.00    -0.200 OA
BRANCH   8  11
HETATM   11  N2  UNL     1      36.322  37.484  21.445  1.00  0.00    -0.260 N 
ATOM     12  H2  UNL     1      37.159  36.984  21.743  1.00  0.00     0.181 HD
BRANCH  11  13
HETATM   13  C7  UNL     1      35.698  37.192  20.321  1.00  0.00     0.158 A 
HETATM   14  N1  UNL     1      35.264  38.041  19.391  1.00  0.00    -0.345 N 
HETATM   15  C6  UNL     1      34.661  37.553  18.330  1.00  0.00     0.104 A 
ATOM     16  H1  UNL     1      35.397  39.046  19.500  1.00  0.00     0.167 HD
HETATM   17  C5  UNL     1      34.517  36.197  18.250  1.00  0.00     0.002 A 
HETATM   18  S2  UNL     1      35.251  35.672  19.696  1.00  0.00    -0.057 SA
BRANCH  17  19
HETATM   19  C4  UNL     1      33.896  35.331  17.200  1.00  0.00     0.051 C 
BRANCH  19  20
HETATM   20  C2  UNL     1      34.431  35.556  15.830  1.00  0.00    -0.018 C 
HETATM   21  C1  UNL     1      35.883  35.268  15.646  1.00  0.00     0.010 C 
HETATM   22  C3  UNL     1      33.641  34.638  14.896  1.00  0.00     0.010 C 
ENDBRANCH  19  20
ENDBRANCH  17  19
ENDBRANCH  11  13
ENDBRANCH   8  11
ENDBRANCH   1   8
BRANCH   6  23
HETATM   23  C13 UNL     1      32.033  35.141  23.180  1.00  0.00    -0.061 C 
HETATM   24  C14 UNL     1      31.668  33.997  23.067  1.00  0.00    -0.062 C 
BRANCH  24  25
HETATM   25  C15 UNL     1      31.211  32.626  22.948  1.00  0.00     0.179 C 
HETATM   26  C16 UNL     1      32.225  31.701  22.355  1.00  0.00     0.060 C 
HETATM   27  C17 UNL     1      30.788  32.166  24.337  1.00  0.00     0.060 C 
BRANCH  25  28
HETATM   28  N3  UNL     1      30.012  32.635  22.117  1.00  0.00    -0.060 N 
ATOM     29  H33 UNL     1      29.474  33.498  22.203  1.00  0.00     0.276 HD
ATOM     30  H32 UNL     1      30.219  32.708  21.120  1.00  0.00     0.276 HD
ATOM     31  H31 UNL     1      29.471  31.803  22.351  1.00  0.00     0.276 HD
ENDBRANCH  25  28
ENDBRANCH  24  25
ENDBRANCH   6  23
TORSDOF 8
ENDMDL
MODEL 3
REMARK VINA RESULT: -7.833791902      3.275      4.221
REMARK  8 active torsions:
REMARK  status: ('A' for Active; 'I' for Inactive)
REMARK    1  A    between atoms: C2_2  and  C4_4 
REMARK    2  A    between atoms: C4_4  and  C5_5 
REMARK    3  A    between atoms: C7_9  and  N2_10 
REMARK    4  A    between atoms: N2_10  and  S1_12 
REMARK    5  A    between atoms: S1_12  and  C8_15 
REMARK    6  A    between atoms: C12_20  and  C13_21 
REMARK    7  A    between atoms: C14_22  and  C15_23 
REMARK    8  A    between atoms: C15_23  and  N3_26 
ROOT
HETATM    1  C8  UNL     1      35.824  37.594  20.222  1.00  0.00     0.081 A 
HETATM    2  C9  UNL     1      35.632  38.944  20.058  1.00  0.00     0.028 A 
HETATM    3  C10 UNL     1      34.771  39.634  20.890  1.00  0.00     0.045 A 
HETATM    4  C11 UNL     1      34.113  38.923  21.889  1.00  0.00     0.135 A 
HETATM    5  F1  UNL     1      33.263  39.628  22.705  1.00  0.00    -0.205 F 
HETATM    6  C12 UNL     1      34.283  37.581  22.078  1.00  0.00     0.057 A 
HETATM    7  C18 UNL     1      35.156  36.927  21.221  1.00  0.00     0.049 A 
ENDROOT
BRANCH   1   8
HETATM    8  S1  UNL     1      36.913  36.734  19.164  1.00  0.00     0.264 S 
HETATM    9  O1  UNL     1      36.791  35.249  19.349  1.00  0.00    -0.200 OA
HETATM   10  O2  UNL     1      38.310  37.204  19.497  1.00  0.00    -0.200 OA
BRANCH   8  11
HETATM   11  N2  UNL     1      36.512  37.113  17.529  1.00  0.00    -0.260 N 
ATOM     12  H2  UNL     1      36.930  37.904  17.039  1.00  0.00     0.181 HD
BRANCH  11  13
HETATM   13  C7  UNL     1      35.633  36.320  16.949  1.00  0.00     0.158 A 
HETATM   14  N1  UNL     1      34.390  36.059  17.350  1.00  0.00    -0.345 N 
HETATM   15  C6  UNL     1      33.660  35.234  16.631  1.00  0.00     0.104 A 
ATOM     16  H1  UNL     1      34.013  36.488  18.195  1.00  0.00     0.167 HD
HETATM   17  C5  UNL     1      34.229  34.695  15.512  1.00  0.00     0.002 A 
HETATM   18  S2  UNL     1      35.785  35.389  15.531  1.00  0.00    -0.057 SA
BRANCH  17  19
HETATM   19  C4  UNL     1      33.689  33.745  14.491  1.00  0.00     0.051 C 
BRANCH  19  20
HETATM   20  C2  UNL     1      32.489  34.247  13.767  1.00  0.00    -0.018 C 
HETATM   21  C1  UNL     1      32.305  35.727  13.764  1.00  0.00     0.010 C 
HETATM   22  C3  UNL     1      32.627  33.781  12.317  1.00  0.00     0.010 C 
ENDBRANCH  19  20
ENDBRANCH  17  19
ENDBRANCH  11  13
ENDBRANCH   8  11
ENDBRANCH   1   8
BRANCH   6  23
HETATM   23  C13 UNL     1      33.585  36.886  23.121  1.00  0.00    -0.061 C 
HETATM   24  C14 UNL     1      32.996  36.283  23.983  1.00  0.00    -0.062 C 
BRANCH  24  25
HETATM   25  C15 UNL     1      32.267  35.559  25.007  1.00  0.00     0.179 C 
HETATM   26  C16 UNL     1      32.517  34.085  24.997  1.00  0.00     0.060 C 
HETATM   27  C17 UNL     1      32.639  36.175  26.350  1.00  0.00     0.060 C 
BRANCH  25  28
HETATM   28  N3  UNL     1      30.847  35.817  24.797  1.00  0.00    -0.060 N 
ATOM     29  H33 UNL     1      30.385  36.201  25.622  1.00  0.00     0.276 HD
ATOM     30  H32 UNL     1      30.672  36.603  24.170  1.00  0.00     0.276 HD
ATOM     31  H31 UNL     1      30.424  34.948  24.473  1.00  0.00     0.276 HD
ENDBRANCH  25  28
ENDBRANCH  24  25
ENDBRANCH   6  23
TORSDOF 8
ENDMDL
MODEL 4
REMARK VINA RESULT: -7.787316240      2.009      2.405
REMARK  8 active torsions:
REMARK  status: ('A' for Active; 'I' for Inactive)
REMARK    1  A    between atoms: C2_2  and  C4_4 
REMARK    2  A    between atoms: C4_4  and  C5_5 
REMARK    3  A    between atoms: C7_9  and  N2_10 
REMARK    4  A    between atoms: N2_10  and  S1_12 
REMARK    5  A    between atoms: S1_12  and  C8_15 
REMARK    6  A    between atoms: C12_20  and  C13_21 
REMARK    7  A    between atoms: C14_22  and  C15_23 
REMARK    8  A    between atoms: C15_23  and  N3_26 
ROOT
HETATM    1  C8  UNL     1      33.869  37.354  22.195  1.00  0.00     0.081 A 
HETATM    2  C9  UNL     1      33.274  38.380  22.886  1.00  0.00     0.028 A 
HETATM    3  C10 UNL     1      32.206  38.132  23.727  1.00  0.00     0.045 A 
HETATM    4  C11 UNL     1      31.757  36.820  23.848  1.00  0.00     0.135 A 
HETATM    5  F1  UNL     1      30.695  36.595  24.689  1.00  0.00    -0.205 F 
HETATM    6  C12 UNL     1      32.327  35.777  23.174  1.00  0.00     0.057 A 
HETATM    7  C18 UNL     1      33.397  36.071  22.341  1.00  0.00     0.049 A 
ENDROOT
BRANCH   1   8
HETATM    8  S1  UNL     1      35.216  37.682  21.136  1.00  0.00     0.264 S 
HETATM    9  O1  UNL     1      36.365  38.288  21.890  1.00  0.00    -0.200 OA
HETATM   10  O2  UNL     1      34.716  38.626  20.069  1.00  0.00    -0.200 OA
BRANCH   8  11
HETATM   11  N2  UNL     1      35.749  36.195  20.439  1.00  0.00    -0.260 N 
ATOM     12  H2  UNL     1      36.095  35.424  21.011  1.00  0.00     0.181 HD
BRANCH  11  13
HETATM   13  C7  UNL     1      35.683  36.114  19.125  1.00  0.00     0.158 A 
HETATM   14  N1  UNL     1      36.277  36.907  18.234  1.00  0.00    -0.345 N 
HETATM   15  C6  UNL     1      36.089  36.663  16.956  1.00  0.00     0.104 A 
ATOM     16  H1  UNL     1      36.863  37.685  18.537  1.00  0.00     0.167 HD
HETATM   17  C5  UNL     1      35.292  35.605  16.623  1.00  0.00     0.002 A 
HETATM   18  S2  UNL     1      34.842  35.000  18.151  1.00  0.00    -0.057 SA
BRANCH  17  19
HETATM   19  C4  UNL     1      34.882  35.060  15.291  1.00  0.00     0.051 C 
BRANCH  19  20
HETATM   20  C2  UNL     1      33.414  34.864  15.139  1.00  0.00    -0.018 C 
HETATM   21  C1  UNL     1      32.664  36.015  14.558  1.00  0.00     0.010 C 
HETATM   22  C3  UNL     1      33.229  33.660  14.215  1.00  0.00     0.010 C 
ENDBRANCH  19  20
ENDBRANCH  17  19
ENDBRANCH  11  13
ENDBRANCH   8  11
ENDBRANCH   1   8
BRANCH   6  23
HETATM   23  C13 UNL     1      31.834  34.439  23.327  1.00  0.00    -0.061 C 
HETATM   24  C14 UNL     1      31.438  33.306  23.446  1.00  0.00    -0.062 C 
BRANCH  24  25
HETATM   25  C15 UNL     1      30.962  31.942  23.566  1.00  0.00     0.179 C 
HETATM   26  C16 UNL     1      31.716  30.963  22.724  1.00  0.00     0.060 C 
HETATM   27  C17 UNL     1      31.023  31.567  25.041  1.00  0.00     0.060 C 
BRANCH  25  28
HETATM   28  N3  UNL     1      29.554  31.935  23.181  1.00  0.00    -0.060 N 
ATOM     29  H33 UNL     1      29.067  32.794  23.438  1.00  0.00     0.276 HD
ATOM     30  H32 UNL     1      29.417  32.002  22.172  1.00  0.00     0.276 HD
ATOM     31  H31 UNL     1      29.131  31.100  23.586  1.00  0.00     0.276 HD
ENDBRANCH  25  28
ENDBRANCH  24  25
ENDBRANCH   6  23
TORSDOF 8
ENDMDL
MODEL 5
REMARK VINA RESULT: -7.774552298      3.369      8.439
REMARK  8 active torsions:
REMARK  status: ('A' for Active; 'I' for Inactive)
REMARK    1  A    between atoms: C2_2  and  C4_4 
REMARK    2  A    between atoms: C4_4  and  C5_5 
REMARK    3  A    between atoms: C7_9  and  N2_10 
REMARK    4  A    between atoms: N2_10  and  S1_12 
REMARK    5  A    between atoms: S1_12  and  C8_15 
REMARK    6  A    between atoms: C12_20  and  C13_21 
REMARK    7  A    between atoms: C14_22  and  C15_23 
REMARK    8  A    between atoms: C15_23  and  N3_26 
ROOT
HETATM    1  C8  UNL     1      35.008  37.839  21.945  1.00  0.00     0.081 A 
HETATM    2  C9  UNL     1      34.388  36.694  22.380  1.00  0.00     0.028 A 
HETATM    3  C10 UNL     1      34.396  35.553  21.599  1.00  0.00     0.045 A 
HETATM    4  C11 UNL     1      35.047  35.605  20.370  1.00  0.00     0.135 A 
HETATM    5  F1  UNL     1      35.045  34.461  19.610  1.00  0.00    -0.205 F 
HETATM    6  C12 UNL     1      35.673  36.728  19.909  1.00  0.00     0.057 A 
HETATM    7  C18 UNL     1      35.640  37.850  20.725  1.00  0.00     0.049 A 
ENDROOT
BRANCH   1   8
HETATM    8  S1  UNL     1      34.989  39.272  22.940  1.00  0.00     0.264 S 
HETATM    9  O1  UNL     1      35.319  40.497  22.137  1.00  0.00    -0.200 OA
HETATM   10  O2  UNL     1      36.005  39.058  24.036  1.00  0.00    -0.200 OA
BRANCH   8  11
HETATM   11  N2  UNL     1      33.406  39.467  23.601  1.00  0.00    -0.260 N 
ATOM     12  H2  UNL     1      32.639  39.865  23.058  1.00  0.00     0.181 HD
BRANCH  11  13
HETATM   13  C7  UNL     1      33.245  39.072  24.848  1.00  0.00     0.158 A 
HETATM   14  N1  UNL     1      33.727  39.649  25.948  1.00  0.00    -0.345 N 
HETATM   15  C6  UNL     1      33.455  39.102  27.113  1.00  0.00     0.104 A 
ATOM     16  H1  UNL     1      34.293  40.495  25.889  1.00  0.00     0.167 HD
HETATM   17  C5  UNL     1      32.692  37.968  27.118  1.00  0.00     0.002 A 
HETATM   18  S2  UNL     1      32.392  37.731  25.457  1.00  0.00    -0.057 SA
BRANCH  17  19
HETATM   19  C4  UNL     1      32.205  37.112  28.244  1.00  0.00     0.051 C 
BRANCH  19  20
HETATM   20  C2  UNL     1      32.309  35.650  27.986  1.00  0.00    -0.018 C 
HETATM   21  C1  UNL     1      33.693  35.117  27.830  1.00  0.00     0.010 C 
HETATM   22  C3  UNL     1      31.661  34.950  29.181  1.00  0.00     0.010 C 
ENDBRANCH  19  20
ENDBRANCH  17  19
ENDBRANCH  11  13
ENDBRANCH   8  11
ENDBRANCH   1   8
BRANCH   6  23
HETATM   23  C13 UNL     1      36.333  36.739  18.636  1.00  0.00    -0.061 C 
HETATM   24  C14 UNL     1      36.896  36.727  17.569  1.00  0.00    -0.062 C 
BRANCH  24  25
HETATM   25  C15 UNL     1      37.595  36.714  16.299  1.00  0.00     0.179 C 
HETATM   26  C16 UNL     1      37.850  35.341  15.764  1.00  0.00     0.060 C 
HETATM   27  C17 UNL     1      36.774  37.545  15.321  1.00  0.00     0.060 C 
BRANCH  25  28
HETATM   28  N3  UNL     1      38.864  37.408  16.490  1.00  0.00    -0.060 N 
ATOM     29  H33 UNL     1      39.113  38.006  15.702  1.00  0.00     0.276 HD
ATOM     30  H32 UNL     1      38.815  38.139  17.201  1.00  0.00     0.276 HD
ATOM     31  H31 UNL     1      39.570  36.702  16.693  1.00  0.00     0.276 HD
ENDBRANCH  25  28
ENDBRANCH  24  25
ENDBRANCH   6  23
TORSDOF 8
ENDMDL
