MODEL 1
REMARK VINA RESULT: -7.954539623      0.000      0.000
REMARK  6 active torsions:
REMARK  status: ('A' for Active; 'I' for Inactive)
REMARK    1  A    between atoms: C2_2  and  C3_3 
REMARK       I    between atoms: N1_5  and  C5_7 
REMARK    2  A    between atoms: C5_7  and  C6_9 
REMARK    3  A    between atoms: C6_9  and  N2_10 
REMARK    4  A    between atoms: C9_17  and  C10_18 
REMARK    5  A    between atoms: C10_18  and  C11_19 
REMARK    6  A    between atoms: C14_23  and  O3_24 
ROOT
HETATM    1  N2  UNL     1      34.790  36.639  19.968  1.00  0.00    -0.362 N 
ATOM      2  H2  UNL     1      34.408  35.709  20.138  1.00  0.00     0.162 HD
HETATM    3  C7  UNL     1      34.848  37.480  20.918  1.00  0.00     0.148 C 
HETATM    4  N3  UNL     1      35.327  38.790  20.905  1.00  0.00    -0.303 N 
ATOM      5  H3  UNL     1      35.595  39.252  20.035  1.00  0.00     0.171 HD
HETATM    6  C8  UNL     1      35.424  39.444  22.138  1.00  0.00     0.264 C 
HETATM    7  O2  UNL     1      35.846  40.655  22.269  1.00  0.00    -0.267 OA
HETATM    8  C9  UNL     1      35.014  38.685  23.294  1.00  0.00     0.079 C 
HETATM    9  S1  UNL     1      34.289  37.178  22.575  1.00  0.00    -0.049 SA
ENDROOT
BRANCH   1  10
HETATM   10  C6  UNL     1      35.268  36.996  18.627  1.00  0.00     0.224 C 
BRANCH  10  11
HETATM   11  C5  UNL     1      36.578  36.378  18.361  1.00  0.00     0.239 C 
HETATM   12  N1  UNL     1      37.488  36.968  17.451  1.00  0.00    -0.333 N 
HETATM   13  C3  UNL     1      37.347  36.802  16.168  1.00  0.00    -0.015 C 
ATOM     14  H1  UNL     1      38.263  37.529  17.805  1.00  0.00     0.168 HD
HETATM   15  C4  UNL     1      36.221  35.985  15.693  1.00  0.00     0.063 C 
HETATM   16  O1  UNL     1      36.897  35.310  18.947  1.00  0.00    -0.271 OA
BRANCH  13  17
HETATM   17  C2  UNL     1      38.270  37.397  15.185  1.00  0.00     0.047 C 
HETATM   18  C1  UNL     1      37.463  38.194  14.175  1.00  0.00     0.011 C 
ENDBRANCH  13  17
ENDBRANCH  10  11
ENDBRANCH   1  10
BRANCH   8  19
HETATM   19  C10 UNL     1      35.078  38.867  24.582  1.00  0.00     0.062 C 
BRANCH  19  20
HETATM   20  C11 UNL     1      34.307  38.205  25.618  1.00  0.00     0.081 A 
HETATM   21  C12 UNL     1      34.572  37.121  26.413  1.00  0.00     0.061 A 
HETATM   22  C13 UNL     1      33.491  36.918  27.234  1.00  0.00     0.071 A 
HETATM   23 BR1  UNL     1      33.347  35.528  28.543  1.00  0.00    -0.046 Br
HETATM   24  C14 UNL     1      32.592  37.892  26.914  1.00  0.00     0.201 A 
HETATM   25  O4  UNL     1      33.089  38.629  25.970  1.00  0.00    -0.287 OA
BRANCH  24  26
HETATM   26  O3  UNL     1      31.351  38.008  27.551  1.00  0.00    -0.340 OA
ATOM     27  H3  UNL     1      30.981  38.848  27.799  1.00  0.00     0.220 HD
ENDBRANCH  24  26
ENDBRANCH  19  20
ENDBRANCH   8  19
TORSDOF 6
ENDMDL
MODEL 2
REMARK VINA RESULT: -7.949952878      3.854      8.637
REMARK  6 active torsions:
REMARK  status: ('A' for Active; 'I' for Inactive)
REMARK    1  A    between atoms: C2_2  and  C3_3 
REMARK       I    between atoms: N1_5  and  C5_7 
REMARK    2  A    between atoms: C5_7  and  C6_9 
REMARK    3  A    between atoms: C6_9  and  N2_10 
REMARK    4  A    between atoms: C9_17  and  C10_18 
REMARK    5  A    between atoms: C10_18  and  C11_19 
REMARK    6  A    between atoms: C14_23  and  O3_24 
ROOT
HETATM    1  N2  UNL     1      33.516  38.906  23.049  1.00  0.00    -0.362 N 
ATOM      2  H2  UNL     1      33.942  39.797  22.795  1.00  0.00     0.162 HD
HETATM    3  C7  UNL     1      33.777  37.865  22.370  1.00  0.00     0.148 C 
HETATM    4  N3  UNL     1      33.310  36.561  22.541  1.00  0.00    -0.303 N 
ATOM      5  H3  UNL     1      32.579  36.342  23.218  1.00  0.00     0.171 HD
HETATM    6  C8  UNL     1      33.888  35.568  21.743  1.00  0.00     0.264 C 
HETATM    7  O2  UNL     1      33.548  34.327  21.796  1.00  0.00    -0.267 OA
HETATM    8  C9  UNL     1      34.911  36.006  20.825  1.00  0.00     0.079 C 
HETATM    9  S1  UNL     1      34.845  37.821  20.953  1.00  0.00    -0.049 SA
ENDROOT
BRANCH   1  10
HETATM   10  C6  UNL     1      32.605  38.835  24.198  1.00  0.00     0.224 C 
BRANCH  10  11
HETATM   11  C5  UNL     1      33.362  38.710  25.455  1.00  0.00     0.239 C 
HETATM   12  N1  UNL     1      34.283  37.652  25.645  1.00  0.00    -0.333 N 
HETATM   13  C3  UNL     1      33.872  36.465  25.982  1.00  0.00    -0.015 C 
ATOM     14  H1  UNL     1      35.281  37.823  25.517  1.00  0.00     0.168 HD
HETATM   15  C4  UNL     1      32.427  36.255  26.161  1.00  0.00     0.063 C 
HETATM   16  O1  UNL     1      33.191  39.553  26.375  1.00  0.00    -0.271 OA
BRANCH  13  17
HETATM   17  C2  UNL     1      34.795  35.335  26.192  1.00  0.00     0.047 C 
HETATM   18  C1  UNL     1      35.757  35.264  25.018  1.00  0.00     0.011 C 
ENDBRANCH  13  17
ENDBRANCH  10  11
ENDBRANCH   1  10
BRANCH   8  19
HETATM   19  C10 UNL     1      35.759  35.406  20.040  1.00  0.00     0.062 C 
BRANCH  19  20
HETATM   20  C11 UNL     1      36.526  35.976  18.947  1.00  0.00     0.081 A 
HETATM   21  C12 UNL     1      36.241  36.155  17.619  1.00  0.00     0.061 A 
HETATM   22  C13 UNL     1      37.326  36.751  17.027  1.00  0.00     0.071 A 
HETATM   23 BR1  UNL     1      37.449  37.224  15.175  1.00  0.00    -0.046 Br
HETATM   24  C14 UNL     1      38.247  36.919  18.018  1.00  0.00     0.201 A 
HETATM   25  O4  UNL     1      37.758  36.459  19.128  1.00  0.00    -0.287 OA
BRANCH  24  26
HETATM   26  O3  UNL     1      39.499  37.504  17.791  1.00  0.00    -0.340 OA
ATOM     27  H3  UNL     1      39.764  38.318  18.202  1.00  0.00     0.220 HD
ENDBRANCH  24  26
ENDBRANCH  19  20
ENDBRANCH   8  19
TORSDOF 6
ENDMDL
MODEL 3
REMARK VINA RESULT: -7.935894406      4.024      8.597
REMARK  6 active torsions:
REMARK  status: ('A' for Active; 'I' for Inactive)
REMARK    1  A    between atoms: C2_2  and  C3_3 
REMARK       I    between atoms: N1_5  and  C5_7 
REMARK    2  A    between atoms: C5_7  and  C6_9 
REMARK    3  A    between atoms: C6_9  and  N2_10 
REMARK    4  A    between atoms: C9_17  and  C10_18 
REMARK    5  A    between atoms: C10_18  and  C11_19 
REMARK    6  A    between atoms: C14_23  and  O3_24 
ROOT
HETATM    1  N2  UNL     1      34.128  34.494  24.228  1.00  0.00    -0.362 N 
ATOM      2  H2  UNL     1      33.664  33.603  24.051  1.00  0.00     0.162 HD
HETATM    3  C7  UNL     1      34.568  35.181  23.254  1.00  0.00     0.148 C 
HETATM    4  N3  UNL     1      35.226  36.411  23.269  1.00  0.00    -0.303 N 
ATOM      5  H3  UNL     1      35.524  36.845  24.143  1.00  0.00     0.171 HD
HETATM    6  C8  UNL     1      35.460  37.023  22.033  1.00  0.00     0.264 C 
HETATM    7  O2  UNL     1      36.059  38.156  21.904  1.00  0.00    -0.267 OA
HETATM    8  C9  UNL     1      34.991  36.309  20.871  1.00  0.00     0.079 C 
HETATM    9  S1  UNL     1      34.460  34.704  21.548  1.00  0.00    -0.049 SA
ENDROOT
BRANCH   1  10
HETATM   10  C6  UNL     1      34.282  34.975  25.606  1.00  0.00     0.224 C 
BRANCH  10  11
HETATM   11  C5  UNL     1      32.989  35.427  26.147  1.00  0.00     0.239 C 
HETATM   12  N1  UNL     1      32.091  36.178  25.350  1.00  0.00    -0.333 N 
HETATM   13  C3  UNL     1      32.264  37.455  25.178  1.00  0.00    -0.015 C 
ATOM     14  H1  UNL     1      31.300  35.711  24.906  1.00  0.00     0.168 HD
HETATM   15  C4  UNL     1      33.414  38.095  25.835  1.00  0.00     0.063 C 
HETATM   16  O1  UNL     1      32.674  35.144  27.333  1.00  0.00    -0.271 OA
BRANCH  13  17
HETATM   17  C2  UNL     1      31.355  38.276  24.358  1.00  0.00     0.047 C 
HETATM   18  C1  UNL     1      30.762  37.405  23.263  1.00  0.00     0.011 C 
ENDBRANCH  13  17
ENDBRANCH  10  11
ENDBRANCH   1  10
BRANCH   8  19
HETATM   19  C10 UNL     1      34.888  36.584  19.603  1.00  0.00     0.062 C 
BRANCH  19  20
HETATM   20  C11 UNL     1      35.957  36.773  18.639  1.00  0.00     0.081 A 
HETATM   21  C12 UNL     1      35.960  36.855  17.271  1.00  0.00     0.061 A 
HETATM   22  C13 UNL     1      37.255  37.043  16.857  1.00  0.00     0.071 A 
HETATM   23 BR1  UNL     1      37.814  37.222  15.034  1.00  0.00    -0.046 Br
HETATM   24  C14 UNL     1      38.009  37.071  17.992  1.00  0.00     0.201 A 
HETATM   25  O4  UNL     1      37.232  36.912  19.018  1.00  0.00    -0.287 OA
BRANCH  24  26
HETATM   26  O3  UNL     1      39.398  37.248  17.969  1.00  0.00    -0.340 OA
ATOM     27  H3  UNL     1      39.803  38.072  17.724  1.00  0.00     0.220 HD
ENDBRANCH  24  26
ENDBRANCH  19  20
ENDBRANCH   8  19
TORSDOF 6
ENDMDL
MODEL 4
REMARK VINA RESULT: -7.880321026      3.784      8.007
REMARK  6 active torsions:
REMARK  status: ('A' for Active; 'I' for Inactive)
REMARK    1  A    between atoms: C2_2  and  C3_3 
REMARK       I    between atoms: N1_5  and  C5_7 
REMARK    2  A    between atoms: C5_7  and  C6_9 
REMARK    3  A    between atoms: C6_9  and  N2_10 
REMARK    4  A    between atoms: C9_17  and  C10_18 
REMARK    5  A    between atoms: C10_18  and  C11_19 
REMARK    6  A    between atoms: C14_23  and  O3_24 
ROOT
HETATM    1  N2  UNL     1      34.420  38.471  25.103  1.00  0.00    -0.362 N 
ATOM      2  H2  UNL     1      35.089  37.939  25.660  1.00  0.00     0.162 HD
HETATM    3  C7  UNL     1      34.625  38.636  23.860  1.00  0.00     0.148 C 
HETATM    4  N3  UNL     1      33.850  39.320  22.923  1.00  0.00    -0.303 N 
ATOM      5  H3  UNL     1      33.044  39.878  23.205  1.00  0.00     0.171 HD
HETATM    6  C8  UNL     1      34.229  39.208  21.581  1.00  0.00     0.264 C 
HETATM    7  O2  UNL     1      33.604  39.791  20.616  1.00  0.00    -0.267 OA
HETATM    8  C9  UNL     1      35.387  38.392  21.313  1.00  0.00     0.079 C 
HETATM    9  S1  UNL     1      36.032  38.015  22.974  1.00  0.00    -0.049 SA
ENDROOT
BRANCH   1  10
HETATM   10  C6  UNL     1      33.228  39.041  25.742  1.00  0.00     0.224 C 
BRANCH  10  11
HETATM   11  C5  UNL     1      32.338  37.972  26.227  1.00  0.00     0.239 C 
HETATM   12  N1  UNL     1      32.362  36.685  25.639  1.00  0.00    -0.333 N 
HETATM   13  C3  UNL     1      31.740  36.453  24.520  1.00  0.00    -0.015 C 
ATOM     14  H1  UNL     1      32.873  35.930  26.098  1.00  0.00     0.168 HD
HETATM   15  C4  UNL     1      31.011  37.563  23.888  1.00  0.00     0.063 C 
HETATM   16  O1  UNL     1      31.543  38.203  27.176  1.00  0.00    -0.271 OA
BRANCH  13  17
HETATM   17  C2  UNL     1      31.737  35.129  23.873  1.00  0.00     0.047 C 
HETATM   18  C1  UNL     1      32.828  35.098  22.816  1.00  0.00     0.011 C 
ENDBRANCH  13  17
ENDBRANCH  10  11
ENDBRANCH   1  10
BRANCH   8  19
HETATM   19  C10 UNL     1      35.960  37.935  20.237  1.00  0.00     0.062 C 
BRANCH  19  20
HETATM   20  C11 UNL     1      35.441  36.964  19.291  1.00  0.00     0.081 A 
HETATM   21  C12 UNL     1      34.861  37.100  18.056  1.00  0.00     0.061 A 
HETATM   22  C13 UNL     1      34.556  35.846  17.588  1.00  0.00     0.071 A 
HETATM   23 BR1  UNL     1      33.728  35.471  15.902  1.00  0.00    -0.046 Br
HETATM   24  C14 UNL     1      34.963  34.977  18.556  1.00  0.00     0.201 A 
HETATM   25  O4  UNL     1      35.475  35.651  19.539  1.00  0.00    -0.287 OA
BRANCH  24  26
HETATM   26  O3  UNL     1      34.815  33.590  18.433  1.00  0.00    -0.340 OA
ATOM     27  H3  UNL     1      34.741  33.015  19.186  1.00  0.00     0.220 HD
ENDBRANCH  24  26
ENDBRANCH  19  20
ENDBRANCH   8  19
TORSDOF 6
ENDMDL
MODEL 5
REMARK VINA RESULT: -7.857375932      4.011      9.262
REMARK  6 active torsions:
REMARK  status: ('A' for Active; 'I' for Inactive)
REMARK    1  A    between atoms: C2_2  and  C3_3 
REMARK       I    between atoms: N1_5  and  C5_7 
REMARK    2  A    between atoms: C5_7  and  C6_9 
REMARK    3  A    between atoms: C6_9  and  N2_10 
REMARK    4  A    between atoms: C9_17  and  C10_18 
REMARK    5  A    between atoms: C10_18  and  C11_19 
REMARK    6  A    between atoms: C14_23  and  O3_24 
ROOT
HETATM    1  N2  UNL     1      35.356  37.978  23.977  1.00  0.00    -0.362 N 
ATOM      2  H2  UNL     1      35.898  38.821  23.790  1.00  0.00     0.162 HD
HETATM    3  C7  UNL     1      35.109  37.164  23.034  1.00  0.00     0.148 C 
HETATM    4  N3  UNL     1      34.395  35.966  23.069  1.00  0.00    -0.303 N 
ATOM      5  H3  UNL     1      33.882  35.676  23.901  1.00  0.00     0.171 HD
HETATM    6  C8  UNL     1      34.413  35.181  21.911  1.00  0.00     0.264 C 
HETATM    7  O2  UNL     1      33.793  34.056  21.806  1.00  0.00    -0.267 OA
HETATM    8  C9  UNL     1      35.173  35.702  20.801  1.00  0.00     0.079 C 
HETATM    9  S1  UNL     1      35.628  37.377  21.350  1.00  0.00    -0.049 SA
ENDROOT
BRANCH   1  10
HETATM   10  C6  UNL     1      34.865  37.713  25.335  1.00  0.00     0.224 C 
BRANCH  10  11
HETATM   11  C5  UNL     1      34.281  38.931  25.924  1.00  0.00     0.239 C 
HETATM   12  N1  UNL     1      35.096  39.878  26.589  1.00  0.00    -0.333 N 
HETATM   13  C3  UNL     1      35.477  39.681  27.817  1.00  0.00    -0.015 C 
ATOM     14  H1  UNL     1      35.387  40.725  26.100  1.00  0.00     0.168 HD
HETATM   15  C4  UNL     1      35.037  38.451  28.492  1.00  0.00     0.063 C 
HETATM   16  O1  UNL     1      33.042  39.135  25.836  1.00  0.00    -0.271 OA
BRANCH  13  17
HETATM   17  C2  UNL     1      36.324  40.641  28.548  1.00  0.00     0.047 C 
HETATM   18  C1  UNL     1      36.767  41.733  27.590  1.00  0.00     0.011 C 
ENDBRANCH  13  17
ENDBRANCH  10  11
ENDBRANCH   1  10
BRANCH   8  19
HETATM   19  C10 UNL     1      35.544  35.237  19.643  1.00  0.00     0.062 C 
BRANCH  19  20
HETATM   20  C11 UNL     1      36.385  35.878  18.649  1.00  0.00     0.081 A 
HETATM   21  C12 UNL     1      36.192  36.157  17.321  1.00  0.00     0.061 A 
HETATM   22  C13 UNL     1      37.318  36.784  16.849  1.00  0.00     0.071 A 
HETATM   23 BR1  UNL     1      37.569  37.390  15.049  1.00  0.00    -0.046 Br
HETATM   24  C14 UNL     1      38.170  36.870  17.910  1.00  0.00     0.201 A 
HETATM   25  O4  UNL     1      37.605  36.336  18.947  1.00  0.00    -0.287 OA
BRANCH  24  26
HETATM   26  O3  UNL     1      39.437  37.458  17.811  1.00  0.00    -0.340 OA
ATOM     27  H3  UNL     1      40.181  37.007  17.431  1.00  0.00     0.220 HD
ENDBRANCH  24  26
ENDBRANCH  19  20
ENDBRANCH   8  19
TORSDOF 6
ENDMDL
