MODEL 1
REMARK VINA RESULT: -7.223373116      0.000      0.000
REMARK  6 active torsions:
REMARK  status: ('A' for Active; 'I' for Inactive)
REMARK    1  A    between atoms: S1_2  and  C2_3 
REMARK    2  A    between atoms: C2_3  and  C3_4 
REMARK       I    between atoms: C3_4  and  N1_6 
REMARK    3  A    between atoms: N1_6  and  C4_8 
REMARK    4  A    between atoms: C8_15  and  C9_16 
REMARK    5  A    between atoms: C9_16  and  O2_17 
REMARK    6  A    between atoms: C9_16  and  C10_19 
ROOT
HETATM    1  C4  UNL     1      34.880  38.916  23.147  1.00  0.00     0.152 A 
HETATM    2  N2  UNL     1      34.650  37.660  22.772  1.00  0.00    -0.334 N 
ATOM      3  H2  UNL     1      34.428  36.944  23.463  1.00  0.00     0.168 HD
HETATM    4  C5  UNL     1      34.714  37.359  21.491  1.00  0.00     0.069 A 
HETATM    5  C6  UNL     1      34.501  36.088  20.912  1.00  0.00     0.039 A 
HETATM    6 BR1  UNL     1      34.068  34.552  21.975  1.00  0.00    -0.049 Br
HETATM    7  C7  UNL     1      34.605  35.936  19.556  1.00  0.00     0.031 A 
HETATM    8  C8  UNL     1      34.907  36.943  18.667  1.00  0.00    -0.027 A 
HETATM    9  C13 UNL     1      35.117  38.196  19.231  1.00  0.00     0.031 A 
HETATM   10  C14 UNL     1      35.016  38.373  20.623  1.00  0.00     0.037 A 
HETATM   11  S2  UNL     1      35.197  39.711  21.676  1.00  0.00    -0.052 SA
ENDROOT
BRANCH   1  12
HETATM   12  N1  UNL     1      34.861  39.399  24.375  1.00  0.00    -0.306 N 
HETATM   13  C3  UNL     1      34.563  38.605  25.486  1.00  0.00     0.232 C 
HETATM   14  O1  UNL     1      35.198  37.571  25.784  1.00  0.00    -0.272 OA
ATOM     15  H1  UNL     1      35.071  40.387  24.518  1.00  0.00     0.171 HD
BRANCH  13  16
HETATM   16  C2  UNL     1      33.424  38.990  26.393  1.00  0.00     0.176 C 
BRANCH  16  17
HETATM   17  S1  UNL     1      32.013  37.890  26.190  1.00  0.00    -0.164 SA
HETATM   18  C1  UNL     1      31.457  38.020  24.454  1.00  0.00     0.090 C 
ENDBRANCH  16  17
ENDBRANCH  13  16
ENDBRANCH   1  12
BRANCH   8  19
HETATM   19  C9  UNL     1      35.027  36.811  17.225  1.00  0.00     0.154 C 
BRANCH  19  20
HETATM   20  O2  UNL     1      36.290  37.250  16.786  1.00  0.00    -0.391 OA
ATOM     21  H2  UNL     1      36.263  37.486  15.866  1.00  0.00     0.210 HD
ENDBRANCH  19  20
BRANCH  19  22
HETATM   22  C10 UNL     1      34.855  35.424  16.681  1.00  0.00     0.011 C 
HETATM   23  C11 UNL     1      35.994  35.086  15.724  1.00  0.00     0.012 C 
HETATM   24  C12 UNL     1      33.551  35.440  15.870  1.00  0.00     0.012 C 
ENDBRANCH  19  22
ENDBRANCH   8  19
TORSDOF 6
ENDMDL
MODEL 2
REMARK VINA RESULT: -7.214771581      2.381      2.983
REMARK  6 active torsions:
REMARK  status: ('A' for Active; 'I' for Inactive)
REMARK    1  A    between atoms: S1_2  and  C2_3 
REMARK    2  A    between atoms: C2_3  and  C3_4 
REMARK       I    between atoms: C3_4  and  N1_6 
REMARK    3  A    between atoms: N1_6  and  C4_8 
REMARK    4  A    between atoms: C8_15  and  C9_16 
REMARK    5  A    between atoms: C9_16  and  O2_17 
REMARK    6  A    between atoms: C9_16  and  C10_19 
ROOT
HETATM    1  C4  UNL     1      33.682  36.597  23.720  1.00  0.00     0.152 A 
HETATM    2  N2  UNL     1      34.045  37.470  22.782  1.00  0.00    -0.334 N 
ATOM      3  H2  UNL     1      34.059  38.470  22.981  1.00  0.00     0.168 HD
HETATM    4  C5  UNL     1      34.386  37.018  21.593  1.00  0.00     0.069 A 
HETATM    5  C6  UNL     1      34.795  37.790  20.483  1.00  0.00     0.039 A 
HETATM    6 BR1  UNL     1      34.914  39.702  20.570  1.00  0.00    -0.049 Br
HETATM    7  C7  UNL     1      35.118  37.168  19.308  1.00  0.00     0.031 A 
HETATM    8  C8  UNL     1      35.081  35.808  19.096  1.00  0.00    -0.027 A 
HETATM    9  C13 UNL     1      34.680  35.043  20.184  1.00  0.00     0.031 A 
HETATM   10  C14 UNL     1      34.343  35.663  21.401  1.00  0.00     0.037 A 
HETATM   11  S2  UNL     1      33.817  35.097  22.929  1.00  0.00    -0.052 SA
ENDROOT
BRANCH   1  12
HETATM   12  N1  UNL     1      33.311  36.864  24.957  1.00  0.00    -0.306 N 
HETATM   13  C3  UNL     1      32.621  38.030  25.297  1.00  0.00     0.232 C 
HETATM   14  O1  UNL     1      31.530  38.359  24.782  1.00  0.00    -0.272 OA
ATOM     15  H1  UNL     1      33.537  36.194  25.693  1.00  0.00     0.171 HD
BRANCH  13  16
HETATM   16  C2  UNL     1      33.191  38.960  26.335  1.00  0.00     0.176 C 
BRANCH  16  17
HETATM   17  S1  UNL     1      34.882  38.515  26.767  1.00  0.00    -0.164 SA
HETATM   18  C1  UNL     1      35.656  39.977  27.543  1.00  0.00     0.090 C 
ENDBRANCH  16  17
ENDBRANCH  13  16
ENDBRANCH   1  12
BRANCH   8  19
HETATM   19  C9  UNL     1      35.416  35.120  17.860  1.00  0.00     0.154 C 
BRANCH  19  20
HETATM   20  O2  UNL     1      34.639  33.956  17.711  1.00  0.00    -0.391 OA
ATOM     21  H2  UNL     1      34.218  33.939  16.860  1.00  0.00     0.210 HD
ENDBRANCH  19  20
BRANCH  19  22
HETATM   22  C10 UNL     1      35.225  35.912  16.601  1.00  0.00     0.011 C 
HETATM   23  C11 UNL     1      33.973  35.445  15.866  1.00  0.00     0.012 C 
HETATM   24  C12 UNL     1      36.436  35.599  15.710  1.00  0.00     0.012 C 
ENDBRANCH  19  22
ENDBRANCH   8  19
TORSDOF 6
ENDMDL
MODEL 3
REMARK VINA RESULT: -7.162442523      2.565      3.192
REMARK  6 active torsions:
REMARK  status: ('A' for Active; 'I' for Inactive)
REMARK    1  A    between atoms: S1_2  and  C2_3 
REMARK    2  A    between atoms: C2_3  and  C3_4 
REMARK       I    between atoms: C3_4  and  N1_6 
REMARK    3  A    between atoms: N1_6  and  C4_8 
REMARK    4  A    between atoms: C8_15  and  C9_16 
REMARK    5  A    between atoms: C9_16  and  O2_17 
REMARK    6  A    between atoms: C9_16  and  C10_19 
ROOT
HETATM    1  C4  UNL     1      33.017  36.220  23.270  1.00  0.00     0.152 A 
HETATM    2  N2  UNL     1      33.504  37.243  22.571  1.00  0.00    -0.334 N 
ATOM      3  H2  UNL     1      33.306  38.204  22.851  1.00  0.00     0.168 HD
HETATM    4  C5  UNL     1      34.245  36.992  21.511  1.00  0.00     0.069 A 
HETATM    5  C6  UNL     1      34.841  37.944  20.655  1.00  0.00     0.039 A 
HETATM    6 BR1  UNL     1      34.637  39.829  20.940  1.00  0.00    -0.049 Br
HETATM    7  C7  UNL     1      35.586  37.522  19.587  1.00  0.00     0.031 A 
HETATM    8  C8  UNL     1      35.820  36.207  19.257  1.00  0.00    -0.027 A 
HETATM    9  C13 UNL     1      35.237  35.265  20.096  1.00  0.00     0.031 A 
HETATM   10  C14 UNL     1      34.466  35.678  21.198  1.00  0.00     0.037 A 
HETATM   11  S2  UNL     1      33.605  34.861  22.432  1.00  0.00    -0.052 SA
ENDROOT
BRANCH   1  12
HETATM   12  N1  UNL     1      32.262  36.278  24.350  1.00  0.00    -0.306 N 
HETATM   13  C3  UNL     1      31.834  37.490  24.899  1.00  0.00     0.232 C 
HETATM   14  O1  UNL     1      31.178  38.341  24.260  1.00  0.00    -0.272 OA
ATOM     15  H1  UNL     1      31.982  35.407  24.801  1.00  0.00     0.171 HD
BRANCH  13  16
HETATM   16  C2  UNL     1      32.159  37.816  26.332  1.00  0.00     0.176 C 
BRANCH  16  17
HETATM   17  S1  UNL     1      33.399  39.117  26.452  1.00  0.00    -0.164 SA
HETATM   18  C1  UNL     1      34.949  38.470  25.731  1.00  0.00     0.090 C 
ENDBRANCH  16  17
ENDBRANCH  13  16
ENDBRANCH   1  12
BRANCH   8  19
HETATM   19  C9  UNL     1      36.604  35.728  18.130  1.00  0.00     0.154 C 
BRANCH  19  20
HETATM   20  O2  UNL     1      35.810  34.959  17.260  1.00  0.00    -0.391 OA
ATOM     21  H2  UNL     1      35.165  35.503  16.823  1.00  0.00     0.210 HD
ENDBRANCH  19  20
BRANCH  19  22
HETATM   22  C10 UNL     1      37.243  36.789  17.284  1.00  0.00     0.011 C 
HETATM   23  C11 UNL     1      37.512  36.256  15.881  1.00  0.00     0.012 C 
HETATM   24  C12 UNL     1      38.598  37.100  17.936  1.00  0.00     0.012 C 
ENDBRANCH  19  22
ENDBRANCH   8  19
TORSDOF 6
ENDMDL
MODEL 4
REMARK VINA RESULT: -7.145699133      1.314      1.611
REMARK  6 active torsions:
REMARK  status: ('A' for Active; 'I' for Inactive)
REMARK    1  A    between atoms: S1_2  and  C2_3 
REMARK    2  A    between atoms: C2_3  and  C3_4 
REMARK       I    between atoms: C3_4  and  N1_6 
REMARK    3  A    between atoms: N1_6  and  C4_8 
REMARK    4  A    between atoms: C8_15  and  C9_16 
REMARK    5  A    between atoms: C9_16  and  O2_17 
REMARK    6  A    between atoms: C9_16  and  C10_19 
ROOT
HETATM    1  C4  UNL     1      35.113  38.349  23.526  1.00  0.00     0.152 A 
HETATM    2  N2  UNL     1      34.521  37.176  23.309  1.00  0.00    -0.334 N 
ATOM      3  H2  UNL     1      33.942  36.746  24.029  1.00  0.00     0.168 HD
HETATM    4  C5  UNL     1      34.699  36.582  22.147  1.00  0.00     0.069 A 
HETATM    5  C6  UNL     1      34.154  35.343  21.741  1.00  0.00     0.039 A 
HETATM    6 BR1  UNL     1      33.024  34.310  22.895  1.00  0.00    -0.049 Br
HETATM    7  C7  UNL     1      34.434  34.856  20.494  1.00  0.00     0.031 A 
HETATM    8  C8  UNL     1      35.226  35.483  19.559  1.00  0.00    -0.027 A 
HETATM    9  C13 UNL     1      35.765  36.703  19.951  1.00  0.00     0.031 A 
HETATM   10  C14 UNL     1      35.490  37.220  21.230  1.00  0.00     0.037 A 
HETATM   11  S2  UNL     1      35.945  38.641  22.071  1.00  0.00    -0.052 SA
ENDROOT
BRANCH   1  12
HETATM   12  N1  UNL     1      35.050  39.084  24.619  1.00  0.00    -0.306 N 
HETATM   13  C3  UNL     1      34.632  38.564  25.848  1.00  0.00     0.232 C 
HETATM   14  O1  UNL     1      35.178  37.587  26.403  1.00  0.00    -0.272 OA
ATOM     15  H1  UNL     1      35.316  40.067  24.566  1.00  0.00     0.171 HD
BRANCH  13  16
HETATM   16  C2  UNL     1      33.468  39.193  26.566  1.00  0.00     0.176 C 
BRANCH  16  17
HETATM   17  S1  UNL     1      32.196  37.980  26.958  1.00  0.00    -0.164 SA
HETATM   18  C1  UNL     1      31.758  37.119  25.407  1.00  0.00     0.090 C 
ENDBRANCH  16  17
ENDBRANCH  13  16
ENDBRANCH   1  12
BRANCH   8  19
HETATM   19  C9  UNL     1      35.543  34.990  18.229  1.00  0.00     0.154 C 
BRANCH  19  20
HETATM   20  O2  UNL     1      34.765  33.860  17.917  1.00  0.00    -0.391 OA
ATOM     21  H2  UNL     1      33.937  34.118  17.528  1.00  0.00     0.210 HD
ENDBRANCH  19  20
BRANCH  19  22
HETATM   22  C10 UNL     1      35.335  35.962  17.107  1.00  0.00     0.011 C 
HETATM   23  C11 UNL     1      34.023  35.668  16.388  1.00  0.00     0.012 C 
HETATM   24  C12 UNL     1      36.479  35.720  16.111  1.00  0.00     0.012 C 
ENDBRANCH  19  22
ENDBRANCH   8  19
TORSDOF 6
ENDMDL
MODEL 5
REMARK VINA RESULT: -7.074260006      2.138      2.667
REMARK  6 active torsions:
REMARK  status: ('A' for Active; 'I' for Inactive)
REMARK    1  A    between atoms: S1_2  and  C2_3 
REMARK    2  A    between atoms: C2_3  and  C3_4 
REMARK       I    between atoms: C3_4  and  N1_6 
REMARK    3  A    between atoms: N1_6  and  C4_8 
REMARK    4  A    between atoms: C8_15  and  C9_16 
REMARK    5  A    between atoms: C9_16  and  O2_17 
REMARK    6  A    between atoms: C9_16  and  C10_19 
ROOT
HETATM    1  C4  UNL     1      34.558  36.939  22.643  1.00  0.00     0.152 A 
HETATM    2  N2  UNL     1      34.571  36.005  21.694  1.00  0.00    -0.334 N 
ATOM      3  H2  UNL     1      34.022  35.153  21.798  1.00  0.00     0.168 HD
HETATM    4  C5  UNL     1      35.307  36.204  20.620  1.00  0.00     0.069 A 
HETATM    5  C6  UNL     1      35.443  35.330  19.518  1.00  0.00     0.039 A 
HETATM    6 BR1  UNL     1      34.524  33.649  19.441  1.00  0.00    -0.049 Br
HETATM    7  C7  UNL     1      36.251  35.681  18.471  1.00  0.00     0.031 A 
HETATM    8  C8  UNL     1      36.971  36.851  18.385  1.00  0.00    -0.027 A 
HETATM    9  C13 UNL     1      36.841  37.715  19.465  1.00  0.00     0.031 A 
HETATM   10  C14 UNL     1      36.016  37.372  20.552  1.00  0.00     0.037 A 
HETATM   11  S2  UNL     1      35.600  38.135  22.028  1.00  0.00    -0.052 SA
ENDROOT
BRANCH   1  12
HETATM   12  N1  UNL     1      33.887  36.914  23.779  1.00  0.00    -0.306 N 
HETATM   13  C3  UNL     1      32.490  36.917  23.823  1.00  0.00     0.232 C 
HETATM   14  O1  UNL     1      31.782  36.057  23.257  1.00  0.00    -0.272 OA
ATOM     15  H1  UNL     1      34.407  36.891  24.656  1.00  0.00     0.171 HD
BRANCH  13  16
HETATM   16  C2  UNL     1      31.771  37.998  24.585  1.00  0.00     0.176 C 
BRANCH  16  17
HETATM   17  S1  UNL     1      32.141  37.927  26.346  1.00  0.00    -0.164 SA
HETATM   18  C1  UNL     1      33.404  39.200  26.696  1.00  0.00     0.090 C 
ENDBRANCH  16  17
ENDBRANCH  13  16
ENDBRANCH   1  12
BRANCH   8  19
HETATM   19  C9  UNL     1      37.838  37.249  17.289  1.00  0.00     0.154 C 
BRANCH  19  20
HETATM   20  O2  UNL     1      39.137  36.739  17.469  1.00  0.00    -0.391 OA
ATOM     21  H2  UNL     1      39.110  35.894  17.903  1.00  0.00     0.210 HD
ENDBRANCH  19  20
BRANCH  19  22
HETATM   22  C10 UNL     1      37.404  36.811  15.922  1.00  0.00     0.011 C 
HETATM   23  C11 UNL     1      37.849  35.376  15.660  1.00  0.00     0.012 C 
HETATM   24  C12 UNL     1      38.141  37.719  14.926  1.00  0.00     0.012 C 
ENDBRANCH  19  22
ENDBRANCH   8  19
TORSDOF 6
ENDMDL
