MODEL 1
REMARK VINA RESULT: -8.707117016      0.000      0.000
REMARK  6 active torsions:
REMARK  status: ('A' for Active; 'I' for Inactive)
REMARK    1  A    between atoms: C5_6  and  O1_7 
REMARK    2  A    between atoms: O1_7  and  S1_8 
REMARK    3  A    between atoms: S1_8  and  C6_11 
REMARK    4  A    between atoms: C15_20  and  C16_22 
REMARK    5  A    between atoms: C16_22  and  O4_23 
REMARK    6  A    between atoms: N2_25  and  O5_27 
ROOT
HETATM    1  C1  UNL     1      33.991  34.547  21.765  1.00  0.00     0.310 C 
HETATM    2  N1  UNL     1      34.261  35.963  21.617  1.00  0.00     0.090 N 
HETATM    3  C2  UNL     1      34.768  36.459  22.885  1.00  0.00     0.284 C 
HETATM    4  C3  UNL     1      35.172  37.894  22.821  1.00  0.00     0.014 C 
HETATM    5  C4  UNL     1      36.651  38.027  23.158  1.00  0.00     0.020 C 
HETATM    6  C5  UNL     1      34.331  38.774  23.730  1.00  0.00     0.152 C 
HETATM    7  C9  UNL     1      33.563  39.728  22.841  1.00  0.00     0.034 C 
HETATM    8  C10 UNL     1      33.543  38.932  21.522  1.00  0.00     0.009 C 
HETATM    9  C11 UNL     1      34.979  38.525  21.463  1.00  0.00     0.008 C 
HETATM   10  C12 UNL     1      35.360  37.636  20.322  1.00  0.00     0.046 C 
HETATM   11  C13 UNL     1      34.657  37.990  19.077  1.00  0.00    -0.020 C 
HETATM   12  C14 UNL     1      34.719  37.183  18.040  1.00  0.00     0.021 C 
HETATM   13  C15 UNL     1      35.523  35.927  18.203  1.00  0.00     0.189 C 
HETATM   14  F1  UNL     1      36.883  36.208  18.354  1.00  0.00    -0.229 F 
HETATM   15  C17 UNL     1      35.032  35.279  19.450  1.00  0.00     0.093 C 
HETATM   16  C18 UNL     1      35.296  36.186  20.621  1.00  0.00     0.234 C 
ENDROOT
BRANCH  13  17
HETATM   17  C16 UNL     1      35.421  35.105  16.984  1.00  0.00     0.180 C 
HETATM   18  N2  UNL     1      35.937  35.329  15.851  1.00  0.00    -0.248 N 
ATOM     19  H2  UNL     1      35.744  34.631  15.133  1.00  0.00     0.196 HD
BRANCH  17  20
HETATM   20  O4  UNL     1      34.656  33.932  17.114  1.00  0.00    -0.345 OA
ATOM     21  H4  UNL     1      34.194  33.662  16.330  1.00  0.00     0.219 HD
ENDBRANCH  17  20
BRANCH  18  22
HETATM   22  O5  UNL     1      36.707  36.365  15.461  1.00  0.00    -0.288 OA
ATOM     23  H5  UNL     1      36.516  37.296  15.489  1.00  0.00     0.244 HD
ENDBRANCH  18  22
ENDBRANCH  13  17
BRANCH   6  24
HETATM   24  O1  UNL     1      33.400  38.006  24.410  1.00  0.00    -0.269 OA
BRANCH  24  25
HETATM   25  S1  UNL     1      33.504  38.132  26.061  1.00  0.00     0.269 S 
HETATM   26  O2  UNL     1      33.147  39.537  26.508  1.00  0.00    -0.198 OA
HETATM   27  O3  UNL     1      34.883  37.747  26.505  1.00  0.00    -0.198 OA
BRANCH  25  28
HETATM   28  C6  UNL     1      32.364  36.987  26.784  1.00  0.00     0.136 A 
HETATM   29  C7  UNL     1      32.866  35.805  27.533  1.00  0.00     0.024 A 
HETATM   30  C8  UNL     1      32.311  35.614  26.159  1.00  0.00     0.024 A 
ENDBRANCH  25  28
ENDBRANCH  24  25
ENDBRANCH   6  24
TORSDOF 6
ENDMDL
MODEL 2
REMARK VINA RESULT: -8.647966072      0.887      1.303
REMARK  6 active torsions:
REMARK  status: ('A' for Active; 'I' for Inactive)
REMARK    1  A    between atoms: C5_6  and  O1_7 
REMARK    2  A    between atoms: O1_7  and  S1_8 
REMARK    3  A    between atoms: S1_8  and  C6_11 
REMARK    4  A    between atoms: C15_20  and  C16_22 
REMARK    5  A    between atoms: C16_22  and  O4_23 
REMARK    6  A    between atoms: N2_25  and  O5_27 
ROOT
HETATM    1  C1  UNL     1      34.608  34.630  21.905  1.00  0.00     0.310 C 
HETATM    2  N1  UNL     1      34.636  36.078  21.840  1.00  0.00     0.090 N 
HETATM    3  C2  UNL     1      34.998  36.580  23.154  1.00  0.00     0.284 C 
HETATM    4  C3  UNL     1      35.151  38.063  23.182  1.00  0.00     0.014 C 
HETATM    5  C4  UNL     1      36.569  38.427  23.597  1.00  0.00     0.020 C 
HETATM    6  C5  UNL     1      34.134  38.735  24.089  1.00  0.00     0.152 C 
HETATM    7  C9  UNL     1      33.250  39.593  23.211  1.00  0.00     0.034 C 
HETATM    8  C10 UNL     1      33.421  38.882  21.855  1.00  0.00     0.009 C 
HETATM    9  C11 UNL     1      34.907  38.729  21.848  1.00  0.00     0.008 C 
HETATM   10  C12 UNL     1      35.482  37.984  20.685  1.00  0.00     0.046 C 
HETATM   11  C13 UNL     1      34.779  38.283  19.426  1.00  0.00    -0.020 C 
HETATM   12  C14 UNL     1      35.022  37.559  18.354  1.00  0.00     0.021 C 
HETATM   13  C15 UNL     1      36.022  36.451  18.495  1.00  0.00     0.189 C 
HETATM   14  F1  UNL     1      37.306  36.949  18.727  1.00  0.00    -0.229 F 
HETATM   15  C17 UNL     1      35.600  35.659  19.683  1.00  0.00     0.093 C 
HETATM   16  C18 UNL     1      35.656  36.530  20.909  1.00  0.00     0.234 C 
ENDROOT
BRANCH  13  17
HETATM   17  C16 UNL     1      36.113  35.693  17.234  1.00  0.00     0.180 C 
HETATM   18  N2  UNL     1      35.221  34.982  16.690  1.00  0.00    -0.248 N 
ATOM     19  H2  UNL     1      35.487  34.537  15.811  1.00  0.00     0.196 HD
BRANCH  17  20
HETATM   20  O4  UNL     1      37.348  35.786  16.567  1.00  0.00    -0.345 OA
ATOM     21  H4  UNL     1      37.338  36.295  15.765  1.00  0.00     0.219 HD
ENDBRANCH  17  20
BRANCH  18  22
HETATM   22  O5  UNL     1      33.965  34.729  17.111  1.00  0.00    -0.288 OA
ATOM     23  H5  UNL     1      33.439  33.947  16.988  1.00  0.00     0.244 HD
ENDBRANCH  18  22
ENDBRANCH  13  17
BRANCH   6  24
HETATM   24  O1  UNL     1      33.323  37.782  24.684  1.00  0.00    -0.269 OA
BRANCH  24  25
HETATM   25  S1  UNL     1      33.063  38.038  26.302  1.00  0.00     0.269 S 
HETATM   26  O2  UNL     1      31.581  38.203  26.581  1.00  0.00    -0.198 OA
HETATM   27  O3  UNL     1      33.844  39.236  26.750  1.00  0.00    -0.198 OA
BRANCH  25  28
HETATM   28  C6  UNL     1      33.668  36.635  27.196  1.00  0.00     0.136 A 
HETATM   29  C7  UNL     1      34.380  35.544  26.482  1.00  0.00     0.024 A 
HETATM   30  C8  UNL     1      32.972  35.323  26.928  1.00  0.00     0.024 A 
ENDBRANCH  25  28
ENDBRANCH  24  25
ENDBRANCH   6  24
TORSDOF 6
ENDMDL
MODEL 3
REMARK VINA RESULT: -8.586740539      1.309      1.571
REMARK  6 active torsions:
REMARK  status: ('A' for Active; 'I' for Inactive)
REMARK    1  A    between atoms: C5_6  and  O1_7 
REMARK    2  A    between atoms: O1_7  and  S1_8 
REMARK    3  A    between atoms: S1_8  and  C6_11 
REMARK    4  A    between atoms: C15_20  and  C16_22 
REMARK    5  A    between atoms: C16_22  and  O4_23 
REMARK    6  A    between atoms: N2_25  and  O5_27 
ROOT
HETATM    1  C1  UNL     1      33.747  34.419  21.779  1.00  0.00     0.310 C 
HETATM    2  N1  UNL     1      34.035  35.840  21.761  1.00  0.00     0.090 N 
HETATM    3  C2  UNL     1      34.446  36.233  23.097  1.00  0.00     0.284 C 
HETATM    4  C3  UNL     1      34.861  37.663  23.175  1.00  0.00     0.014 C 
HETATM    5  C4  UNL     1      36.310  37.755  23.632  1.00  0.00     0.020 C 
HETATM    6  C5  UNL     1      33.957  38.482  24.081  1.00  0.00     0.152 C 
HETATM    7  C9  UNL     1      33.264  39.508  23.212  1.00  0.00     0.034 C 
HETATM    8  C10 UNL     1      33.341  38.816  21.838  1.00  0.00     0.009 C 
HETATM    9  C11 UNL     1      34.776  38.398  21.858  1.00  0.00     0.008 C 
HETATM   10  C12 UNL     1      35.239  37.594  20.684  1.00  0.00     0.046 C 
HETATM   11  C13 UNL     1      34.635  38.049  19.420  1.00  0.00    -0.020 C 
HETATM   12  C14 UNL     1      34.773  37.322  18.332  1.00  0.00     0.021 C 
HETATM   13  C15 UNL     1      35.555  36.049  18.459  1.00  0.00     0.189 C 
HETATM   14  F1  UNL     1      36.901  36.302  18.735  1.00  0.00    -0.229 F 
HETATM   15  C17 UNL     1      34.966  35.314  19.612  1.00  0.00     0.093 C 
HETATM   16  C18 UNL     1      35.144  36.126  20.866  1.00  0.00     0.234 C 
ENDROOT
BRANCH  13  17
HETATM   17  C16 UNL     1      35.543  35.322  17.177  1.00  0.00     0.180 C 
HETATM   18  N2  UNL     1      36.117  35.645  16.097  1.00  0.00    -0.248 N 
ATOM     19  H2  UNL     1      35.982  35.001  15.317  1.00  0.00     0.196 HD
BRANCH  17  20
HETATM   20  O4  UNL     1      34.800  34.128  17.171  1.00  0.00    -0.345 OA
ATOM     21  H4  UNL     1      34.228  34.011  16.422  1.00  0.00     0.219 HD
ENDBRANCH  17  20
BRANCH  18  22
HETATM   22  O5  UNL     1      36.883  36.723  15.834  1.00  0.00    -0.288 OA
ATOM     23  H5  UNL     1      37.827  36.815  15.898  1.00  0.00     0.244 HD
ENDBRANCH  18  22
ENDBRANCH  13  17
BRANCH   6  24
HETATM   24  O1  UNL     1      32.973  37.674  24.627  1.00  0.00    -0.269 OA
BRANCH  24  25
HETATM   25  S1  UNL     1      32.919  37.710  26.285  1.00  0.00     0.269 S 
HETATM   26  O2  UNL     1      33.343  36.371  26.858  1.00  0.00    -0.198 OA
HETATM   27  O3  UNL     1      31.540  38.088  26.733  1.00  0.00    -0.198 OA
BRANCH  25  28
HETATM   28  C6  UNL     1      34.033  38.962  26.855  1.00  0.00     0.136 A 
HETATM   29  C7  UNL     1      35.321  38.582  27.494  1.00  0.00     0.024 A 
HETATM   30  C8  UNL     1      34.201  39.074  28.352  1.00  0.00     0.024 A 
ENDBRANCH  25  28
ENDBRANCH  24  25
ENDBRANCH   6  24
TORSDOF 6
ENDMDL
MODEL 4
REMARK VINA RESULT: -8.557287594      3.131      7.789
REMARK  6 active torsions:
REMARK  status: ('A' for Active; 'I' for Inactive)
REMARK    1  A    between atoms: C5_6  and  O1_7 
REMARK    2  A    between atoms: O1_7  and  S1_8 
REMARK    3  A    between atoms: S1_8  and  C6_11 
REMARK    4  A    between atoms: C15_20  and  C16_22 
REMARK    5  A    between atoms: C16_22  and  O4_23 
REMARK    6  A    between atoms: N2_25  and  O5_27 
ROOT
HETATM    1  C1  UNL     1      34.102  39.652  20.429  1.00  0.00     0.310 C 
HETATM    2  N1  UNL     1      34.593  38.307  20.654  1.00  0.00     0.090 N 
HETATM    3  C2  UNL     1      35.431  37.940  19.526  1.00  0.00     0.284 C 
HETATM    4  C3  UNL     1      36.071  36.603  19.695  1.00  0.00     0.014 C 
HETATM    5  C4  UNL     1      37.585  36.751  19.672  1.00  0.00     0.020 C 
HETATM    6  C5  UNL     1      35.610  35.603  18.648  1.00  0.00     0.152 C 
HETATM    7  C9  UNL     1      34.865  34.506  19.375  1.00  0.00     0.034 C 
HETATM    8  C10 UNL     1      34.429  35.255  20.649  1.00  0.00     0.009 C 
HETATM    9  C11 UNL     1      35.723  35.917  20.995  1.00  0.00     0.008 C 
HETATM   10  C12 UNL     1      35.692  36.836  22.175  1.00  0.00     0.046 C 
HETATM   11  C13 UNL     1      34.826  36.333  23.254  1.00  0.00    -0.020 C 
HETATM   12  C14 UNL     1      34.524  37.115  24.269  1.00  0.00     0.021 C 
HETATM   13  C15 UNL     1      35.099  38.500  24.253  1.00  0.00     0.189 C 
HETATM   14  F1  UNL     1      36.489  38.477  24.390  1.00  0.00    -0.229 F 
HETATM   15  C17 UNL     1      34.763  39.073  22.922  1.00  0.00     0.093 C 
HETATM   16  C18 UNL     1      35.424  38.256  21.845  1.00  0.00     0.234 C 
ENDROOT
BRANCH  13  17
HETATM   17  C16 UNL     1      34.600  39.263  25.412  1.00  0.00     0.180 C 
HETATM   18  N2  UNL     1      33.418  39.658  25.629  1.00  0.00    -0.248 N 
ATOM     19  H2  UNL     1      33.280  40.176  26.497  1.00  0.00     0.196 HD
BRANCH  17  20
HETATM   20  O4  UNL     1      35.566  39.579  26.382  1.00  0.00    -0.345 OA
ATOM     21  H4  UNL     1      35.391  39.243  27.253  1.00  0.00     0.219 HD
ENDBRANCH  17  20
BRANCH  18  22
HETATM   22  O5  UNL     1      32.315  39.490  24.872  1.00  0.00    -0.288 OA
ATOM     23  H5  UNL     1      31.409  39.407  25.147  1.00  0.00     0.244 HD
ENDBRANCH  18  22
ENDBRANCH  13  17
BRANCH   6  24
HETATM   24  O1  UNL     1      34.714  36.202  17.778  1.00  0.00    -0.269 OA
BRANCH  24  25
HETATM   25  S1  UNL     1      34.675  35.508  16.272  1.00  0.00     0.269 S 
HETATM   26  O2  UNL     1      33.384  35.865  15.557  1.00  0.00    -0.198 OA
HETATM   27  O3  UNL     1      34.839  34.024  16.401  1.00  0.00    -0.198 OA
BRANCH  25  28
HETATM   28  C6  UNL     1      36.044  36.124  15.334  1.00  0.00     0.136 A 
HETATM   29  C7  UNL     1      37.432  35.729  15.692  1.00  0.00     0.024 A 
HETATM   30  C8  UNL     1      36.952  37.100  16.043  1.00  0.00     0.024 A 
ENDBRANCH  25  28
ENDBRANCH  24  25
ENDBRANCH   6  24
TORSDOF 6
ENDMDL
MODEL 5
REMARK VINA RESULT: -8.499017937      1.192      1.261
REMARK  6 active torsions:
REMARK  status: ('A' for Active; 'I' for Inactive)
REMARK    1  A    between atoms: C5_6  and  O1_7 
REMARK    2  A    between atoms: O1_7  and  S1_8 
REMARK    3  A    between atoms: S1_8  and  C6_11 
REMARK    4  A    between atoms: C15_20  and  C16_22 
REMARK    5  A    between atoms: C16_22  and  O4_23 
REMARK    6  A    between atoms: N2_25  and  O5_27 
ROOT
HETATM    1  C1  UNL     1      34.775  34.658  21.911  1.00  0.00     0.310 C 
HETATM    2  N1  UNL     1      34.715  36.106  21.947  1.00  0.00     0.090 N 
HETATM    3  C2  UNL     1      34.919  36.531  23.320  1.00  0.00     0.284 C 
HETATM    4  C3  UNL     1      34.973  38.015  23.462  1.00  0.00     0.014 C 
HETATM    5  C4  UNL     1      36.320  38.428  24.038  1.00  0.00     0.020 C 
HETATM    6  C5  UNL     1      33.834  38.558  24.309  1.00  0.00     0.152 C 
HETATM    7  C9  UNL     1      32.983  39.425  23.408  1.00  0.00     0.034 C 
HETATM    8  C10 UNL     1      33.325  38.826  22.031  1.00  0.00     0.009 C 
HETATM    9  C11 UNL     1      34.812  38.761  22.159  1.00  0.00     0.008 C 
HETATM   10  C12 UNL     1      35.540  38.137  21.010  1.00  0.00     0.046 C 
HETATM   11  C13 UNL     1      34.940  38.486  19.711  1.00  0.00    -0.020 C 
HETATM   12  C14 UNL     1      35.328  37.857  18.622  1.00  0.00     0.021 C 
HETATM   13  C15 UNL     1      36.381  36.801  18.786  1.00  0.00     0.189 C 
HETATM   14  F1  UNL     1      37.602  37.355  19.175  1.00  0.00    -0.229 F 
HETATM   15  C17 UNL     1      35.901  35.902  19.870  1.00  0.00     0.093 C 
HETATM   16  C18 UNL     1      35.786  36.683  21.152  1.00  0.00     0.234 C 
ENDROOT
BRANCH  13  17
HETATM   17  C16 UNL     1      36.638  36.145  17.491  1.00  0.00     0.180 C 
HETATM   18  N2  UNL     1      37.615  36.328  16.709  1.00  0.00    -0.248 N 
ATOM     19  H2  UNL     1      37.605  35.770  15.855  1.00  0.00     0.196 HD
BRANCH  17  20
HETATM   20  O4  UNL     1      35.672  35.203  17.094  1.00  0.00    -0.345 OA
ATOM     21  H4  UNL     1      36.009  34.337  16.896  1.00  0.00     0.219 HD
ENDBRANCH  17  20
BRANCH  18  22
HETATM   22  O5  UNL     1      38.667  37.160  16.847  1.00  0.00    -0.288 OA
ATOM     23  H5  UNL     1      39.326  37.401  16.207  1.00  0.00     0.244 HD
ENDBRANCH  18  22
ENDBRANCH  13  17
BRANCH   6  24
HETATM   24  O1  UNL     1      33.035  37.519  24.756  1.00  0.00    -0.269 OA
BRANCH  24  25
HETATM   25  S1  UNL     1      32.875  37.458  26.406  1.00  0.00     0.269 S 
HETATM   26  O2  UNL     1      31.634  38.210  26.847  1.00  0.00    -0.198 OA
HETATM   27  O3  UNL     1      34.111  38.011  27.048  1.00  0.00    -0.198 OA
BRANCH  25  28
HETATM   28  C6  UNL     1      32.728  35.763  26.893  1.00  0.00     0.136 A 
HETATM   29  C7  UNL     1      33.430  34.700  26.126  1.00  0.00     0.024 A 
HETATM   30  C8  UNL     1      31.955  34.865  25.957  1.00  0.00     0.024 A 
ENDBRANCH  25  28
ENDBRANCH  24  25
ENDBRANCH   6  24
TORSDOF 6
ENDMDL
