MODEL 1
REMARK VINA RESULT: -5.175943340      0.000      0.000
REMARK  3 active torsions:
REMARK  status: ('A' for Active; 'I' for Inactive)
REMARK    1  A    between atoms: O1_2  and  C2_3 
REMARK    2  A    between atoms: C2_3  and  C3_5 
REMARK    3  A    between atoms: C3_5  and  C4_6 
ROOT
HETATM    1  C4  UNL     1      33.375   1.042  56.444  1.00  0.00     0.042 C 
HETATM    2  C5  UNL     1      32.796  -0.218  55.914  1.00  0.00    -0.040 C 
HETATM    3  C6  UNL     1      32.776  -1.453  56.680  1.00  0.00     0.015 C 
HETATM    4  C7  UNL     1      31.294   0.137  55.713  1.00  0.00     0.015 C 
HETATM    5  C8  UNL     1      33.190  -0.442  54.433  1.00  0.00     0.017 C 
HETATM    6  C9  UNL     1      34.573  -0.925  54.333  1.00  0.00     0.026 C 
HETATM    7  C10 UNL     1      35.279  -0.827  53.017  1.00  0.00     0.011 C 
HETATM    8  C11 UNL     1      36.504  -0.381  53.841  1.00  0.00     0.044 C 
HETATM    9  C12 UNL     1      35.521   0.144  54.796  1.00  0.00     0.119 C 
HETATM   10  O3  UNL     1      35.128   1.461  54.692  1.00  0.00    -0.227 OA
HETATM   11  O4  UNL     1      35.449   2.063  55.851  1.00  0.00    -0.227 OA
HETATM   12  C13 UNL     1      34.828   1.104  56.719  1.00  0.00     0.117 C 
HETATM   13  C14 UNL     1      35.246   1.470  58.093  1.00  0.00     0.051 C 
HETATM   14  C15 UNL     1      35.703  -0.018  56.261  1.00  0.00     0.158 C 
HETATM   15 CL1  UNL     1      37.396   0.527  56.605  1.00  0.00    -0.118 Cl
ENDROOT
BRANCH   1  16
HETATM   16  C3  UNL     1      32.530   1.843  57.367  1.00  0.00     0.119 C 
BRANCH  16  17
HETATM   17  C2  UNL     1      32.360   3.258  57.187  1.00  0.00     0.258 C 
HETATM   18  O2  UNL     1      32.913   4.247  57.666  1.00  0.00    -0.265 OA
BRANCH  17  19
HETATM   19  O1  UNL     1      31.337   3.610  56.263  1.00  0.00    -0.326 OA
HETATM   20  C1  UNL     1      29.968   3.492  56.587  1.00  0.00     0.213 C 
ENDBRANCH  17  19
ENDBRANCH  16  17
ENDBRANCH   1  16
TORSDOF 3
ENDMDL
MODEL 2
REMARK VINA RESULT: -5.173777694      0.543      1.189
REMARK  3 active torsions:
REMARK  status: ('A' for Active; 'I' for Inactive)
REMARK    1  A    between atoms: O1_2  and  C2_3 
REMARK    2  A    between atoms: C2_3  and  C3_5 
REMARK    3  A    between atoms: C3_5  and  C4_6 
ROOT
HETATM    1  C4  UNL     1      33.382   0.929  56.349  1.00  0.00     0.042 C 
HETATM    2  C5  UNL     1      32.822  -0.368  55.893  1.00  0.00    -0.040 C 
HETATM    3  C6  UNL     1      32.842  -1.563  56.719  1.00  0.00     0.015 C 
HETATM    4  C7  UNL     1      31.310  -0.056  55.700  1.00  0.00     0.015 C 
HETATM    5  C8  UNL     1      33.198  -0.658  54.417  1.00  0.00     0.017 C 
HETATM    6  C9  UNL     1      34.589  -1.117  54.318  1.00  0.00     0.026 C 
HETATM    7  C10 UNL     1      35.271  -1.070  52.987  1.00  0.00     0.011 C 
HETATM    8  C11 UNL     1      36.499  -0.557  53.766  1.00  0.00     0.044 C 
HETATM    9  C12 UNL     1      35.521  -0.006  54.711  1.00  0.00     0.119 C 
HETATM   10  O3  UNL     1      35.098   1.296  54.549  1.00  0.00    -0.227 OA
HETATM   11  O4  UNL     1      35.424   1.962  55.670  1.00  0.00    -0.227 OA
HETATM   12  C13 UNL     1      34.839   1.035  56.596  1.00  0.00     0.117 C 
HETATM   13  C14 UNL     1      35.270   1.477  57.943  1.00  0.00     0.051 C 
HETATM   14  C15 UNL     1      35.729  -0.091  56.179  1.00  0.00     0.158 C 
HETATM   15 CL1  UNL     1      37.415   0.506  56.466  1.00  0.00    -0.118 Cl
ENDROOT
BRANCH   1  16
HETATM   16  C3  UNL     1      32.535   1.757  57.245  1.00  0.00     0.119 C 
BRANCH  16  17
HETATM   17  C2  UNL     1      32.182   3.106  56.904  1.00  0.00     0.258 C 
HETATM   18  O2  UNL     1      31.455   3.602  56.044  1.00  0.00    -0.265 OA
BRANCH  17  19
HETATM   19  O1  UNL     1      32.792   4.095  57.725  1.00  0.00    -0.326 OA
HETATM   20  C1  UNL     1      33.937   4.806  57.307  1.00  0.00     0.213 C 
ENDBRANCH  17  19
ENDBRANCH  16  17
ENDBRANCH   1  16
TORSDOF 3
ENDMDL
MODEL 3
REMARK VINA RESULT: -5.135844788      1.965      3.065
REMARK  3 active torsions:
REMARK  status: ('A' for Active; 'I' for Inactive)
REMARK    1  A    between atoms: O1_2  and  C2_3 
REMARK    2  A    between atoms: C2_3  and  C3_5 
REMARK    3  A    between atoms: C3_5  and  C4_6 
ROOT
HETATM    1  C4  UNL     1      35.191   0.117  54.703  1.00  0.00     0.042 C 
HETATM    2  C5  UNL     1      34.200  -0.791  54.073  1.00  0.00    -0.040 C 
HETATM    3  C6  UNL     1      34.298  -2.238  54.161  1.00  0.00     0.015 C 
HETATM    4  C7  UNL     1      32.877  -0.447  54.818  1.00  0.00     0.015 C 
HETATM    5  C8  UNL     1      33.811  -0.305  52.654  1.00  0.00     0.017 C 
HETATM    6  C9  UNL     1      34.865  -0.633  51.687  1.00  0.00     0.026 C 
HETATM    7  C10 UNL     1      34.885   0.077  50.371  1.00  0.00     0.011 C 
HETATM    8  C11 UNL     1      36.413   0.154  50.568  1.00  0.00     0.044 C 
HETATM    9  C12 UNL     1      36.108   0.150  52.004  1.00  0.00     0.119 C 
HETATM   10  O3  UNL     1      35.976   1.354  52.660  1.00  0.00    -0.227 OA
HETATM   11  O4  UNL     1      36.908   1.381  53.630  1.00  0.00    -0.227 OA
HETATM   12  C13 UNL     1      36.588   0.108  54.210  1.00  0.00     0.117 C 
HETATM   13  C14 UNL     1      37.657  -0.169  55.198  1.00  0.00     0.051 C 
HETATM   14  C15 UNL     1      36.912  -0.649  52.963  1.00  0.00     0.158 C 
HETATM   15 CL1  UNL     1      38.641  -0.248  52.600  1.00  0.00    -0.118 Cl
ENDROOT
BRANCH   1  16
HETATM   16  C3  UNL     1      35.045   0.379  56.158  1.00  0.00     0.119 C 
BRANCH  16  17
HETATM   17  C2  UNL     1      35.097   1.713  56.687  1.00  0.00     0.258 C 
HETATM   18  O2  UNL     1      35.722   2.237  57.608  1.00  0.00    -0.265 OA
BRANCH  17  19
HETATM   19  O1  UNL     1      34.254   2.641  56.015  1.00  0.00    -0.326 OA
HETATM   20  C1  UNL     1      33.454   3.566  56.720  1.00  0.00     0.213 C 
ENDBRANCH  17  19
ENDBRANCH  16  17
ENDBRANCH   1  16
TORSDOF 3
ENDMDL
MODEL 4
REMARK VINA RESULT: -5.055452077      2.630      4.485
REMARK  3 active torsions:
REMARK  status: ('A' for Active; 'I' for Inactive)
REMARK    1  A    between atoms: O1_2  and  C2_3 
REMARK    2  A    between atoms: C2_3  and  C3_5 
REMARK    3  A    between atoms: C3_5  and  C4_6 
ROOT
HETATM    1  C4  UNL     1      33.347  -0.178  57.009  1.00  0.00     0.042 C 
HETATM    2  C5  UNL     1      32.513  -0.133  55.782  1.00  0.00    -0.040 C 
HETATM    3  C6  UNL     1      33.083  -0.003  54.452  1.00  0.00     0.015 C 
HETATM    4  C7  UNL     1      31.817  -1.525  55.772  1.00  0.00     0.015 C 
HETATM    5  C8  UNL     1      31.261   0.759  55.984  1.00  0.00     0.017 C 
HETATM    6  C9  UNL     1      31.621   2.181  55.905  1.00  0.00     0.026 C 
HETATM    7  C10 UNL     1      30.671   3.197  56.455  1.00  0.00     0.011 C 
HETATM    8  C11 UNL     1      31.927   3.893  57.019  1.00  0.00     0.044 C 
HETATM    9  C12 UNL     1      32.509   2.546  57.061  1.00  0.00     0.119 C 
HETATM   10  O3  UNL     1      32.409   1.813  58.223  1.00  0.00    -0.227 OA
HETATM   11  O4  UNL     1      33.662   1.544  58.631  1.00  0.00    -0.227 OA
HETATM   12  C13 UNL     1      34.137   1.016  57.385  1.00  0.00     0.117 C 
HETATM   13  C14 UNL     1      35.600   0.840  57.549  1.00  0.00     0.051 C 
HETATM   14  C15 UNL     1      33.913   2.297  56.647  1.00  0.00     0.158 C 
HETATM   15 CL1  UNL     1      34.905   3.532  57.525  1.00  0.00    -0.118 Cl
ENDROOT
BRANCH   1  16
HETATM   16  C3  UNL     1      33.979  -1.478  57.353  1.00  0.00     0.119 C 
BRANCH  16  17
HETATM   17  C2  UNL     1      33.776  -2.092  58.636  1.00  0.00     0.258 C 
HETATM   18  O2  UNL     1      34.427  -2.892  59.306  1.00  0.00    -0.265 OA
BRANCH  17  19
HETATM   19  O1  UNL     1      32.571  -1.704  59.285  1.00  0.00    -0.326 OA
HETATM   20  C1  UNL     1      32.564  -1.201  60.603  1.00  0.00     0.213 C 
ENDBRANCH  17  19
ENDBRANCH  16  17
ENDBRANCH   1  16
TORSDOF 3
ENDMDL
MODEL 5
REMARK VINA RESULT: -5.050916156      1.705      2.403
REMARK  3 active torsions:
REMARK  status: ('A' for Active; 'I' for Inactive)
REMARK    1  A    between atoms: O1_2  and  C2_3 
REMARK    2  A    between atoms: C2_3  and  C3_5 
REMARK    3  A    between atoms: C3_5  and  C4_6 
ROOT
HETATM    1  C4  UNL     1      34.935   0.382  55.531  1.00  0.00     0.042 C 
HETATM    2  C5  UNL     1      33.915  -0.662  55.258  1.00  0.00    -0.040 C 
HETATM    3  C6  UNL     1      34.112  -2.058  55.608  1.00  0.00     0.015 C 
HETATM    4  C7  UNL     1      32.704  -0.212  56.125  1.00  0.00     0.015 C 
HETATM    5  C8  UNL     1      33.286  -0.482  53.853  1.00  0.00     0.017 C 
HETATM    6  C9  UNL     1      34.198  -0.969  52.811  1.00  0.00     0.026 C 
HETATM    7  C10 UNL     1      33.974  -0.537  51.396  1.00  0.00     0.011 C 
HETATM    8  C11 UNL     1      35.507  -0.379  51.325  1.00  0.00     0.044 C 
HETATM    9  C12 UNL     1      35.425  -0.103  52.765  1.00  0.00     0.119 C 
HETATM   10  O3  UNL     1      35.324   1.205  53.187  1.00  0.00    -0.227 OA
HETATM   11  O4  UNL     1      36.389   1.452  53.970  1.00  0.00    -0.227 OA
HETATM   12  C13 UNL     1      36.237   0.314  54.830  1.00  0.00     0.117 C 
HETATM   13  C14 UNL     1      37.460   0.272  55.667  1.00  0.00     0.051 C 
HETATM   14  C15 UNL     1      36.413  -0.669  53.718  1.00  0.00     0.158 C 
HETATM   15 CL1  UNL     1      38.039  -0.301  53.010  1.00  0.00    -0.118 Cl
ENDROOT
BRANCH   1  16
HETATM   16  C3  UNL     1      34.997   0.927  56.911  1.00  0.00     0.119 C 
BRANCH  16  17
HETATM   17  C2  UNL     1      34.898   2.338  57.164  1.00  0.00     0.258 C 
HETATM   18  O2  UNL     1      35.369   3.081  58.024  1.00  0.00    -0.265 OA
BRANCH  17  19
HETATM   19  O1  UNL     1      34.087   3.042  56.232  1.00  0.00    -0.326 OA
HETATM   20  C1  UNL     1      32.920   3.728  56.629  1.00  0.00     0.213 C 
ENDBRANCH  17  19
ENDBRANCH  16  17
ENDBRANCH   1  16
TORSDOF 3
ENDMDL
