MODEL 1
REMARK VINA RESULT: -9.087858636      0.000      0.000
REMARK  5 active torsions:
REMARK  status: ('A' for Active; 'I' for Inactive)
REMARK    1  A    between atoms: C2_2  and  C3_3 
REMARK    2  A    between atoms: C9_9  and  N1_10 
REMARK    3  A    between atoms: C10_12  and  C11_13 
REMARK       I    between atoms: C11_13  and  N2_15 
REMARK    4  A    between atoms: C16_20  and  C17_21 
REMARK    5  A    between atoms: C21_30  and  N4_31 
ROOT
HETATM    1  N1  UNL     1      31.995  34.236  23.681  1.00  0.00    -0.390 N 
ATOM      2  H1  UNL     1      31.136  34.035  23.169  1.00  0.00     0.159 HD
HETATM    3  C10 UNL     1      32.748  33.156  24.007  1.00  0.00     0.158 C 
ENDROOT
BRANCH   1   4
HETATM    4  C9  UNL     1      32.230  35.564  23.946  1.00  0.00     0.083 C 
HETATM    5  C8  UNL     1      31.127  36.537  24.095  1.00  0.00     0.026 C 
HETATM    6  C7  UNL     1      31.325  37.549  25.208  1.00  0.00     0.009 C 
HETATM    7  C6  UNL     1      32.680  38.100  25.327  1.00  0.00     0.025 C 
HETATM    8  C5  UNL     1      32.913  38.471  26.802  1.00  0.00     0.016 C 
HETATM    9  C21 UNL     1      33.795  37.145  24.983  1.00  0.00     0.166 C 
HETATM   10  C3  UNL     1      34.273  38.000  27.180  1.00  0.00    -0.042 C 
HETATM   11  C4  UNL     1      34.190  37.029  28.329  1.00  0.00     0.015 C 
HETATM   12  C26 UNL     1      34.892  37.333  25.969  1.00  0.00     0.051 C 
HETATM   13  C20 UNL     1      33.193  35.760  25.139  1.00  0.00     0.067 C 
BRANCH  10  14
HETATM   14  C2  UNL     1      35.142  39.188  27.563  1.00  0.00     0.005 C 
HETATM   15  C1  UNL     1      36.009  39.641  26.442  1.00  0.00     0.006 C 
ENDBRANCH  10  14
BRANCH   9  16
HETATM   16  N4  UNL     1      34.229  37.255  23.638  1.00  0.00     0.098 N 
HETATM   17  C22 UNL     1      34.268  38.603  23.120  1.00  0.00     0.273 C 
HETATM   18  C23 UNL     1      34.906  38.324  21.746  1.00  0.00     0.032 C 
HETATM   19  C24 UNL     1      35.759  37.105  21.977  1.00  0.00     0.032 C 
HETATM   20  C25 UNL     1      35.588  36.768  23.449  1.00  0.00     0.273 C 
ENDBRANCH   9  16
ENDBRANCH   1   4
BRANCH   3  21
HETATM   21  C11 UNL     1      34.069  32.881  23.495  1.00  0.00     0.259 C 
HETATM   22  O1  UNL     1      35.103  32.898  24.200  1.00  0.00    -0.267 OA
HETATM   23  N2  UNL     1      34.215  32.592  22.131  1.00  0.00    -0.338 N 
HETATM   24  C12 UNL     1      33.186  32.566  21.075  1.00  0.00     0.167 C 
HETATM   25  C19 UNL     1      35.417  32.313  21.323  1.00  0.00     0.184 C 
HETATM   26  C13 UNL     1      33.857  33.591  20.191  1.00  0.00    -0.016 A 
HETATM   27  C14 UNL     1      33.455  34.575  19.360  1.00  0.00     0.013 A 
HETATM   28  C18 UNL     1      35.249  33.441  20.346  1.00  0.00     0.035 A 
HETATM   29  C15 UNL     1      34.374  35.391  18.704  1.00  0.00     0.035 A 
HETATM   30  C16 UNL     1      35.735  35.218  18.882  1.00  0.00     0.117 A 
HETATM   31  N3  UNL     1      36.108  34.225  19.714  1.00  0.00    -0.354 N 
ATOM     32  H3  UNL     1      37.104  34.069  19.864  1.00  0.00     0.166 HD
BRANCH  30  33
HETATM   33  C17 UNL     1      36.723  36.110  18.194  1.00  0.00     0.432 C 
HETATM   34  F1  UNL     1      37.706  36.420  19.082  1.00  0.00    -0.165 F 
HETATM   35  F2  UNL     1      37.165  35.579  17.004  1.00  0.00    -0.165 F 
HETATM   36  F3  UNL     1      36.031  37.302  17.906  1.00  0.00    -0.165 F 
ENDBRANCH  30  33
ENDBRANCH   3  21
TORSDOF 5
ENDMDL
MODEL 2
REMARK VINA RESULT: -8.948077826      2.368      5.648
REMARK  5 active torsions:
REMARK  status: ('A' for Active; 'I' for Inactive)
REMARK    1  A    between atoms: C2_2  and  C3_3 
REMARK    2  A    between atoms: C9_9  and  N1_10 
REMARK    3  A    between atoms: C10_12  and  C11_13 
REMARK       I    between atoms: C11_13  and  N2_15 
REMARK    4  A    between atoms: C16_20  and  C17_21 
REMARK    5  A    between atoms: C21_30  and  N4_31 
ROOT
HETATM    1  N1  UNL     1      34.229  37.451  25.536  1.00  0.00    -0.390 N 
ATOM      2  H1  UNL     1      35.159  37.162  25.841  1.00  0.00     0.159 HD
HETATM    3  C10 UNL     1      34.045  38.789  25.411  1.00  0.00     0.158 C 
ENDROOT
BRANCH   1   4
HETATM    4  C9  UNL     1      33.335  36.432  25.311  1.00  0.00     0.083 C 
HETATM    5  C8  UNL     1      31.898  36.691  25.082  1.00  0.00     0.026 C 
HETATM    6  C7  UNL     1      31.266  35.830  24.004  1.00  0.00     0.009 C 
HETATM    7  C6  UNL     1      31.666  34.418  24.008  1.00  0.00     0.025 C 
HETATM    8  C5  UNL     1      31.577  33.896  22.563  1.00  0.00     0.016 C 
HETATM    9  C21 UNL     1      33.089  34.154  24.432  1.00  0.00     0.166 C 
HETATM   10  C3  UNL     1      32.797  33.088  22.296  1.00  0.00    -0.042 C 
HETATM   11  C4  UNL     1      33.560  33.662  21.131  1.00  0.00     0.015 C 
HETATM   12  C26 UNL     1      33.653  33.102  23.546  1.00  0.00     0.051 C 
HETATM   13  C20 UNL     1      33.820  35.465  24.207  1.00  0.00     0.067 C 
BRANCH  10  14
HETATM   14  C2  UNL     1      32.407  31.647  22.004  1.00  0.00     0.005 C 
HETATM   15  C1  UNL     1      31.338  31.153  22.914  1.00  0.00     0.006 C 
ENDBRANCH  10  14
BRANCH   9  16
HETATM   16  N4  UNL     1      33.213  33.846  25.810  1.00  0.00     0.098 N 
HETATM   17  C22 UNL     1      32.087  33.141  26.379  1.00  0.00     0.273 C 
HETATM   18  C23 UNL     1      32.649  32.872  27.788  1.00  0.00     0.032 C 
HETATM   19  C24 UNL     1      34.137  32.782  27.581  1.00  0.00     0.032 C 
HETATM   20  C25 UNL     1      34.347  32.977  26.088  1.00  0.00     0.273 C 
ENDBRANCH   9  16
ENDBRANCH   1   4
BRANCH   3  21
HETATM   21  C11 UNL     1      33.787  39.477  24.168  1.00  0.00     0.259 C 
HETATM   22  O1  UNL     1      32.710  40.060  23.910  1.00  0.00    -0.267 OA
HETATM   23  N2  UNL     1      34.785  39.487  23.184  1.00  0.00    -0.338 N 
HETATM   24  C12 UNL     1      36.108  38.835  23.201  1.00  0.00     0.167 C 
HETATM   25  C19 UNL     1      34.801  40.061  21.825  1.00  0.00     0.184 C 
HETATM   26  C13 UNL     1      35.888  38.023  21.945  1.00  0.00    -0.016 A 
HETATM   27  C14 UNL     1      36.249  36.803  21.497  1.00  0.00     0.013 A 
HETATM   28  C18 UNL     1      35.068  38.782  21.087  1.00  0.00     0.035 A 
HETATM   29  C15 UNL     1      35.824  36.331  20.258  1.00  0.00     0.035 A 
HETATM   30  C16 UNL     1      35.017  37.101  19.440  1.00  0.00     0.117 A 
HETATM   31  N3  UNL     1      34.676  38.318  19.911  1.00  0.00    -0.354 N 
ATOM     32  H3  UNL     1      34.083  38.912  19.331  1.00  0.00     0.166 HD
BRANCH  30  33
HETATM   33  C17 UNL     1      34.543  36.585  18.116  1.00  0.00     0.432 C 
HETATM   34  F1  UNL     1      33.393  37.236  17.792  1.00  0.00    -0.165 F 
HETATM   35  F2  UNL     1      35.525  36.634  17.154  1.00  0.00    -0.165 F 
HETATM   36  F3  UNL     1      34.210  35.233  18.326  1.00  0.00    -0.165 F 
ENDBRANCH  30  33
ENDBRANCH   3  21
TORSDOF 5
ENDMDL
MODEL 3
REMARK VINA RESULT: -8.858542509      4.348      8.165
REMARK  5 active torsions:
REMARK  status: ('A' for Active; 'I' for Inactive)
REMARK    1  A    between atoms: C2_2  and  C3_3 
REMARK    2  A    between atoms: C9_9  and  N1_10 
REMARK    3  A    between atoms: C10_12  and  C11_13 
REMARK       I    between atoms: C11_13  and  N2_15 
REMARK    4  A    between atoms: C16_20  and  C17_21 
REMARK    5  A    between atoms: C21_30  and  N4_31 
ROOT
HETATM    1  N1  UNL     1      36.073  37.805  22.443  1.00  0.00    -0.390 N 
ATOM      2  H1  UNL     1      36.886  38.414  22.346  1.00  0.00     0.159 HD
HETATM    3  C10 UNL     1      35.714  37.505  23.716  1.00  0.00     0.158 C 
ENDROOT
BRANCH   1   4
HETATM    4  C9  UNL     1      35.492  37.401  21.264  1.00  0.00     0.083 C 
HETATM    5  C8  UNL     1      34.493  38.234  20.562  1.00  0.00     0.026 C 
HETATM    6  C7  UNL     1      34.640  38.257  19.052  1.00  0.00     0.009 C 
HETATM    7  C6  UNL     1      34.943  36.964  18.428  1.00  0.00     0.025 C 
HETATM    8  C5  UNL     1      35.746  37.234  17.143  1.00  0.00     0.016 C 
HETATM    9  C21 UNL     1      35.812  36.043  19.246  1.00  0.00     0.166 C 
HETATM   10  C3  UNL     1      36.870  36.261  17.098  1.00  0.00    -0.042 C 
HETATM   11  C4  UNL     1      38.190  36.986  17.051  1.00  0.00     0.015 C 
HETATM   12  C26 UNL     1      36.789  35.391  18.335  1.00  0.00     0.051 C 
HETATM   13  C20 UNL     1      36.540  36.948  20.223  1.00  0.00     0.067 C 
BRANCH  10  14
HETATM   14  C2  UNL     1      36.726  35.364  15.877  1.00  0.00     0.005 C 
HETATM   15  C1  UNL     1      35.302  35.116  15.521  1.00  0.00     0.006 C 
ENDBRANCH  10  14
BRANCH   9  16
HETATM   16  N4  UNL     1      35.068  35.116  20.020  1.00  0.00     0.098 N 
HETATM   17  C22 UNL     1      33.863  34.627  19.392  1.00  0.00     0.273 C 
HETATM   18  C23 UNL     1      33.443  33.580  20.440  1.00  0.00     0.032 C 
HETATM   19  C24 UNL     1      34.743  33.128  21.051  1.00  0.00     0.032 C 
HETATM   20  C25 UNL     1      35.822  33.907  20.319  1.00  0.00     0.273 C 
ENDBRANCH   9  16
ENDBRANCH   1   4
BRANCH   3  21
HETATM   21  C11 UNL     1      34.481  37.910  24.346  1.00  0.00     0.259 C 
HETATM   22  O1  UNL     1      34.343  38.986  24.970  1.00  0.00    -0.267 OA
HETATM   23  N2  UNL     1      33.374  37.053  24.273  1.00  0.00    -0.338 N 
HETATM   24  C12 UNL     1      33.280  35.714  23.661  1.00  0.00     0.167 C 
HETATM   25  C19 UNL     1      32.018  37.170  24.840  1.00  0.00     0.184 C 
HETATM   26  C13 UNL     1      32.833  35.008  24.920  1.00  0.00    -0.016 A 
HETATM   27  C14 UNL     1      33.024  33.794  25.477  1.00  0.00     0.013 A 
HETATM   28  C18 UNL     1      32.051  35.915  25.662  1.00  0.00     0.035 A 
HETATM   29  C15 UNL     1      32.477  33.471  26.716  1.00  0.00     0.035 A 
HETATM   30  C16 UNL     1      31.715  34.386  27.420  1.00  0.00     0.117 A 
HETATM   31  N3  UNL     1      31.537  35.589  26.837  1.00  0.00    -0.354 N 
ATOM     32  H3  UNL     1      30.978  36.286  27.328  1.00  0.00     0.166 HD
BRANCH  30  33
HETATM   33  C17 UNL     1      31.144  34.047  28.763  1.00  0.00     0.432 C 
HETATM   34  F1  UNL     1      31.950  33.119  29.346  1.00  0.00    -0.165 F 
HETATM   35  F2  UNL     1      30.904  35.166  29.526  1.00  0.00    -0.165 F 
HETATM   36  F3  UNL     1      29.908  33.423  28.509  1.00  0.00    -0.165 F 
ENDBRANCH  30  33
ENDBRANCH   3  21
TORSDOF 5
ENDMDL
MODEL 4
REMARK VINA RESULT: -8.675850553      2.376      5.285
REMARK  5 active torsions:
REMARK  status: ('A' for Active; 'I' for Inactive)
REMARK    1  A    between atoms: C2_2  and  C3_3 
REMARK    2  A    between atoms: C9_9  and  N1_10 
REMARK    3  A    between atoms: C10_12  and  C11_13 
REMARK       I    between atoms: C11_13  and  N2_15 
REMARK    4  A    between atoms: C16_20  and  C17_21 
REMARK    5  A    between atoms: C21_30  and  N4_31 
ROOT
HETATM    1  N1  UNL     1      35.446  36.578  24.252  1.00  0.00    -0.390 N 
ATOM      2  H1  UNL     1      36.442  36.760  24.375  1.00  0.00     0.159 HD
HETATM    3  C10 UNL     1      34.646  37.674  24.251  1.00  0.00     0.158 C 
ENDROOT
BRANCH   1   4
HETATM    4  C9  UNL     1      35.098  35.255  24.109  1.00  0.00     0.083 C 
HETATM    5  C8  UNL     1      35.774  34.185  24.872  1.00  0.00     0.026 C 
HETATM    6  C7  UNL     1      34.850  33.098  25.387  1.00  0.00     0.009 C 
HETATM    7  C6  UNL     1      33.813  32.653  24.448  1.00  0.00     0.025 C 
HETATM    8  C5  UNL     1      32.603  32.173  25.269  1.00  0.00     0.016 C 
HETATM    9  C21 UNL     1      33.267  33.725  23.539  1.00  0.00     0.166 C 
HETATM   10  C3  UNL     1      31.376  32.720  24.632  1.00  0.00    -0.042 C 
HETATM   11  C4  UNL     1      30.614  33.575  25.611  1.00  0.00     0.015 C 
HETATM   12  C26 UNL     1      31.796  33.541  23.431  1.00  0.00     0.051 C 
HETATM   13  C20 UNL     1      33.574  35.035  24.241  1.00  0.00     0.067 C 
BRANCH  10  14
HETATM   14  C2  UNL     1      30.497  31.579  24.142  1.00  0.00     0.005 C 
HETATM   15  C1  UNL     1      30.915  31.075  22.806  1.00  0.00     0.006 C 
ENDBRANCH  10  14
BRANCH   9  16
HETATM   16  N4  UNL     1      33.916  33.772  22.279  1.00  0.00     0.098 N 
HETATM   17  C22 UNL     1      34.642  32.574  21.924  1.00  0.00     0.273 C 
HETATM   18  C23 UNL     1      35.057  32.950  20.489  1.00  0.00     0.032 C 
HETATM   19  C24 UNL     1      33.963  33.871  20.018  1.00  0.00     0.032 C 
HETATM   20  C25 UNL     1      32.983  33.955  21.177  1.00  0.00     0.273 C 
ENDBRANCH   9  16
ENDBRANCH   1   4
BRANCH   3  21
HETATM   21  C11 UNL     1      33.881  38.140  23.121  1.00  0.00     0.259 C 
HETATM   22  O1  UNL     1      32.630  38.130  23.079  1.00  0.00    -0.267 OA
HETATM   23  N2  UNL     1      34.566  38.622  21.996  1.00  0.00    -0.338 N 
HETATM   24  C12 UNL     1      36.020  38.688  21.757  1.00  0.00     0.167 C 
HETATM   25  C19 UNL     1      34.071  39.120  20.699  1.00  0.00     0.184 C 
HETATM   26  C13 UNL     1      35.999  37.860  20.493  1.00  0.00    -0.016 A 
HETATM   27  C14 UNL     1      36.813  36.961  19.903  1.00  0.00     0.013 A 
HETATM   28  C18 UNL     1      34.782  38.122  19.833  1.00  0.00     0.035 A 
HETATM   29  C15 UNL     1      36.457  36.332  18.713  1.00  0.00     0.035 A 
HETATM   30  C16 UNL     1      35.253  36.610  18.092  1.00  0.00     0.117 A 
HETATM   31  N3  UNL     1      34.461  37.516  18.701  1.00  0.00    -0.354 N 
ATOM     32  H3  UNL     1      33.567  37.746  18.268  1.00  0.00     0.166 HD
BRANCH  30  33
HETATM   33  C17 UNL     1      34.860  35.918  16.822  1.00  0.00     0.432 C 
HETATM   34  F1  UNL     1      33.507  35.991  16.699  1.00  0.00    -0.165 F 
HETATM   35  F2  UNL     1      35.566  36.379  15.735  1.00  0.00    -0.165 F 
HETATM   36  F3  UNL     1      35.188  34.561  17.007  1.00  0.00    -0.165 F 
ENDBRANCH  30  33
ENDBRANCH   3  21
TORSDOF 5
ENDMDL
MODEL 5
REMARK VINA RESULT: -8.654237344      1.797      2.760
REMARK  5 active torsions:
REMARK  status: ('A' for Active; 'I' for Inactive)
REMARK    1  A    between atoms: C2_2  and  C3_3 
REMARK    2  A    between atoms: C9_9  and  N1_10 
REMARK    3  A    between atoms: C10_12  and  C11_13 
REMARK       I    between atoms: C11_13  and  N2_15 
REMARK    4  A    between atoms: C16_20  and  C17_21 
REMARK    5  A    between atoms: C21_30  and  N4_31 
ROOT
HETATM    1  N1  UNL     1      34.343  32.905  22.998  1.00  0.00    -0.390 N 
ATOM      2  H1  UNL     1      34.267  32.040  23.535  1.00  0.00     0.159 HD
HETATM    3  C10 UNL     1      35.114  32.836  21.885  1.00  0.00     0.158 C 
ENDROOT
BRANCH   1   4
HETATM    4  C9  UNL     1      33.649  33.979  23.503  1.00  0.00     0.083 C 
HETATM    5  C8  UNL     1      32.181  34.093  23.367  1.00  0.00     0.026 C 
HETATM    6  C7  UNL     1      31.473  34.626  24.598  1.00  0.00     0.009 C 
HETATM    7  C6  UNL     1      32.139  35.745  25.275  1.00  0.00     0.025 C 
HETATM    8  C5  UNL     1      31.775  35.681  26.769  1.00  0.00     0.016 C 
HETATM    9  C21 UNL     1      33.646  35.714  25.238  1.00  0.00     0.166 C 
HETATM   10  C3  UNL     1      33.017  35.924  27.550  1.00  0.00    -0.042 C 
HETATM   11  C4  UNL     1      33.307  34.752  28.451  1.00  0.00     0.015 C 
HETATM   12  C26 UNL     1      34.155  36.132  26.571  1.00  0.00     0.051 C 
HETATM   13  C20 UNL     1      34.007  34.262  24.980  1.00  0.00     0.067 C 
BRANCH  10  14
HETATM   14  C2  UNL     1      32.866  37.192  28.377  1.00  0.00     0.005 C 
HETATM   15  C1  UNL     1      33.040  38.425  27.561  1.00  0.00     0.006 C 
ENDBRANCH  10  14
BRANCH   9  16
HETATM   16  N4  UNL     1      34.195  36.470  24.171  1.00  0.00     0.098 N 
HETATM   17  C22 UNL     1      33.459  37.667  23.833  1.00  0.00     0.273 C 
HETATM   18  C23 UNL     1      34.416  38.257  22.780  1.00  0.00     0.032 C 
HETATM   19  C24 UNL     1      35.776  37.766  23.200  1.00  0.00     0.032 C 
HETATM   20  C25 UNL     1      35.537  36.953  24.462  1.00  0.00     0.273 C 
ENDBRANCH   9  16
ENDBRANCH   1   4
BRANCH   3  21
HETATM   21  C11 UNL     1      34.633  32.983  20.533  1.00  0.00     0.259 C 
HETATM   22  O1  UNL     1      34.365  32.018  19.783  1.00  0.00    -0.267 OA
HETATM   23  N2  UNL     1      34.463  34.275  20.016  1.00  0.00    -0.338 N 
HETATM   24  C12 UNL     1      34.758  35.573  20.653  1.00  0.00     0.167 C 
HETATM   25  C19 UNL     1      34.033  34.738  18.682  1.00  0.00     0.184 C 
HETATM   26  C13 UNL     1      35.712  36.049  19.582  1.00  0.00    -0.016 A 
HETATM   27  C14 UNL     1      36.838  36.790  19.539  1.00  0.00     0.013 A 
HETATM   28  C18 UNL     1      35.267  35.525  18.352  1.00  0.00     0.035 A 
HETATM   29  C15 UNL     1      37.515  37.013  18.342  1.00  0.00     0.035 A 
HETATM   30  C16 UNL     1      37.052  36.481  17.152  1.00  0.00     0.117 A 
HETATM   31  N3  UNL     1      35.922  35.749  17.224  1.00  0.00    -0.354 N 
ATOM     32  H3  UNL     1      35.553  35.345  16.364  1.00  0.00     0.166 HD
BRANCH  30  33
HETATM   33  C17 UNL     1      37.792  36.702  15.868  1.00  0.00     0.432 C 
HETATM   34  F1  UNL     1      38.885  37.467  16.132  1.00  0.00    -0.165 F 
HETATM   35  F2  UNL     1      38.055  35.524  15.208  1.00  0.00    -0.165 F 
HETATM   36  F3  UNL     1      36.934  37.470  15.057  1.00  0.00    -0.165 F 
ENDBRANCH  30  33
ENDBRANCH   3  21
TORSDOF 5
ENDMDL
