MODEL 1
REMARK VINA RESULT: -8.462016651      0.000      0.000
REMARK  6 active torsions:
REMARK  status: ('A' for Active; 'I' for Inactive)
REMARK    1  A    between atoms: C4_4  and  O1_5 
REMARK    2  A    between atoms: N1_19  and  C17_20 
REMARK    3  A    between atoms: C19_23  and  C20_24 
REMARK    4  A    between atoms: C21_25  and  S1_26 
REMARK    5  A    between atoms: S1_26  and  C22_29 
REMARK    6  A    between atoms: C22_29  and  C23_30 
ROOT
HETATM    1  C1  UNL     1      34.946  31.917  20.818  1.00  0.00     0.011 C 
HETATM    2  C2  UNL     1      33.984  33.032  20.694  1.00  0.00    -0.008 C 
HETATM    3  C3  UNL     1      33.287  33.471  21.926  1.00  0.00     0.043 C 
HETATM    4  C4  UNL     1      34.319  33.952  22.916  1.00  0.00     0.066 C 
HETATM    5  C5  UNL     1      35.193  35.024  22.407  1.00  0.00     0.021 C 
HETATM    6  C6  UNL     1      34.812  36.412  22.884  1.00  0.00     0.008 C 
HETATM    7  C7  UNL     1      33.405  36.612  23.257  1.00  0.00     0.006 C 
HETATM    8  C8  UNL     1      32.744  35.488  23.990  1.00  0.00    -0.001 C 
HETATM    9  C9  UNL     1      33.608  34.293  24.189  1.00  0.00     0.025 C 
HETATM   10  C10 UNL     1      34.511  34.345  25.369  1.00  0.00     0.010 C 
HETATM   11  C11 UNL     1      34.336  35.485  26.291  1.00  0.00     0.031 C 
HETATM   12  C12 UNL     1      32.964  36.021  26.446  1.00  0.00     0.035 C 
HETATM   13  C13 UNL     1      32.320  35.379  27.684  1.00  0.00     0.039 C 
HETATM   14  C14 UNL     1      32.071  35.884  25.275  1.00  0.00     0.019 C 
HETATM   15  C15 UNL     1      31.251  37.133  25.150  1.00  0.00     0.027 C 
HETATM   16  C16 UNL     1      31.691  37.958  26.322  1.00  0.00     0.126 C 
HETATM   17  N1  UNL     1      32.986  37.447  26.702  1.00  0.00    -0.350 N 
HETATM   18  C18 UNL     1      35.513  35.000  20.935  1.00  0.00     0.016 C 
HETATM   19  C19 UNL     1      34.590  34.300  20.040  1.00  0.00     0.013 C 
ENDROOT
BRANCH  19  20
HETATM   20  C20 UNL     1      34.991  33.883  18.712  1.00  0.00    -0.010 C 
HETATM   21  C21 UNL     1      34.449  34.248  17.424  1.00  0.00     0.105 C 
BRANCH  21  22
HETATM   22  S1  UNL     1      34.511  35.879  16.812  1.00  0.00     0.173 S 
HETATM   23  O3  UNL     1      34.164  36.025  15.352  1.00  0.00    -0.223 OA
HETATM   24  O4  UNL     1      33.642  36.828  17.633  1.00  0.00    -0.223 OA
BRANCH  22  25
HETATM   25  C22 UNL     1      36.164  36.570  16.929  1.00  0.00     0.262 C 
BRANCH  25  26
HETATM   26  C23 UNL     1      37.121  36.065  15.925  1.00  0.00     0.400 C 
HETATM   27  F1  UNL     1      37.097  36.954  14.831  1.00  0.00    -0.170 F 
HETATM   28  F2  UNL     1      38.423  36.230  16.423  1.00  0.00    -0.170 F 
HETATM   29  F3  UNL     1      36.888  34.814  15.466  1.00  0.00    -0.170 F 
ENDBRANCH  25  26
ENDBRANCH  22  25
ENDBRANCH  21  22
ENDBRANCH  19  20
BRANCH   4  30
HETATM   30  O1  UNL     1      35.111  32.821  23.231  1.00  0.00    -0.389 OA
ATOM     31  H1  UNL     1      35.715  33.106  23.906  1.00  0.00     0.210 HD
ENDBRANCH   4  30
BRANCH  17  32
HETATM   32  C17 UNL     1      34.062  38.219  27.227  1.00  0.00     0.351 C 
HETATM   33  O2  UNL     1      34.698  39.033  26.511  1.00  0.00    -0.284 OA
ENDBRANCH  17  32
TORSDOF 6
ENDMDL
MODEL 2
REMARK VINA RESULT: -8.432094030      2.267      3.849
REMARK  6 active torsions:
REMARK  status: ('A' for Active; 'I' for Inactive)
REMARK    1  A    between atoms: C4_4  and  O1_5 
REMARK    2  A    between atoms: N1_19  and  C17_20 
REMARK    3  A    between atoms: C19_23  and  C20_24 
REMARK    4  A    between atoms: C21_25  and  S1_26 
REMARK    5  A    between atoms: S1_26  and  C22_29 
REMARK    6  A    between atoms: C22_29  and  C23_30 
ROOT
HETATM    1  C1  UNL     1      35.248  38.904  21.891  1.00  0.00     0.011 C 
HETATM    2  C2  UNL     1      35.987  37.733  22.407  1.00  0.00    -0.008 C 
HETATM    3  C3  UNL     1      35.481  37.102  23.649  1.00  0.00     0.043 C 
HETATM    4  C4  UNL     1      34.079  36.603  23.399  1.00  0.00     0.066 C 
HETATM    5  C5  UNL     1      33.963  35.672  22.264  1.00  0.00     0.021 C 
HETATM    6  C6  UNL     1      33.877  34.213  22.665  1.00  0.00     0.008 C 
HETATM    7  C7  UNL     1      34.478  33.854  23.957  1.00  0.00     0.006 C 
HETATM    8  C8  UNL     1      34.286  34.830  25.075  1.00  0.00    -0.001 C 
HETATM    9  C9  UNL     1      33.549  36.064  24.692  1.00  0.00     0.025 C 
HETATM   10  C10 UNL     1      32.065  35.958  24.717  1.00  0.00     0.010 C 
HETATM   11  C11 UNL     1      31.497  34.712  25.269  1.00  0.00     0.031 C 
HETATM   12  C12 UNL     1      32.257  34.048  26.354  1.00  0.00     0.035 C 
HETATM   13  C13 UNL     1      31.678  34.493  27.705  1.00  0.00     0.039 C 
HETATM   14  C14 UNL     1      33.723  34.239  26.338  1.00  0.00     0.019 C 
HETATM   15  C15 UNL     1      34.378  32.947  26.725  1.00  0.00     0.027 C 
HETATM   16  C16 UNL     1      33.218  32.036  26.999  1.00  0.00     0.126 C 
HETATM   17  N1  UNL     1      32.092  32.609  26.302  1.00  0.00    -0.350 N 
HETATM   18  C18 UNL     1      34.904  35.886  21.107  1.00  0.00     0.016 C 
HETATM   19  C19 UNL     1      36.156  36.601  21.361  1.00  0.00     0.013 C 
ENDROOT
BRANCH  19  20
HETATM   20  C20 UNL     1      36.923  37.195  20.286  1.00  0.00    -0.010 C 
HETATM   21  C21 UNL     1      37.174  36.708  18.950  1.00  0.00     0.105 C 
BRANCH  21  22
HETATM   22  S1  UNL     1      35.902  36.493  17.778  1.00  0.00     0.173 S 
HETATM   23  O3  UNL     1      35.473  35.064  17.558  1.00  0.00    -0.223 OA
HETATM   24  O4  UNL     1      34.676  37.341  18.105  1.00  0.00    -0.223 OA
BRANCH  22  25
HETATM   25  C22 UNL     1      36.404  37.043  16.144  1.00  0.00     0.262 C 
BRANCH  25  26
HETATM   26  C23 UNL     1      37.799  36.728  15.784  1.00  0.00     0.400 C 
HETATM   27  F1  UNL     1      37.954  36.995  14.408  1.00  0.00    -0.170 F 
HETATM   28  F2  UNL     1      38.643  37.681  16.377  1.00  0.00    -0.170 F 
HETATM   29  F3  UNL     1      38.197  35.456  16.020  1.00  0.00    -0.170 F 
ENDBRANCH  25  26
ENDBRANCH  22  25
ENDBRANCH  21  22
ENDBRANCH  19  20
BRANCH   4  30
HETATM   30  O1  UNL     1      33.300  37.755  23.135  1.00  0.00    -0.389 OA
ATOM     31  H1  UNL     1      32.947  37.635  22.261  1.00  0.00     0.210 HD
ENDBRANCH   4  30
BRANCH  17  32
HETATM   32  C17 UNL     1      31.034  31.878  25.690  1.00  0.00     0.351 C 
HETATM   33  O2  UNL     1      29.949  31.665  26.287  1.00  0.00    -0.284 OA
ENDBRANCH  17  32
TORSDOF 6
ENDMDL
MODEL 3
REMARK VINA RESULT: -8.275111064      1.029      1.335
REMARK  6 active torsions:
REMARK  status: ('A' for Active; 'I' for Inactive)
REMARK    1  A    between atoms: C4_4  and  O1_5 
REMARK    2  A    between atoms: N1_19  and  C17_20 
REMARK    3  A    between atoms: C19_23  and  C20_24 
REMARK    4  A    between atoms: C21_25  and  S1_26 
REMARK    5  A    between atoms: S1_26  and  C22_29 
REMARK    6  A    between atoms: C22_29  and  C23_30 
ROOT
HETATM    1  C1  UNL     1      34.628  31.993  20.620  1.00  0.00     0.011 C 
HETATM    2  C2  UNL     1      33.780  33.200  20.526  1.00  0.00    -0.008 C 
HETATM    3  C3  UNL     1      33.112  33.662  21.766  1.00  0.00     0.043 C 
HETATM    4  C4  UNL     1      34.171  34.005  22.784  1.00  0.00     0.066 C 
HETATM    5  C5  UNL     1      35.151  35.003  22.324  1.00  0.00     0.021 C 
HETATM    6  C6  UNL     1      34.900  36.404  22.848  1.00  0.00     0.008 C 
HETATM    7  C7  UNL     1      33.514  36.727  23.212  1.00  0.00     0.006 C 
HETATM    8  C8  UNL     1      32.736  35.647  23.897  1.00  0.00    -0.001 C 
HETATM    9  C9  UNL     1      33.477  34.367  24.060  1.00  0.00     0.025 C 
HETATM   10  C10 UNL     1      34.364  34.289  25.252  1.00  0.00     0.010 C 
HETATM   11  C11 UNL     1      34.287  35.407  26.213  1.00  0.00     0.031 C 
HETATM   12  C12 UNL     1      32.971  36.069  26.373  1.00  0.00     0.035 C 
HETATM   13  C13 UNL     1      32.249  35.449  27.578  1.00  0.00     0.039 C 
HETATM   14  C14 UNL     1      32.086  36.061  25.187  1.00  0.00     0.019 C 
HETATM   15  C15 UNL     1      31.393  37.387  25.099  1.00  0.00     0.027 C 
HETATM   16  C16 UNL     1      31.893  38.124  26.306  1.00  0.00     0.126 C 
HETATM   17  N1  UNL     1      33.127  37.476  26.681  1.00  0.00    -0.350 N 
HETATM   18  C18 UNL     1      35.489  35.000  20.856  1.00  0.00     0.016 C 
HETATM   19  C19 UNL     1      34.516  34.426  19.926  1.00  0.00     0.013 C 
ENDROOT
BRANCH  19  20
HETATM   20  C20 UNL     1      34.894  34.019  18.588  1.00  0.00    -0.010 C 
HETATM   21  C21 UNL     1      35.024  34.805  17.384  1.00  0.00     0.105 C 
BRANCH  21  22
HETATM   22  S1  UNL     1      36.210  36.071  17.217  1.00  0.00     0.173 S 
HETATM   23  O3  UNL     1      35.666  37.473  17.327  1.00  0.00    -0.223 OA
HETATM   24  O4  UNL     1      37.367  35.901  18.198  1.00  0.00    -0.223 OA
BRANCH  22  25
HETATM   25  C22 UNL     1      36.988  36.042  15.598  1.00  0.00     0.262 C 
BRANCH  25  26
HETATM   26  C23 UNL     1      37.720  37.271  15.239  1.00  0.00     0.400 C 
HETATM   27  F1  UNL     1      38.503  36.983  14.102  1.00  0.00    -0.170 F 
HETATM   28  F2  UNL     1      36.803  38.214  14.747  1.00  0.00    -0.170 F 
HETATM   29  F3  UNL     1      38.530  37.777  16.198  1.00  0.00    -0.170 F 
ENDBRANCH  25  26
ENDBRANCH  22  25
ENDBRANCH  21  22
ENDBRANCH  19  20
BRANCH   4  30
HETATM   30  O1  UNL     1      34.845  32.791  23.066  1.00  0.00    -0.389 OA
ATOM     31  H1  UNL     1      34.178  32.115  23.050  1.00  0.00     0.210 HD
ENDBRANCH   4  30
BRANCH  17  32
HETATM   32  C17 UNL     1      34.265  38.121  27.245  1.00  0.00     0.351 C 
HETATM   33  O2  UNL     1      34.940  38.956  26.592  1.00  0.00    -0.284 OA
ENDBRANCH  17  32
TORSDOF 6
ENDMDL
MODEL 4
REMARK VINA RESULT: -8.225154362      2.080      2.472
REMARK  6 active torsions:
REMARK  status: ('A' for Active; 'I' for Inactive)
REMARK    1  A    between atoms: C4_4  and  O1_5 
REMARK    2  A    between atoms: N1_19  and  C17_20 
REMARK    3  A    between atoms: C19_23  and  C20_24 
REMARK    4  A    between atoms: C21_25  and  S1_26 
REMARK    5  A    between atoms: S1_26  and  C22_29 
REMARK    6  A    between atoms: C22_29  and  C23_30 
ROOT
HETATM    1  C1  UNL     1      34.745  32.148  20.430  1.00  0.00     0.011 C 
HETATM    2  C2  UNL     1      33.959  33.387  20.252  1.00  0.00    -0.008 C 
HETATM    3  C3  UNL     1      33.470  34.065  21.475  1.00  0.00     0.043 C 
HETATM    4  C4  UNL     1      34.660  34.473  22.309  1.00  0.00     0.066 C 
HETATM    5  C5  UNL     1      35.631  35.324  21.600  1.00  0.00     0.021 C 
HETATM    6  C6  UNL     1      35.520  36.799  21.935  1.00  0.00     0.008 C 
HETATM    7  C7  UNL     1      34.207  37.268  22.398  1.00  0.00     0.006 C 
HETATM    8  C8  UNL     1      33.459  36.354  23.316  1.00  0.00    -0.001 C 
HETATM    9  C9  UNL     1      34.144  35.060  23.585  1.00  0.00     0.025 C 
HETATM   10  C10 UNL     1      35.161  35.088  24.671  1.00  0.00     0.010 C 
HETATM   11  C11 UNL     1      35.260  36.334  25.457  1.00  0.00     0.031 C 
HETATM   12  C12 UNL     1      34.010  37.103  25.661  1.00  0.00     0.035 C 
HETATM   13  C13 UNL     1      33.405  36.712  27.017  1.00  0.00     0.039 C 
HETATM   14  C14 UNL     1      32.991  36.990  24.595  1.00  0.00     0.019 C 
HETATM   15  C15 UNL     1      32.365  38.337  24.387  1.00  0.00     0.027 C 
HETATM   16  C16 UNL     1      33.045  39.199  25.409  1.00  0.00     0.126 C 
HETATM   17  N1  UNL     1      34.278  38.525  25.738  1.00  0.00    -0.350 N 
HETATM   18  C18 UNL     1      35.791  35.090  20.121  1.00  0.00     0.016 C 
HETATM   19  C19 UNL     1      34.684  34.460  19.399  1.00  0.00     0.013 C 
ENDROOT
BRANCH  19  20
HETATM   20  C20 UNL     1      34.877  33.843  18.103  1.00  0.00    -0.010 C 
HETATM   21  C21 UNL     1      34.100  33.970  16.893  1.00  0.00     0.105 C 
BRANCH  21  22
HETATM   22  S1  UNL     1      33.952  35.478  16.031  1.00  0.00     0.173 S 
HETATM   23  O3  UNL     1      33.323  36.602  16.816  1.00  0.00    -0.223 OA
HETATM   24  O4  UNL     1      35.291  35.947  15.468  1.00  0.00    -0.223 OA
BRANCH  22  25
HETATM   25  C22 UNL     1      32.891  35.319  14.591  1.00  0.00     0.262 C 
BRANCH  25  26
HETATM   26  C23 UNL     1      32.893  33.984  13.962  1.00  0.00     0.400 C 
HETATM   27  F1  UNL     1      31.752  33.902  13.137  1.00  0.00    -0.170 F 
HETATM   28  F2  UNL     1      33.945  33.926  13.035  1.00  0.00    -0.170 F 
HETATM   29  F3  UNL     1      32.883  32.932  14.813  1.00  0.00    -0.170 F 
ENDBRANCH  25  26
ENDBRANCH  22  25
ENDBRANCH  21  22
ENDBRANCH  19  20
BRANCH   4  30
HETATM   30  O1  UNL     1      35.295  33.266  22.691  1.00  0.00    -0.389 OA
ATOM     31  H1  UNL     1      36.034  33.522  23.231  1.00  0.00     0.210 HD
ENDBRANCH   4  30
BRANCH  17  32
HETATM   32  C17 UNL     1      35.509  39.160  26.071  1.00  0.00     0.351 C 
HETATM   33  O2  UNL     1      35.766  39.522  27.247  1.00  0.00    -0.284 OA
ENDBRANCH  17  32
TORSDOF 6
ENDMDL
MODEL 5
REMARK VINA RESULT: -8.177943481      2.235      3.908
REMARK  6 active torsions:
REMARK  status: ('A' for Active; 'I' for Inactive)
REMARK    1  A    between atoms: C4_4  and  O1_5 
REMARK    2  A    between atoms: N1_19  and  C17_20 
REMARK    3  A    between atoms: C19_23  and  C20_24 
REMARK    4  A    between atoms: C21_25  and  S1_26 
REMARK    5  A    between atoms: S1_26  and  C22_29 
REMARK    6  A    between atoms: C22_29  and  C23_30 
ROOT
HETATM    1  C1  UNL     1      34.333  39.208  20.788  1.00  0.00     0.011 C 
HETATM    2  C2  UNL     1      35.382  38.853  21.766  1.00  0.00    -0.008 C 
HETATM    3  C3  UNL     1      35.074  39.060  23.201  1.00  0.00     0.043 C 
HETATM    4  C4  UNL     1      33.889  38.201  23.567  1.00  0.00     0.066 C 
HETATM    5  C5  UNL     1      34.071  36.768  23.280  1.00  0.00     0.021 C 
HETATM    6  C6  UNL     1      34.422  35.932  24.496  1.00  0.00     0.008 C 
HETATM    7  C7  UNL     1      35.086  36.634  25.602  1.00  0.00     0.006 C 
HETATM    8  C8  UNL     1      34.597  38.016  25.904  1.00  0.00    -0.001 C 
HETATM    9  C9  UNL     1      33.529  38.501  24.989  1.00  0.00     0.025 C 
HETATM   10  C10 UNL     1      32.145  38.086  25.343  1.00  0.00     0.010 C 
HETATM   11  C11 UNL     1      31.969  37.387  26.631  1.00  0.00     0.031 C 
HETATM   12  C12 UNL     1      32.879  37.771  27.735  1.00  0.00     0.035 C 
HETATM   13  C13 UNL     1      32.178  38.820  28.612  1.00  0.00     0.039 C 
HETATM   14  C14 UNL     1      34.222  38.251  27.340  1.00  0.00     0.019 C 
HETATM   15  C15 UNL     1      35.229  37.706  28.308  1.00  0.00     0.027 C 
HETATM   16  C16 UNL     1      34.391  36.936  29.286  1.00  0.00     0.126 C 
HETATM   17  N1  UNL     1      33.154  36.644  28.603  1.00  0.00    -0.350 N 
HETATM   18  C18 UNL     1      34.919  36.413  22.087  1.00  0.00     0.016 C 
HETATM   19  C19 UNL     1      35.896  37.398  21.619  1.00  0.00     0.013 C 
ENDROOT
BRANCH  19  20
HETATM   20  C20 UNL     1      36.463  37.332  20.288  1.00  0.00    -0.010 C 
HETATM   21  C21 UNL     1      36.477  36.242  19.341  1.00  0.00     0.105 C 
BRANCH  21  22
HETATM   22  S1  UNL     1      35.019  35.599  18.634  1.00  0.00     0.173 S 
HETATM   23  O3  UNL     1      34.283  34.600  19.492  1.00  0.00    -0.223 OA
HETATM   24  O4  UNL     1      34.057  36.703  18.208  1.00  0.00    -0.223 OA
BRANCH  22  25
HETATM   25  C22 UNL     1      35.359  34.692  17.122  1.00  0.00     0.262 C 
BRANCH  25  26
HETATM   26  C23 UNL     1      35.800  35.522  15.985  1.00  0.00     0.400 C 
HETATM   27  F1  UNL     1      36.804  34.806  15.301  1.00  0.00    -0.170 F 
HETATM   28  F2  UNL     1      34.765  35.575  15.039  1.00  0.00    -0.170 F 
HETATM   29  F3  UNL     1      36.286  36.745  16.302  1.00  0.00    -0.170 F 
ENDBRANCH  25  26
ENDBRANCH  22  25
ENDBRANCH  21  22
ENDBRANCH  19  20
BRANCH   4  30
HETATM   30  O1  UNL     1      32.803  38.692  22.802  1.00  0.00    -0.389 OA
ATOM     31  H1  UNL     1      33.111  38.722  21.904  1.00  0.00     0.210 HD
ENDBRANCH   4  30
BRANCH  17  32
HETATM   32  C17 UNL     1      32.371  35.465  28.770  1.00  0.00     0.351 C 
HETATM   33  O2  UNL     1      31.373  35.440  29.532  1.00  0.00    -0.284 OA
ENDBRANCH  17  32
TORSDOF 6
ENDMDL
