MODEL 1
REMARK VINA RESULT: -9.654872286      0.000      0.000
REMARK  6 active torsions:
REMARK  status: ('A' for Active; 'I' for Inactive)
REMARK    1  A    between atoms: N1_11  and  S1_12 
REMARK    2  A    between atoms: S1_12  and  C11_15 
REMARK    3  A    between atoms: C11_15  and  C12_16 
REMARK    4  A    between atoms: C16_20  and  O3_21 
REMARK    5  A    between atoms: O3_21  and  C17_22 
REMARK       I    between atoms: C17_22  and  N2_24 
REMARK    6  A    between atoms: N2_24  and  C18_26 
ROOT
HETATM    1  C12 UNL     1      35.473  35.686  18.832  1.00  0.00     0.043 C 
HETATM    2  C13 UNL     1      36.916  35.910  18.443  1.00  0.00     0.017 C 
HETATM    3  C14 UNL     1      36.867  35.960  16.923  1.00  0.00     0.014 C 
HETATM    4  C15 UNL     1      35.418  35.994  16.594  1.00  0.00     0.088 C 
HETATM    5  C16 UNL     1      34.826  34.597  16.792  1.00  0.00     0.144 C 
HETATM    6  C21 UNL     1      35.023  34.363  18.267  1.00  0.00     0.050 C 
HETATM    7  C22 UNL     1      34.837  36.654  17.863  1.00  0.00     0.258 C 
HETATM    8  F1  UNL     1      33.493  36.642  17.819  1.00  0.00    -0.205 F 
HETATM    9  F2  UNL     1      35.423  37.905  17.839  1.00  0.00    -0.205 F 
ENDROOT
BRANCH   1  10
HETATM   10  C11 UNL     1      35.128  35.828  20.231  1.00  0.00     0.179 C 
BRANCH  10  11
HETATM   11  S1  UNL     1      35.587  37.243  21.111  1.00  0.00     0.229 S 
HETATM   12  O1  UNL     1      36.848  37.901  20.631  1.00  0.00    -0.206 OA
HETATM   13  O2  UNL     1      34.477  38.281  20.905  1.00  0.00    -0.206 OA
BRANCH  11  14
HETATM   14  N1  UNL     1      35.707  37.088  22.792  1.00  0.00    -0.306 N 
HETATM   15  C5  UNL     1      34.817  36.177  23.424  1.00  0.00     0.097 C 
HETATM   16  C4  UNL     1      33.390  36.643  23.554  1.00  0.00     0.035 C 
HETATM   17  C6  UNL     1      35.356  36.085  24.876  1.00  0.00     0.036 C 
HETATM   18  C2  UNL     1      33.167  36.784  25.072  1.00  0.00    -0.038 C 
HETATM   19  C1  UNL     1      32.850  35.440  25.664  1.00  0.00     0.015 C 
HETATM   20  C3  UNL     1      32.093  37.774  25.375  1.00  0.00     0.015 C 
HETATM   21  C7  UNL     1      34.573  37.272  25.450  1.00  0.00    -0.034 C 
HETATM   22  C8  UNL     1      34.749  37.422  26.925  1.00  0.00     0.016 C 
HETATM   23  C9  UNL     1      34.900  38.502  24.662  1.00  0.00     0.030 C 
HETATM   24  C10 UNL     1      35.882  38.294  23.538  1.00  0.00     0.136 C 
ENDBRANCH  11  14
ENDBRANCH  10  11
ENDBRANCH   1  10
BRANCH   5  25
HETATM   25  O3  UNL     1      33.481  34.717  16.393  1.00  0.00    -0.298 OA
BRANCH  25  26
HETATM   26  C17 UNL     1      33.036  34.920  15.104  1.00  0.00     0.361 C 
HETATM   27  O4  UNL     1      32.299  35.950  14.947  1.00  0.00    -0.238 OA
HETATM   28  N2  UNL     1      33.349  34.066  14.016  1.00  0.00    -0.332 N 
ATOM     29  H2  UNL     1      33.947  33.258  14.187  1.00  0.00     0.165 HD
BRANCH  28  30
HETATM   30  C18 UNL     1      32.859  34.290  12.673  1.00  0.00     0.086 A 
HETATM   31  C19 UNL     1      33.151  33.317  11.616  1.00  0.00     0.027 A 
HETATM   32  C20 UNL     1      31.776  33.358  12.230  1.00  0.00     0.027 A 
ENDBRANCH  28  30
ENDBRANCH  25  26
ENDBRANCH   5  25
TORSDOF 6
ENDMDL
MODEL 2
REMARK VINA RESULT: -9.646385645      2.081      2.468
REMARK  6 active torsions:
REMARK  status: ('A' for Active; 'I' for Inactive)
REMARK    1  A    between atoms: N1_11  and  S1_12 
REMARK    2  A    between atoms: S1_12  and  C11_15 
REMARK    3  A    between atoms: C11_15  and  C12_16 
REMARK    4  A    between atoms: C16_20  and  O3_21 
REMARK    5  A    between atoms: O3_21  and  C17_22 
REMARK       I    between atoms: C17_22  and  N2_24 
REMARK    6  A    between atoms: N2_24  and  C18_26 
ROOT
HETATM    1  C12 UNL     1      34.844  35.147  18.843  1.00  0.00     0.043 C 
HETATM    2  C13 UNL     1      36.223  35.340  19.433  1.00  0.00     0.017 C 
HETATM    3  C14 UNL     1      36.932  36.197  18.395  1.00  0.00     0.014 C 
HETATM    4  C15 UNL     1      35.862  36.603  17.446  1.00  0.00     0.088 C 
HETATM    5  C16 UNL     1      35.509  35.413  16.551  1.00  0.00     0.144 C 
HETATM    6  C21 UNL     1      34.981  34.405  17.537  1.00  0.00     0.050 C 
HETATM    7  C22 UNL     1      34.618  36.559  18.359  1.00  0.00     0.258 C 
HETATM    8  F1  UNL     1      33.503  36.760  17.634  1.00  0.00    -0.205 F 
HETATM    9  F2  UNL     1      34.905  37.535  19.294  1.00  0.00    -0.205 F 
ENDROOT
BRANCH   1  10
HETATM   10  C11 UNL     1      33.827  34.569  19.695  1.00  0.00     0.179 C 
BRANCH  10  11
HETATM   11  S1  UNL     1      34.242  33.381  20.880  1.00  0.00     0.229 S 
HETATM   12  O1  UNL     1      33.329  32.191  20.924  1.00  0.00    -0.206 OA
HETATM   13  O2  UNL     1      35.621  32.829  20.499  1.00  0.00    -0.206 OA
BRANCH  11  14
HETATM   14  N1  UNL     1      34.436  33.927  22.470  1.00  0.00    -0.306 N 
HETATM   15  C5  UNL     1      33.416  33.586  23.401  1.00  0.00     0.097 C 
HETATM   16  C4  UNL     1      32.131  34.361  23.275  1.00  0.00     0.035 C 
HETATM   17  C6  UNL     1      34.017  33.999  24.770  1.00  0.00     0.036 C 
HETATM   18  C2  UNL     1      32.041  35.174  24.581  1.00  0.00    -0.038 C 
HETATM   19  C1  UNL     1      31.488  34.309  25.678  1.00  0.00     0.015 C 
HETATM   20  C3  UNL     1      31.221  36.407  24.400  1.00  0.00     0.015 C 
HETATM   21  C7  UNL     1      33.540  35.456  24.760  1.00  0.00    -0.034 C 
HETATM   22  C8  UNL     1      33.839  36.172  26.036  1.00  0.00     0.016 C 
HETATM   23  C9  UNL     1      34.066  36.136  23.534  1.00  0.00     0.030 C 
HETATM   24  C10 UNL     1      34.908  35.265  22.638  1.00  0.00     0.136 C 
ENDBRANCH  11  14
ENDBRANCH  10  11
ENDBRANCH   1  10
BRANCH   5  25
HETATM   25  O3  UNL     1      34.548  35.912  15.651  1.00  0.00    -0.298 OA
BRANCH  25  26
HETATM   26  C17 UNL     1      33.633  35.160  14.946  1.00  0.00     0.361 C 
HETATM   27  O4  UNL     1      32.416  35.508  15.106  1.00  0.00    -0.238 OA
HETATM   28  N2  UNL     1      33.984  34.074  14.104  1.00  0.00    -0.332 N 
ATOM     29  H2  UNL     1      34.970  33.837  14.001  1.00  0.00     0.165 HD
BRANCH  28  30
HETATM   30  C18 UNL     1      33.006  33.289  13.384  1.00  0.00     0.086 A 
HETATM   31  C19 UNL     1      31.829  33.942  12.801  1.00  0.00     0.027 A 
HETATM   32  C20 UNL     1      32.968  33.523  11.908  1.00  0.00     0.027 A 
ENDBRANCH  28  30
ENDBRANCH  25  26
ENDBRANCH   5  25
TORSDOF 6
ENDMDL
MODEL 3
REMARK VINA RESULT: -9.577359013      1.099      1.795
REMARK  6 active torsions:
REMARK  status: ('A' for Active; 'I' for Inactive)
REMARK    1  A    between atoms: N1_11  and  S1_12 
REMARK    2  A    between atoms: S1_12  and  C11_15 
REMARK    3  A    between atoms: C11_15  and  C12_16 
REMARK    4  A    between atoms: C16_20  and  O3_21 
REMARK    5  A    between atoms: O3_21  and  C17_22 
REMARK       I    between atoms: C17_22  and  N2_24 
REMARK    6  A    between atoms: N2_24  and  C18_26 
ROOT
HETATM    1  C12 UNL     1      35.845  35.952  19.218  1.00  0.00     0.043 C 
HETATM    2  C13 UNL     1      37.332  36.172  19.387  1.00  0.00     0.017 C 
HETATM    3  C14 UNL     1      37.763  36.719  18.035  1.00  0.00     0.014 C 
HETATM    4  C15 UNL     1      36.491  36.978  17.310  1.00  0.00     0.088 C 
HETATM    5  C16 UNL     1      35.905  35.646  16.837  1.00  0.00     0.144 C 
HETATM    6  C21 UNL     1      35.633  34.928  18.132  1.00  0.00     0.050 C 
HETATM    7  C22 UNL     1      35.522  37.232  18.484  1.00  0.00     0.258 C 
HETATM    8  F1  UNL     1      34.262  37.346  18.030  1.00  0.00    -0.205 F 
HETATM    9  F2  UNL     1      36.052  38.370  19.062  1.00  0.00    -0.205 F 
ENDROOT
BRANCH   1  10
HETATM   10  C11 UNL     1      35.073  35.658  20.406  1.00  0.00     0.179 C 
BRANCH  10  11
HETATM   11  S1  UNL     1      35.035  36.769  21.729  1.00  0.00     0.229 S 
HETATM   12  O1  UNL     1      36.371  37.338  22.111  1.00  0.00    -0.206 OA
HETATM   13  O2  UNL     1      34.190  37.969  21.284  1.00  0.00    -0.206 OA
BRANCH  11  14
HETATM   14  N1  UNL     1      34.288  36.236  23.151  1.00  0.00    -0.306 N 
HETATM   15  C5  UNL     1      33.536  37.192  23.886  1.00  0.00     0.097 C 
HETATM   16  C4  UNL     1      34.343  38.196  24.668  1.00  0.00     0.035 C 
HETATM   17  C6  UNL     1      32.795  36.338  24.948  1.00  0.00     0.036 C 
HETATM   18  C2  UNL     1      34.020  37.885  26.143  1.00  0.00    -0.038 C 
HETATM   19  C1  UNL     1      32.720  38.535  26.524  1.00  0.00     0.015 C 
HETATM   20  C3  UNL     1      35.125  38.318  27.046  1.00  0.00     0.015 C 
HETATM   21  C7  UNL     1      33.894  36.359  26.016  1.00  0.00    -0.034 C 
HETATM   22  C8  UNL     1      33.471  35.713  27.295  1.00  0.00     0.016 C 
HETATM   23  C9  UNL     1      35.156  35.805  25.433  1.00  0.00     0.030 C 
HETATM   24  C10 UNL     1      35.053  35.371  23.993  1.00  0.00     0.136 C 
ENDBRANCH  11  14
ENDBRANCH  10  11
ENDBRANCH   1  10
BRANCH   5  25
HETATM   25  O3  UNL     1      34.752  35.999  16.109  1.00  0.00    -0.298 OA
BRANCH  25  26
HETATM   26  C17 UNL     1      33.839  35.121  15.566  1.00  0.00     0.361 C 
HETATM   27  O4  UNL     1      32.789  34.937  16.267  1.00  0.00    -0.238 OA
HETATM   28  N2  UNL     1      34.024  34.454  14.328  1.00  0.00    -0.332 N 
ATOM     29  H2  UNL     1      34.876  34.638  13.799  1.00  0.00     0.165 HD
BRANCH  28  30
HETATM   30  C18 UNL     1      33.058  33.525  13.783  1.00  0.00     0.086 A 
HETATM   31  C19 UNL     1      31.931  34.024  12.988  1.00  0.00     0.027 A 
HETATM   32  C20 UNL     1      33.099  33.370  12.296  1.00  0.00     0.027 A 
ENDBRANCH  28  30
ENDBRANCH  25  26
ENDBRANCH   5  25
TORSDOF 6
ENDMDL
MODEL 4
REMARK VINA RESULT: -9.419331282      1.428      1.823
REMARK  6 active torsions:
REMARK  status: ('A' for Active; 'I' for Inactive)
REMARK    1  A    between atoms: N1_11  and  S1_12 
REMARK    2  A    between atoms: S1_12  and  C11_15 
REMARK    3  A    between atoms: C11_15  and  C12_16 
REMARK    4  A    between atoms: C16_20  and  O3_21 
REMARK    5  A    between atoms: O3_21  and  C17_22 
REMARK       I    between atoms: C17_22  and  N2_24 
REMARK    6  A    between atoms: N2_24  and  C18_26 
ROOT
HETATM    1  C12 UNL     1      35.686  37.407  19.039  1.00  0.00     0.043 C 
HETATM    2  C13 UNL     1      36.314  36.511  20.083  1.00  0.00     0.017 C 
HETATM    3  C14 UNL     1      36.542  35.206  19.335  1.00  0.00     0.014 C 
HETATM    4  C15 UNL     1      36.251  35.531  17.913  1.00  0.00     0.088 C 
HETATM    5  C16 UNL     1      34.736  35.637  17.723  1.00  0.00     0.144 C 
HETATM    6  C21 UNL     1      34.375  36.799  18.610  1.00  0.00     0.050 C 
HETATM    7  C22 UNL     1      36.577  37.038  17.877  1.00  0.00     0.258 C 
HETATM    8  F1  UNL     1      36.233  37.559  16.686  1.00  0.00    -0.205 F 
HETATM    9  F2  UNL     1      37.928  37.055  18.167  1.00  0.00    -0.205 F 
ENDROOT
BRANCH   1  10
HETATM   10  C11 UNL     1      35.559  38.814  19.354  1.00  0.00     0.179 C 
BRANCH  10  11
HETATM   11  S1  UNL     1      34.986  39.320  20.904  1.00  0.00     0.229 S 
HETATM   12  O1  UNL     1      35.537  40.632  21.382  1.00  0.00    -0.206 OA
HETATM   13  O2  UNL     1      33.472  39.532  20.777  1.00  0.00    -0.206 OA
BRANCH  11  14
HETATM   14  N1  UNL     1      35.148  38.213  22.174  1.00  0.00    -0.306 N 
HETATM   15  C5  UNL     1      33.957  37.605  22.660  1.00  0.00     0.097 C 
HETATM   16  C4  UNL     1      33.079  38.481  23.515  1.00  0.00     0.035 C 
HETATM   17  C6  UNL     1      34.474  36.489  23.605  1.00  0.00     0.036 C 
HETATM   18  C2  UNL     1      33.118  37.823  24.909  1.00  0.00    -0.038 C 
HETATM   19  C1  UNL     1      32.140  36.684  24.957  1.00  0.00     0.015 C 
HETATM   20  C3  UNL     1      32.845  38.816  25.987  1.00  0.00     0.015 C 
HETATM   21  C7  UNL     1      34.576  37.340  24.875  1.00  0.00    -0.034 C 
HETATM   22  C8  UNL     1      34.940  36.539  26.082  1.00  0.00     0.016 C 
HETATM   23  C9  UNL     1      35.478  38.506  24.614  1.00  0.00     0.030 C 
HETATM   24  C10 UNL     1      36.053  38.564  23.222  1.00  0.00     0.136 C 
ENDBRANCH  11  14
ENDBRANCH  10  11
ENDBRANCH   1  10
BRANCH   5  25
HETATM   25  O3  UNL     1      34.563  35.874  16.346  1.00  0.00    -0.298 OA
BRANCH  25  26
HETATM   26  C17 UNL     1      33.627  35.271  15.533  1.00  0.00     0.361 C 
HETATM   27  O4  UNL     1      32.486  35.839  15.516  1.00  0.00    -0.238 OA
HETATM   28  N2  UNL     1      33.880  34.105  14.768  1.00  0.00    -0.332 N 
ATOM     29  H2  UNL     1      34.810  33.688  14.808  1.00  0.00     0.165 HD
BRANCH  28  30
HETATM   30  C18 UNL     1      32.879  33.479  13.932  1.00  0.00     0.086 A 
HETATM   31  C19 UNL     1      32.104  34.291  12.988  1.00  0.00     0.027 A 
HETATM   32  C20 UNL     1      33.218  33.415  12.477  1.00  0.00     0.027 A 
ENDBRANCH  28  30
ENDBRANCH  25  26
ENDBRANCH   5  25
TORSDOF 6
ENDMDL
MODEL 5
REMARK VINA RESULT: -9.385814861      1.839      2.533
REMARK  6 active torsions:
REMARK  status: ('A' for Active; 'I' for Inactive)
REMARK    1  A    between atoms: N1_11  and  S1_12 
REMARK    2  A    between atoms: S1_12  and  C11_15 
REMARK    3  A    between atoms: C11_15  and  C12_16 
REMARK    4  A    between atoms: C16_20  and  O3_21 
REMARK    5  A    between atoms: O3_21  and  C17_22 
REMARK       I    between atoms: C17_22  and  N2_24 
REMARK    6  A    between atoms: N2_24  and  C18_26 
ROOT
HETATM    1  C12 UNL     1      34.808  35.257  18.948  1.00  0.00     0.043 C 
HETATM    2  C13 UNL     1      36.182  35.405  19.560  1.00  0.00     0.017 C 
HETATM    3  C14 UNL     1      36.960  36.168  18.499  1.00  0.00     0.014 C 
HETATM    4  C15 UNL     1      35.935  36.582  17.505  1.00  0.00     0.088 C 
HETATM    5  C16 UNL     1      35.536  35.368  16.662  1.00  0.00     0.144 C 
HETATM    6  C21 UNL     1      34.931  34.443  17.685  1.00  0.00     0.050 C 
HETATM    7  C22 UNL     1      34.671  36.652  18.388  1.00  0.00     0.258 C 
HETATM    8  F1  UNL     1      33.585  36.875  17.628  1.00  0.00    -0.205 F 
HETATM    9  F2  UNL     1      34.991  37.658  19.280  1.00  0.00    -0.205 F 
ENDROOT
BRANCH   1  10
HETATM   10  C11 UNL     1      33.743  34.780  19.804  1.00  0.00     0.179 C 
BRANCH  10  11
HETATM   11  S1  UNL     1      34.091  33.775  21.166  1.00  0.00     0.229 S 
HETATM   12  O1  UNL     1      33.316  32.491  21.216  1.00  0.00    -0.206 OA
HETATM   13  O2  UNL     1      35.564  33.364  21.056  1.00  0.00    -0.206 OA
BRANCH  11  14
HETATM   14  N1  UNL     1      33.971  34.496  22.693  1.00  0.00    -0.306 N 
HETATM   15  C5  UNL     1      33.569  35.859  22.736  1.00  0.00     0.097 C 
HETATM   16  C4  UNL     1      34.616  36.862  22.329  1.00  0.00     0.035 C 
HETATM   17  C6  UNL     1      33.313  36.117  24.244  1.00  0.00     0.036 C 
HETATM   18  C2  UNL     1      34.906  37.662  23.614  1.00  0.00    -0.038 C 
HETATM   19  C1  UNL     1      33.861  38.727  23.792  1.00  0.00     0.015 C 
HETATM   20  C3  UNL     1      36.277  38.248  23.594  1.00  0.00     0.015 C 
HETATM   21  C7  UNL     1      34.745  36.513  24.621  1.00  0.00    -0.034 C 
HETATM   22  C8  UNL     1      34.867  36.972  26.037  1.00  0.00     0.016 C 
HETATM   23  C9  UNL     1      35.674  35.398  24.252  1.00  0.00     0.030 C 
HETATM   24  C10 UNL     1      35.011  34.198  23.628  1.00  0.00     0.136 C 
ENDBRANCH  11  14
ENDBRANCH  10  11
ENDBRANCH   1  10
BRANCH   5  25
HETATM   25  O3  UNL     1      34.624  35.872  15.716  1.00  0.00    -0.298 OA
BRANCH  25  26
HETATM   26  C17 UNL     1      33.688  35.134  15.022  1.00  0.00     0.361 C 
HETATM   27  O4  UNL     1      32.476  35.472  15.231  1.00  0.00    -0.238 OA
HETATM   28  N2  UNL     1      34.014  34.071  14.142  1.00  0.00    -0.332 N 
ATOM     29  H2  UNL     1      34.998  33.841  14.001  1.00  0.00     0.165 HD
BRANCH  28  30
HETATM   30  C18 UNL     1      33.016  33.300  13.435  1.00  0.00     0.086 A 
HETATM   31  C19 UNL     1      31.829  33.966  12.888  1.00  0.00     0.027 A 
HETATM   32  C20 UNL     1      32.944  33.554  11.963  1.00  0.00     0.027 A 
ENDBRANCH  28  30
ENDBRANCH  25  26
ENDBRANCH   5  25
TORSDOF 6
ENDMDL
