MODEL 1
REMARK VINA RESULT: -8.692417835      0.000      0.000
REMARK  7 active torsions:
REMARK  status: ('A' for Active; 'I' for Inactive)
REMARK    1  A    between atoms: C2_2  and  C3_3 
REMARK    2  A    between atoms: C2_2  and  N3_30 
REMARK    3  A    between atoms: C3_3  and  C4_4 
REMARK    4  A    between atoms: C4_4  and  C5_5 
REMARK    5  A    between atoms: C8_8  and  C9_9 
REMARK       I    between atoms: C9_9  and  N1_11 
REMARK    6  A    between atoms: C16_18  and  N2_19 
REMARK    7  A    between atoms: C18_24  and  C19_25 
ROOT
HETATM    1  N3  UNL     1      33.453  38.954  25.625  1.00  0.00    -0.408 N 
HETATM    2  C21 UNL     1      32.509  39.156  24.583  1.00  0.00     0.118 C 
HETATM    3  C22 UNL     1      32.883  38.474  23.287  1.00  0.00     0.038 C 
HETATM    4  C23 UNL     1      34.287  38.802  22.855  1.00  0.00     0.096 C 
HETATM    5  C24 UNL     1      34.373  39.416  21.552  1.00  0.00     0.064 C 
HETATM    6  N4  UNL     1      34.444  39.886  20.506  1.00  0.00    -0.197 NA
HETATM    7  C25 UNL     1      34.957  39.668  23.914  1.00  0.00     0.038 C 
HETATM    8  C26 UNL     1      34.821  38.920  25.227  1.00  0.00     0.118 C 
ENDROOT
BRANCH   1   9
HETATM    9  C2  UNL     1      33.087  37.939  26.572  1.00  0.00     0.075 C 
HETATM   10  C1  UNL     1      33.035  38.569  27.947  1.00  0.00     0.032 C 
BRANCH   9  11
HETATM   11  C3  UNL     1      34.012  36.771  26.591  1.00  0.00     0.029 C 
BRANCH  11  12
HETATM   12  C4  UNL     1      33.185  35.507  26.316  1.00  0.00     0.040 C 
BRANCH  12  13
HETATM   13  C5  UNL     1      33.646  35.057  24.953  1.00  0.00    -0.057 A 
HETATM   14  C6  UNL     1      34.901  35.378  24.489  1.00  0.00     0.008 A 
HETATM   15  C7  UNL     1      35.319  34.971  23.248  1.00  0.00     0.018 A 
HETATM   16  C8  UNL     1      34.465  34.219  22.433  1.00  0.00     0.047 A 
HETATM   17  C18 UNL     1      33.215  33.889  22.868  1.00  0.00     0.064 A 
HETATM   18  C20 UNL     1      32.824  34.320  24.137  1.00  0.00     0.024 A 
BRANCH  16  19
HETATM   19  C9  UNL     1      34.951  33.778  21.152  1.00  0.00     0.254 C 
HETATM   20  O1  UNL     1      35.331  32.603  20.992  1.00  0.00    -0.267 OA
HETATM   21  N1  UNL     1      34.982  34.716  20.057  1.00  0.00    -0.347 N 
HETATM   22  C10 UNL     1      34.547  36.090  20.097  1.00  0.00     0.127 C 
HETATM   23  C17 UNL     1      35.466  34.417  18.736  1.00  0.00     0.137 C 
HETATM   24  C11 UNL     1      35.386  36.774  19.006  1.00  0.00     0.033 C 
HETATM   25  C12 UNL     1      35.461  35.672  17.962  1.00  0.00     0.005 C 
HETATM   26  C13 UNL     1      36.802  35.837  17.239  1.00  0.00     0.013 C 
HETATM   27  C16 UNL     1      34.384  35.813  16.930  1.00  0.00     0.193 C 
HETATM   28  C14 UNL     1      36.398  36.582  15.989  1.00  0.00     0.003 C 
HETATM   29  C15 UNL     1      35.136  35.806  15.596  1.00  0.00     0.033 C 
BRANCH  27  30
HETATM   30  N2  UNL     1      33.458  34.726  17.019  1.00  0.00    -0.074 N 
ATOM     31  H23 UNL     1      33.919  33.825  16.895  1.00  0.00     0.274 HD
ATOM     32  H22 UNL     1      33.118  34.594  17.971  1.00  0.00     0.274 HD
ATOM     33  H21 UNL     1      32.691  34.854  16.358  1.00  0.00     0.274 HD
ENDBRANCH  27  30
ENDBRANCH  16  19
BRANCH  17  34
HETATM   34  C19 UNL     1      32.264  33.137  22.043  1.00  0.00     0.418 C 
HETATM   35  F1  UNL     1      32.165  33.621  20.744  1.00  0.00    -0.166 F 
HETATM   36  F2  UNL     1      32.519  31.799  22.063  1.00  0.00    -0.166 F 
HETATM   37  F3  UNL     1      30.968  33.368  22.572  1.00  0.00    -0.166 F 
ENDBRANCH  17  34
ENDBRANCH  12  13
ENDBRANCH  11  12
ENDBRANCH   9  11
ENDBRANCH   1   9
TORSDOF 7
ENDMDL
MODEL 2
REMARK VINA RESULT: -8.617645357      2.992      8.786
REMARK  7 active torsions:
REMARK  status: ('A' for Active; 'I' for Inactive)
REMARK    1  A    between atoms: C2_2  and  C3_3 
REMARK    2  A    between atoms: C2_2  and  N3_30 
REMARK    3  A    between atoms: C3_3  and  C4_4 
REMARK    4  A    between atoms: C4_4  and  C5_5 
REMARK    5  A    between atoms: C8_8  and  C9_9 
REMARK       I    between atoms: C9_9  and  N1_11 
REMARK    6  A    between atoms: C16_18  and  N2_19 
REMARK    7  A    between atoms: C18_24  and  C19_25 
ROOT
HETATM    1  N3  UNL     1      35.147  35.944  17.731  1.00  0.00    -0.408 N 
HETATM    2  C21 UNL     1      35.787  35.126  16.762  1.00  0.00     0.118 C 
HETATM    3  C22 UNL     1      35.310  35.374  15.350  1.00  0.00     0.038 C 
HETATM    4  C23 UNL     1      33.810  35.324  15.236  1.00  0.00     0.096 C 
HETATM    5  C24 UNL     1      33.324  34.336  14.304  1.00  0.00     0.064 C 
HETATM    6  N4  UNL     1      32.935  33.564  13.547  1.00  0.00    -0.197 NA
HETATM    7  C25 UNL     1      33.202  35.122  16.618  1.00  0.00     0.038 C 
HETATM    8  C26 UNL     1      33.767  36.219  17.500  1.00  0.00     0.118 C 
ENDROOT
BRANCH   1   9
HETATM    9  C2  UNL     1      35.914  37.084  18.148  1.00  0.00     0.075 C 
HETATM   10  C1  UNL     1      37.373  36.681  18.194  1.00  0.00     0.032 C 
BRANCH   9  11
HETATM   11  C3  UNL     1      35.505  37.637  19.469  1.00  0.00     0.029 C 
BRANCH  11  12
HETATM   12  C4  UNL     1      36.382  36.985  20.548  1.00  0.00     0.040 C 
BRANCH  12  13
HETATM   13  C5  UNL     1      35.488  36.927  21.761  1.00  0.00    -0.057 A 
HETATM   14  C6  UNL     1      35.385  35.775  22.509  1.00  0.00     0.008 A 
HETATM   15  C7  UNL     1      34.570  35.722  23.610  1.00  0.00     0.018 A 
HETATM   16  C8  UNL     1      33.828  36.847  23.989  1.00  0.00     0.047 A 
HETATM   17  C18 UNL     1      33.911  38.000  23.264  1.00  0.00     0.064 A 
HETATM   18  C20 UNL     1      34.751  38.018  22.149  1.00  0.00     0.024 A 
BRANCH  16  19
HETATM   19  C9  UNL     1      33.013  36.766  25.172  1.00  0.00     0.254 C 
HETATM   20  O1  UNL     1      31.826  36.395  25.095  1.00  0.00    -0.267 OA
HETATM   21  N1  UNL     1      33.594  37.114  26.445  1.00  0.00    -0.347 N 
HETATM   22  C10 UNL     1      34.955  37.529  26.677  1.00  0.00     0.127 C 
HETATM   23  C17 UNL     1      32.887  37.103  27.697  1.00  0.00     0.137 C 
HETATM   24  C11 UNL     1      34.864  38.393  27.945  1.00  0.00     0.033 C 
HETATM   25  C12 UNL     1      33.789  37.655  28.726  1.00  0.00     0.005 C 
HETATM   26  C13 UNL     1      33.043  38.706  29.555  1.00  0.00     0.013 C 
HETATM   27  C16 UNL     1      34.380  36.672  29.689  1.00  0.00     0.193 C 
HETATM   28  C14 UNL     1      33.699  38.565  30.907  1.00  0.00     0.003 C 
HETATM   29  C15 UNL     1      33.750  37.039  31.036  1.00  0.00     0.033 C 
BRANCH  27  30
HETATM   30  N2  UNL     1      34.056  35.333  29.302  1.00  0.00    -0.074 N 
ATOM     31  H23 UNL     1      33.050  35.203  29.196  1.00  0.00     0.274 HD
ATOM     32  H22 UNL     1      34.338  35.136  28.343  1.00  0.00     0.274 HD
ATOM     33  H21 UNL     1      34.457  34.664  29.959  1.00  0.00     0.274 HD
ENDBRANCH  27  30
ENDBRANCH  16  19
BRANCH  17  34
HETATM   34  C19 UNL     1      33.129  39.196  23.590  1.00  0.00     0.418 C 
HETATM   35  F1  UNL     1      31.758  38.967  23.599  1.00  0.00    -0.166 F 
HETATM   36  F2  UNL     1      33.549  39.780  24.746  1.00  0.00    -0.166 F 
HETATM   37  F3  UNL     1      33.294  40.115  22.521  1.00  0.00    -0.166 F 
ENDBRANCH  17  34
ENDBRANCH  12  13
ENDBRANCH  11  12
ENDBRANCH   9  11
ENDBRANCH   1   9
TORSDOF 7
ENDMDL
MODEL 3
REMARK VINA RESULT: -8.539993234      2.890      4.758
REMARK  7 active torsions:
REMARK  status: ('A' for Active; 'I' for Inactive)
REMARK    1  A    between atoms: C2_2  and  C3_3 
REMARK    2  A    between atoms: C2_2  and  N3_30 
REMARK    3  A    between atoms: C3_3  and  C4_4 
REMARK    4  A    between atoms: C4_4  and  C5_5 
REMARK    5  A    between atoms: C8_8  and  C9_9 
REMARK       I    between atoms: C9_9  and  N1_11 
REMARK    6  A    between atoms: C16_18  and  N2_19 
REMARK    7  A    between atoms: C18_24  and  C19_25 
ROOT
HETATM    1  N3  UNL     1      31.799  33.048  25.583  1.00  0.00    -0.408 N 
HETATM    2  C21 UNL     1      32.853  32.144  25.282  1.00  0.00     0.118 C 
HETATM    3  C22 UNL     1      33.911  32.727  24.375  1.00  0.00     0.038 C 
HETATM    4  C23 UNL     1      33.323  33.348  23.136  1.00  0.00     0.096 C 
HETATM    5  C24 UNL     1      33.812  32.778  21.904  1.00  0.00     0.064 C 
HETATM    6  N4  UNL     1      34.215  32.339  20.922  1.00  0.00    -0.197 NA
HETATM    7  C25 UNL     1      31.803  33.281  23.207  1.00  0.00     0.038 C 
HETATM    8  C26 UNL     1      31.406  33.919  24.524  1.00  0.00     0.118 C 
ENDROOT
BRANCH   1   9
HETATM    9  C2  UNL     1      31.910  33.687  26.863  1.00  0.00     0.075 C 
HETATM   10  C1  UNL     1      30.718  33.279  27.701  1.00  0.00     0.032 C 
BRANCH   9  11
HETATM   11  C3  UNL     1      31.987  35.173  26.792  1.00  0.00     0.029 C 
BRANCH  11  12
HETATM   12  C4  UNL     1      33.419  35.593  27.154  1.00  0.00     0.040 C 
BRANCH  12  13
HETATM   13  C5  UNL     1      33.923  36.284  25.913  1.00  0.00    -0.057 A 
HETATM   14  C6  UNL     1      35.187  36.034  25.428  1.00  0.00     0.008 A 
HETATM   15  C7  UNL     1      35.646  36.665  24.300  1.00  0.00     0.018 A 
HETATM   16  C8  UNL     1      34.828  37.579  23.626  1.00  0.00     0.047 A 
HETATM   17  C18 UNL     1      33.572  37.847  24.087  1.00  0.00     0.064 A 
HETATM   18  C20 UNL     1      33.138  37.185  25.237  1.00  0.00     0.024 A 
BRANCH  16  19
HETATM   19  C9  UNL     1      35.330  38.194  22.426  1.00  0.00     0.254 C 
HETATM   20  O1  UNL     1      35.608  39.408  22.408  1.00  0.00    -0.267 OA
HETATM   21  N1  UNL     1      35.511  37.381  21.248  1.00  0.00    -0.347 N 
HETATM   22  C10 UNL     1      35.258  35.966  21.141  1.00  0.00     0.127 C 
HETATM   23  C17 UNL     1      35.978  37.871  19.979  1.00  0.00     0.137 C 
HETATM   24  C11 UNL     1      34.940  35.762  19.650  1.00  0.00     0.033 C 
HETATM   25  C12 UNL     1      35.888  36.763  19.010  1.00  0.00     0.005 C 
HETATM   26  C13 UNL     1      35.211  37.255  17.726  1.00  0.00     0.013 C 
HETATM   27  C16 UNL     1      37.181  36.123  18.609  1.00  0.00     0.193 C 
HETATM   28  C14 UNL     1      35.877  36.404  16.672  1.00  0.00     0.003 C 
HETATM   29  C15 UNL     1      37.337  36.484  17.129  1.00  0.00     0.033 C 
BRANCH  27  30
HETATM   30  N2  UNL     1      38.261  36.637  19.394  1.00  0.00    -0.074 N 
ATOM     31  H23 UNL     1      37.951  37.374  20.027  1.00  0.00     0.274 HD
ATOM     32  H22 UNL     1      38.580  35.963  20.089  1.00  0.00     0.274 HD
ATOM     33  H21 UNL     1      39.024  36.949  18.793  1.00  0.00     0.274 HD
ENDBRANCH  27  30
ENDBRANCH  16  19
BRANCH  17  34
HETATM   34  C19 UNL     1      32.687  38.822  23.445  1.00  0.00     0.418 C 
HETATM   35  F1  UNL     1      32.890  40.123  23.891  1.00  0.00    -0.166 F 
HETATM   36  F2  UNL     1      32.741  38.743  22.086  1.00  0.00    -0.166 F 
HETATM   37  F3  UNL     1      31.363  38.540  23.872  1.00  0.00    -0.166 F 
ENDBRANCH  17  34
ENDBRANCH  12  13
ENDBRANCH  11  12
ENDBRANCH   9  11
ENDBRANCH   1   9
TORSDOF 7
ENDMDL
MODEL 4
REMARK VINA RESULT: -8.503927811      2.828      7.655
REMARK  7 active torsions:
REMARK  status: ('A' for Active; 'I' for Inactive)
REMARK    1  A    between atoms: C2_2  and  C3_3 
REMARK    2  A    between atoms: C2_2  and  N3_30 
REMARK    3  A    between atoms: C3_3  and  C4_4 
REMARK    4  A    between atoms: C4_4  and  C5_5 
REMARK    5  A    between atoms: C8_8  and  C9_9 
REMARK       I    between atoms: C9_9  and  N1_11 
REMARK    6  A    between atoms: C16_18  and  N2_19 
REMARK    7  A    between atoms: C18_24  and  C19_25 
ROOT
HETATM    1  N3  UNL     1      35.329  36.033  17.771  1.00  0.00    -0.408 N 
HETATM    2  C21 UNL     1      35.746  35.007  16.881  1.00  0.00     0.118 C 
HETATM    3  C22 UNL     1      35.328  35.241  15.448  1.00  0.00     0.038 C 
HETATM    4  C23 UNL     1      33.858  35.539  15.323  1.00  0.00     0.096 C 
HETATM    5  C24 UNL     1      33.141  34.620  14.473  1.00  0.00     0.064 C 
HETATM    6  N4  UNL     1      32.573  33.901  13.780  1.00  0.00    -0.197 NA
HETATM    7  C25 UNL     1      33.233  35.604  16.711  1.00  0.00     0.038 C 
HETATM    8  C26 UNL     1      34.051  36.606  17.503  1.00  0.00     0.118 C 
ENDROOT
BRANCH   1   9
HETATM    9  C2  UNL     1      36.349  36.988  18.098  1.00  0.00     0.075 C 
HETATM   10  C1  UNL     1      37.533  36.747  17.188  1.00  0.00     0.032 C 
BRANCH   9  11
HETATM   11  C3  UNL     1      36.791  36.937  19.520  1.00  0.00     0.029 C 
BRANCH  11  12
HETATM   12  C4  UNL     1      35.640  37.456  20.393  1.00  0.00     0.040 C 
BRANCH  12  13
HETATM   13  C5  UNL     1      35.328  36.302  21.312  1.00  0.00    -0.057 A 
HETATM   14  C6  UNL     1      35.247  36.485  22.674  1.00  0.00     0.008 A 
HETATM   15  C7  UNL     1      34.965  35.435  23.510  1.00  0.00     0.018 A 
HETATM   16  C8  UNL     1      34.756  34.156  22.983  1.00  0.00     0.047 A 
HETATM   17  C18 UNL     1      34.833  33.947  21.636  1.00  0.00     0.064 A 
HETATM   18  C20 UNL     1      35.121  35.039  20.816  1.00  0.00     0.024 A 
BRANCH  16  19
HETATM   19  C9  UNL     1      34.426  33.085  23.886  1.00  0.00     0.254 C 
HETATM   20  O1  UNL     1      35.327  32.417  24.428  1.00  0.00    -0.267 OA
HETATM   21  N1  UNL     1      33.038  32.805  24.158  1.00  0.00    -0.347 N 
HETATM   22  C10 UNL     1      31.903  33.516  23.624  1.00  0.00     0.127 C 
HETATM   23  C17 UNL     1      32.568  31.751  25.017  1.00  0.00     0.137 C 
HETATM   24  C11 UNL     1      30.775  32.471  23.640  1.00  0.00     0.033 C 
HETATM   25  C12 UNL     1      31.098  31.712  24.916  1.00  0.00     0.005 C 
HETATM   26  C13 UNL     1      30.635  30.266  24.700  1.00  0.00     0.013 C 
HETATM   27  C16 UNL     1      30.335  32.248  26.088  1.00  0.00     0.193 C 
HETATM   28  C14 UNL     1      29.293  30.258  25.390  1.00  0.00     0.003 C 
HETATM   29  C15 UNL     1      29.635  31.019  26.676  1.00  0.00     0.033 C 
BRANCH  27  30
HETATM   30  N2  UNL     1      31.225  32.850  27.033  1.00  0.00    -0.074 N 
ATOM     31  H23 UNL     1      30.922  32.689  27.994  1.00  0.00     0.274 HD
ATOM     32  H22 UNL     1      32.121  32.366  27.072  1.00  0.00     0.274 HD
ATOM     33  H21 UNL     1      31.340  33.844  26.834  1.00  0.00     0.274 HD
ENDBRANCH  27  30
ENDBRANCH  16  19
BRANCH  17  34
HETATM   34  C19 UNL     1      34.662  32.623  21.031  1.00  0.00     0.418 C 
HETATM   35  F1  UNL     1      35.580  31.687  21.493  1.00  0.00    -0.166 F 
HETATM   36  F2  UNL     1      33.382  32.171  21.147  1.00  0.00    -0.166 F 
HETATM   37  F3  UNL     1      34.987  32.740  19.655  1.00  0.00    -0.166 F 
ENDBRANCH  17  34
ENDBRANCH  12  13
ENDBRANCH  11  12
ENDBRANCH   9  11
ENDBRANCH   1   9
TORSDOF 7
ENDMDL
MODEL 5
REMARK VINA RESULT: -8.392091806      3.072      8.437
REMARK  7 active torsions:
REMARK  status: ('A' for Active; 'I' for Inactive)
REMARK    1  A    between atoms: C2_2  and  C3_3 
REMARK    2  A    between atoms: C2_2  and  N3_30 
REMARK    3  A    between atoms: C3_3  and  C4_4 
REMARK    4  A    between atoms: C4_4  and  C5_5 
REMARK    5  A    between atoms: C8_8  and  C9_9 
REMARK       I    between atoms: C9_9  and  N1_11 
REMARK    6  A    between atoms: C16_18  and  N2_19 
REMARK    7  A    between atoms: C18_24  and  C19_25 
ROOT
HETATM    1  N3  UNL     1      35.207  36.058  18.234  1.00  0.00    -0.408 N 
HETATM    2  C21 UNL     1      35.847  35.144  17.354  1.00  0.00     0.118 C 
HETATM    3  C22 UNL     1      35.580  35.423  15.894  1.00  0.00     0.038 C 
HETATM    4  C23 UNL     1      34.111  35.564  15.598  1.00  0.00     0.096 C 
HETATM    5  C24 UNL     1      33.615  34.628  14.618  1.00  0.00     0.064 C 
HETATM    6  N4  UNL     1      33.224  33.897  13.823  1.00  0.00    -0.197 NA
HETATM    7  C25 UNL     1      33.320  35.469  16.896  1.00  0.00     0.038 C 
HETATM    8  C26 UNL     1      33.912  36.502  17.836  1.00  0.00     0.118 C 
ENDROOT
BRANCH   1   9
HETATM    9  C2  UNL     1      36.060  37.097  18.737  1.00  0.00     0.075 C 
HETATM   10  C1  UNL     1      37.314  36.455  19.289  1.00  0.00     0.032 C 
BRANCH   9  11
HETATM   11  C3  UNL     1      35.427  37.943  19.787  1.00  0.00     0.029 C 
BRANCH  11  12
HETATM   12  C4  UNL     1      36.210  37.745  21.092  1.00  0.00     0.040 C 
BRANCH  12  13
HETATM   13  C5  UNL     1      35.188  37.193  22.053  1.00  0.00    -0.057 A 
HETATM   14  C6  UNL     1      35.161  35.852  22.363  1.00  0.00     0.008 A 
HETATM   15  C7  UNL     1      34.229  35.349  23.235  1.00  0.00     0.018 A 
HETATM   16  C8  UNL     1      33.288  36.201  23.823  1.00  0.00     0.047 A 
HETATM   17  C18 UNL     1      33.291  37.534  23.531  1.00  0.00     0.064 A 
HETATM   18  C20 UNL     1      34.255  38.010  22.640  1.00  0.00     0.024 A 
BRANCH  16  19
HETATM   19  C9  UNL     1      32.349  35.645  24.761  1.00  0.00     0.254 C 
HETATM   20  O1  UNL     1      31.244  35.221  24.372  1.00  0.00    -0.267 OA
HETATM   21  N1  UNL     1      32.712  35.581  26.155  1.00  0.00    -0.347 N 
HETATM   22  C10 UNL     1      33.962  36.007  26.733  1.00  0.00     0.127 C 
HETATM   23  C17 UNL     1      31.862  35.075  27.200  1.00  0.00     0.137 C 
HETATM   24  C11 UNL     1      33.593  36.368  28.181  1.00  0.00     0.033 C 
HETATM   25  C12 UNL     1      32.542  35.314  28.486  1.00  0.00     0.005 C 
HETATM   26  C13 UNL     1      31.559  35.944  29.479  1.00  0.00     0.013 C 
HETATM   27  C16 UNL     1      33.138  34.115  29.156  1.00  0.00     0.193 C 
HETATM   28  C14 UNL     1      32.054  35.402  30.799  1.00  0.00     0.003 C 
HETATM   29  C15 UNL     1      32.299  33.936  30.425  1.00  0.00     0.033 C 
BRANCH  27  30
HETATM   30  N2  UNL     1      33.054  32.969  28.303  1.00  0.00    -0.074 N 
ATOM     31  H23 UNL     1      32.100  32.806  27.982  1.00  0.00     0.274 HD
ATOM     32  H22 UNL     1      33.494  33.136  27.399  1.00  0.00     0.274 HD
ATOM     33  H21 UNL     1      33.443  32.148  28.767  1.00  0.00     0.274 HD
ENDBRANCH  27  30
ENDBRANCH  16  19
BRANCH  17  34
HETATM   34  C19 UNL     1      32.306  38.466  24.086  1.00  0.00     0.418 C 
HETATM   35  F1  UNL     1      31.003  38.181  23.697  1.00  0.00    -0.166 F 
HETATM   36  F2  UNL     1      32.414  38.577  25.439  1.00  0.00    -0.166 F 
HETATM   37  F3  UNL     1      32.545  39.736  23.498  1.00  0.00    -0.166 F 
ENDBRANCH  17  34
ENDBRANCH  12  13
ENDBRANCH  11  12
ENDBRANCH   9  11
ENDBRANCH   1   9
TORSDOF 7
ENDMDL
