MODEL 1
REMARK VINA RESULT: -5.244860690      0.000      0.000
REMARK  3 active torsions:
REMARK  status: ('A' for Active; 'I' for Inactive)
REMARK    1  A    between atoms: C2_2  and  C3_3 
REMARK    2  A    between atoms: C3_3  and  C5_5 
REMARK    3  A    between atoms: N1_6  and  N2_8 
ROOT
HETATM    1  N2  UNL     1     -36.310 -15.909 -12.890  1.00  0.00    -0.232 N 
HETATM    2  C6  UNL     1     -35.721 -16.043 -11.689  1.00  0.00     0.071 A 
HETATM    3  C7  UNL     1     -35.799 -17.274 -10.848  1.00  0.00     0.074 C 
HETATM    4  C8  UNL     1     -35.043 -14.894 -11.356  1.00  0.00     0.130 A 
HETATM    5 CL1  UNL     1     -34.119 -14.606  -9.876  1.00  0.00    -0.062 Cl
HETATM    6  N3  UNL     1     -35.228 -14.045 -12.381  1.00  0.00    -0.320 N 
ATOM      7  H3  UNL     1     -34.853 -13.098 -12.446  1.00  0.00     0.169 HD
HETATM    8  C9  UNL     1     -35.992 -14.654 -13.307  1.00  0.00     0.198 A 
HETATM    9  S1  UNL     1     -36.450 -13.965 -14.708  1.00  0.00    -0.039 SA
ENDROOT
BRANCH   1  10
HETATM   10  N1  UNL     1     -37.081 -16.868 -13.549  1.00  0.00    -0.306 N 
HETATM   11  C5  UNL     1     -38.330 -16.946 -13.321  1.00  0.00     0.085 C 
ATOM     12  H1  UNL     1     -36.644 -17.505 -14.214  1.00  0.00     0.186 HD
BRANCH  11  13
HETATM   13  C3  UNL     1     -39.232 -17.936 -13.976  1.00  0.00     0.021 C 
HETATM   14  C4  UNL     1     -39.845 -17.412 -15.230  1.00  0.00     0.015 C 
BRANCH  13  15
HETATM   15  C2  UNL     1     -38.520 -19.253 -14.163  1.00  0.00     0.005 C 
HETATM   16  C1  UNL     1     -38.403 -20.047 -12.908  1.00  0.00     0.006 C 
ENDBRANCH  13  15
ENDBRANCH  11  13
ENDBRANCH   1  10
TORSDOF 3
ENDMDL
MODEL 2
REMARK VINA RESULT: -5.244792271      1.266      1.787
REMARK  3 active torsions:
REMARK  status: ('A' for Active; 'I' for Inactive)
REMARK    1  A    between atoms: C2_2  and  C3_3 
REMARK    2  A    between atoms: C3_3  and  C5_5 
REMARK    3  A    between atoms: N1_6  and  N2_8 
ROOT
HETATM    1  N2  UNL     1     -35.455 -15.396 -11.964  1.00  0.00    -0.232 N 
HETATM    2  C6  UNL     1     -35.075 -15.325 -10.677  1.00  0.00     0.071 A 
HETATM    3  C7  UNL     1     -35.034 -16.493  -9.747  1.00  0.00     0.074 C 
HETATM    4  C8  UNL     1     -34.732 -14.035 -10.347  1.00  0.00     0.130 A 
HETATM    5 CL1  UNL     1     -34.173 -13.462  -8.770  1.00  0.00    -0.062 Cl
HETATM    6  N3  UNL     1     -34.910 -13.309 -11.463  1.00  0.00    -0.320 N 
ATOM      7  H3  UNL     1     -34.744 -12.306 -11.556  1.00  0.00     0.169 HD
HETATM    8  C9  UNL     1     -35.346 -14.126 -12.439  1.00  0.00     0.198 A 
HETATM    9  S1  UNL     1     -35.685 -13.639 -13.955  1.00  0.00    -0.039 SA
ENDROOT
BRANCH   1  10
HETATM   10  N1  UNL     1     -35.870 -16.541 -12.647  1.00  0.00    -0.306 N 
HETATM   11  C5  UNL     1     -37.107 -16.828 -12.714  1.00  0.00     0.085 C 
ATOM     12  H1  UNL     1     -35.181 -17.147 -13.091  1.00  0.00     0.186 HD
BRANCH  11  13
HETATM   13  C3  UNL     1     -37.643 -18.026 -13.420  1.00  0.00     0.021 C 
HETATM   14  C4  UNL     1     -37.629 -19.249 -12.568  1.00  0.00     0.015 C 
BRANCH  13  15
HETATM   15  C2  UNL     1     -38.999 -17.724 -14.012  1.00  0.00     0.005 C 
HETATM   16  C1  UNL     1     -39.973 -18.840 -13.860  1.00  0.00     0.006 C 
ENDBRANCH  13  15
ENDBRANCH  11  13
ENDBRANCH   1  10
TORSDOF 3
ENDMDL
MODEL 3
REMARK VINA RESULT: -5.235556122      1.849      2.616
REMARK  3 active torsions:
REMARK  status: ('A' for Active; 'I' for Inactive)
REMARK    1  A    between atoms: C2_2  and  C3_3 
REMARK    2  A    between atoms: C3_3  and  C5_5 
REMARK    3  A    between atoms: N1_6  and  N2_8 
ROOT
HETATM    1  N2  UNL     1     -35.424 -15.145 -10.854  1.00  0.00    -0.232 N 
HETATM    2  C6  UNL     1     -34.782 -15.243  -9.678  1.00  0.00     0.071 A 
HETATM    3  C7  UNL     1     -34.812 -16.453  -8.803  1.00  0.00     0.074 C 
HETATM    4  C8  UNL     1     -34.101 -14.081  -9.404  1.00  0.00     0.130 A 
HETATM    5 CL1  UNL     1     -33.117 -13.748  -7.973  1.00  0.00    -0.062 Cl
HETATM    6  N3  UNL     1     -34.338 -13.260 -10.441  1.00  0.00    -0.320 N 
ATOM      7  H3  UNL     1     -33.976 -12.312 -10.546  1.00  0.00     0.169 HD
HETATM    8  C9  UNL     1     -35.136 -13.898 -11.316  1.00  0.00     0.198 A 
HETATM    9  S1  UNL     1     -35.661 -13.250 -12.714  1.00  0.00    -0.039 SA
ENDROOT
BRANCH   1  10
HETATM   10  N1  UNL     1     -36.215 -16.127 -11.455  1.00  0.00    -0.306 N 
HETATM   11  C5  UNL     1     -35.701 -16.929 -12.297  1.00  0.00     0.085 C 
ATOM     12  H1  UNL     1     -37.204 -16.200 -11.219  1.00  0.00     0.186 HD
BRANCH  11  13
HETATM   13  C3  UNL     1     -36.464 -18.007 -12.988  1.00  0.00     0.021 C 
HETATM   14  C4  UNL     1     -36.700 -19.193 -12.117  1.00  0.00     0.015 C 
BRANCH  13  15
HETATM   15  C2  UNL     1     -37.729 -17.449 -13.595  1.00  0.00     0.005 C 
HETATM   16  C1  UNL     1     -38.865 -18.412 -13.586  1.00  0.00     0.006 C 
ENDBRANCH  13  15
ENDBRANCH  11  13
ENDBRANCH   1  10
TORSDOF 3
ENDMDL
MODEL 4
REMARK VINA RESULT: -5.182415572      0.547      1.600
REMARK  3 active torsions:
REMARK  status: ('A' for Active; 'I' for Inactive)
REMARK    1  A    between atoms: C2_2  and  C3_3 
REMARK    2  A    between atoms: C3_3  and  C5_5 
REMARK    3  A    between atoms: N1_6  and  N2_8 
ROOT
HETATM    1  N2  UNL     1     -36.249 -15.999 -12.915  1.00  0.00    -0.232 N 
HETATM    2  C6  UNL     1     -35.708 -15.843 -11.695  1.00  0.00     0.071 A 
HETATM    3  C7  UNL     1     -35.584 -16.937 -10.686  1.00  0.00     0.074 C 
HETATM    4  C8  UNL     1     -35.291 -14.546 -11.516  1.00  0.00     0.130 A 
HETATM    5 CL1  UNL     1     -34.521 -13.875 -10.071  1.00  0.00    -0.062 Cl
HETATM    6  N3  UNL     1     -35.587 -13.901 -12.657  1.00  0.00    -0.320 N 
ATOM      7  H3  UNL     1     -35.405 -12.916 -12.850  1.00  0.00     0.169 HD
HETATM    8  C9  UNL     1     -36.165 -14.774 -13.502  1.00  0.00     0.198 A 
HETATM    9  S1  UNL     1     -36.677 -14.393 -14.999  1.00  0.00    -0.039 SA
ENDROOT
BRANCH   1  10
HETATM   10  N1  UNL     1     -36.778 -17.176 -13.447  1.00  0.00    -0.306 N 
HETATM   11  C5  UNL     1     -38.027 -17.403 -13.370  1.00  0.00     0.085 C 
ATOM     12  H1  UNL     1     -36.164 -17.855 -13.896  1.00  0.00     0.186 HD
BRANCH  11  13
HETATM   13  C3  UNL     1     -38.682 -18.629 -13.908  1.00  0.00     0.021 C 
HETATM   14  C4  UNL     1     -38.747 -19.732 -12.907  1.00  0.00     0.015 C 
BRANCH  13  15
HETATM   15  C2  UNL     1     -40.024 -18.287 -14.509  1.00  0.00     0.005 C 
HETATM   16  C1  UNL     1     -39.979 -17.120 -15.434  1.00  0.00     0.006 C 
ENDBRANCH  13  15
ENDBRANCH  11  13
ENDBRANCH   1  10
TORSDOF 3
ENDMDL
MODEL 5
REMARK VINA RESULT: -5.105292057      2.599      5.102
REMARK  3 active torsions:
REMARK  status: ('A' for Active; 'I' for Inactive)
REMARK    1  A    between atoms: C2_2  and  C3_3 
REMARK    2  A    between atoms: C3_3  and  C5_5 
REMARK    3  A    between atoms: N1_6  and  N2_8 
ROOT
HETATM    1  N2  UNL     1     -36.430 -16.649 -12.666  1.00  0.00    -0.232 N 
HETATM    2  C6  UNL     1     -36.996 -17.823 -12.337  1.00  0.00     0.071 A 
HETATM    3  C7  UNL     1     -36.487 -18.730 -11.267  1.00  0.00     0.074 C 
HETATM    4  C8  UNL     1     -38.100 -18.059 -13.122  1.00  0.00     0.130 A 
HETATM    5 CL1  UNL     1     -39.160 -19.473 -13.051  1.00  0.00    -0.062 Cl
HETATM    6  N3  UNL     1     -38.202 -17.003 -13.945  1.00  0.00    -0.320 N 
ATOM      7  H3  UNL     1     -38.921 -16.868 -14.657  1.00  0.00     0.169 HD
HETATM    8  C9  UNL     1     -37.197 -16.151 -13.673  1.00  0.00     0.198 A 
HETATM    9  S1  UNL     1     -36.959 -14.741 -14.450  1.00  0.00    -0.039 SA
ENDROOT
BRANCH   1  10
HETATM   10  N1  UNL     1     -35.294 -16.082 -12.084  1.00  0.00    -0.306 N 
HETATM   11  C5  UNL     1     -35.399 -15.412 -11.008  1.00  0.00     0.085 C 
ATOM     12  H1  UNL     1     -34.382 -16.204 -12.522  1.00  0.00     0.186 HD
BRANCH  11  13
HETATM   13  C3  UNL     1     -34.245 -14.771 -10.314  1.00  0.00     0.021 C 
HETATM   14  C4  UNL     1     -34.527 -13.364  -9.912  1.00  0.00     0.015 C 
BRANCH  13  15
HETATM   15  C2  UNL     1     -33.772 -15.637  -9.172  1.00  0.00     0.005 C 
HETATM   16  C1  UNL     1     -34.870 -16.386  -8.502  1.00  0.00     0.006 C 
ENDBRANCH  13  15
ENDBRANCH  11  13
ENDBRANCH   1  10
TORSDOF 3
ENDMDL
