MODEL 1
REMARK VINA RESULT: -5.014107909      0.000      0.000
REMARK  3 active torsions:
REMARK  status: ('A' for Active; 'I' for Inactive)
REMARK    1  A    between atoms: S1_2  and  C2_3 
REMARK    2  A    between atoms: C3_5  and  C4_6 
REMARK    3  A    between atoms: C8_11  and  C9_12 
ROOT
HETATM    1  C2  UNL     1     -38.398 -15.402 -15.073  1.00  0.00     0.059 A 
HETATM    2  S2  UNL     1     -37.437 -15.768 -13.711  1.00  0.00    -0.083 SA
HETATM    3  C3  UNL     1     -38.150 -17.251 -13.262  1.00  0.00     0.024 A 
HETATM    4  C6  UNL     1     -39.129 -17.418 -14.204  1.00  0.00    -0.027 A 
HETATM    5  C7  UNL     1     -39.999 -18.661 -14.155  1.00  0.00     0.050 C 
HETATM    6  C8  UNL     1     -39.259 -16.463 -15.141  1.00  0.00     0.071 A 
ENDROOT
BRANCH   3   7
HETATM    7  C4  UNL     1     -37.794 -18.128 -12.104  1.00  0.00     0.206 C 
HETATM    8  C5  UNL     1     -36.414 -18.712 -12.422  1.00  0.00     0.051 C 
HETATM    9  F1  UNL     1     -37.616 -17.276 -11.016  1.00  0.00    -0.244 F 
ENDBRANCH   3   7
BRANCH   1  10
HETATM   10  S1  UNL     1     -38.318 -13.960 -16.167  1.00  0.00    -0.126 SA
HETATM   11  C1  UNL     1     -36.841 -14.226 -17.211  1.00  0.00     0.096 C 
ENDBRANCH   1  10
BRANCH   6  12
HETATM   12  C9  UNL     1     -40.273 -16.490 -16.240  1.00  0.00     0.211 C 
HETATM   13  O1  UNL     1     -40.078 -17.129 -17.300  1.00  0.00    -0.644 OA
HETATM   14  O2  UNL     1     -41.434 -15.774 -16.027  1.00  0.00    -0.644 OA
ENDBRANCH   6  12
TORSDOF 3
ENDMDL
MODEL 2
REMARK VINA RESULT: -4.911043067      1.034      1.488
REMARK  3 active torsions:
REMARK  status: ('A' for Active; 'I' for Inactive)
REMARK    1  A    between atoms: S1_2  and  C2_3 
REMARK    2  A    between atoms: C3_5  and  C4_6 
REMARK    3  A    between atoms: C8_11  and  C9_12 
ROOT
HETATM    1  C2  UNL     1     -38.568 -15.004 -15.170  1.00  0.00     0.059 A 
HETATM    2  S2  UNL     1     -37.433 -15.523 -14.007  1.00  0.00    -0.083 SA
HETATM    3  C3  UNL     1     -38.067 -17.071 -13.676  1.00  0.00     0.024 A 
HETATM    4  C6  UNL     1     -39.160 -17.138 -14.497  1.00  0.00    -0.027 A 
HETATM    5  C7  UNL     1     -40.005 -18.399 -14.506  1.00  0.00     0.050 C 
HETATM    6  C8  UNL     1     -39.421 -16.069 -15.270  1.00  0.00     0.071 A 
ENDROOT
BRANCH   3   7
HETATM    7  C4  UNL     1     -37.553 -18.086 -12.704  1.00  0.00     0.206 C 
HETATM    8  C5  UNL     1     -36.047 -18.196 -12.961  1.00  0.00     0.051 C 
HETATM    9  F1  UNL     1     -37.693 -17.516 -11.441  1.00  0.00    -0.244 F 
ENDBRANCH   3   7
BRANCH   1  10
HETATM   10  S1  UNL     1     -38.647 -13.427 -16.058  1.00  0.00    -0.126 SA
HETATM   11  C1  UNL     1     -39.848 -12.409 -15.129  1.00  0.00     0.096 C 
ENDBRANCH   1  10
BRANCH   6  12
HETATM   12  C9  UNL     1     -40.571 -15.976 -16.222  1.00  0.00     0.211 C 
HETATM   13  O1  UNL     1     -41.658 -15.449 -15.891  1.00  0.00    -0.644 OA
HETATM   14  O2  UNL     1     -40.373 -16.500 -17.483  1.00  0.00    -0.644 OA
ENDBRANCH   6  12
TORSDOF 3
ENDMDL
MODEL 3
REMARK VINA RESULT: -4.841031468      4.305      5.092
REMARK  3 active torsions:
REMARK  status: ('A' for Active; 'I' for Inactive)
REMARK    1  A    between atoms: S1_2  and  C2_3 
REMARK    2  A    between atoms: C3_5  and  C4_6 
REMARK    3  A    between atoms: C8_11  and  C9_12 
ROOT
HETATM    1  C2  UNL     1     -35.887 -14.871 -12.999  1.00  0.00     0.059 A 
HETATM    2  S2  UNL     1     -36.820 -16.189 -13.551  1.00  0.00    -0.083 SA
HETATM    3  C3  UNL     1     -36.775 -17.163 -12.152  1.00  0.00     0.024 A 
HETATM    4  C6  UNL     1     -36.024 -16.419 -11.283  1.00  0.00    -0.027 A 
HETATM    5  C7  UNL     1     -35.762 -16.950  -9.886  1.00  0.00     0.050 C 
HETATM    6  C8  UNL     1     -35.564 -15.233 -11.720  1.00  0.00     0.071 A 
ENDROOT
BRANCH   3   7
HETATM    7  C4  UNL     1     -37.392 -18.511 -11.952  1.00  0.00     0.206 C 
HETATM    8  C5  UNL     1     -38.341 -18.724 -13.134  1.00  0.00     0.051 C 
HETATM    9  F1  UNL     1     -36.361 -19.435 -12.106  1.00  0.00    -0.244 F 
ENDBRANCH   3   7
BRANCH   1  10
HETATM   10  S1  UNL     1     -35.420 -13.359 -13.881  1.00  0.00    -0.126 SA
HETATM   11  C1  UNL     1     -36.478 -13.322 -15.371  1.00  0.00     0.096 C 
ENDBRANCH   1  10
BRANCH   6  12
HETATM   12  C9  UNL     1     -34.733 -14.296 -10.902  1.00  0.00     0.211 C 
HETATM   13  O1  UNL     1     -33.571 -14.594 -10.540  1.00  0.00    -0.644 OA
HETATM   14  O2  UNL     1     -35.311 -13.089 -10.567  1.00  0.00    -0.644 OA
ENDBRANCH   6  12
TORSDOF 3
ENDMDL
MODEL 4
REMARK VINA RESULT: -4.822634926      2.044      2.643
REMARK  3 active torsions:
REMARK  status: ('A' for Active; 'I' for Inactive)
REMARK    1  A    between atoms: S1_2  and  C2_3 
REMARK    2  A    between atoms: C3_5  and  C4_6 
REMARK    3  A    between atoms: C8_11  and  C9_12 
ROOT
HETATM    1  C2  UNL     1     -38.746 -16.186 -14.509  1.00  0.00     0.059 A 
HETATM    2  S2  UNL     1     -37.461 -15.345 -13.765  1.00  0.00    -0.083 SA
HETATM    3  C3  UNL     1     -36.771 -16.627 -12.877  1.00  0.00     0.024 A 
HETATM    4  C6  UNL     1     -37.576 -17.688 -13.194  1.00  0.00    -0.027 A 
HETATM    5  C7  UNL     1     -37.273 -19.051 -12.599  1.00  0.00     0.050 C 
HETATM    6  C8  UNL     1     -38.598 -17.461 -14.037  1.00  0.00     0.071 A 
ENDROOT
BRANCH   3   7
HETATM    7  C4  UNL     1     -35.589 -16.578 -11.961  1.00  0.00     0.206 C 
HETATM    8  C5  UNL     1     -34.875 -15.257 -12.259  1.00  0.00     0.051 C 
HETATM    9  F1  UNL     1     -36.104 -16.463 -10.672  1.00  0.00    -0.244 F 
ENDBRANCH   3   7
BRANCH   1  10
HETATM   10  S1  UNL     1     -40.014 -15.556 -15.639  1.00  0.00    -0.126 SA
HETATM   11  C1  UNL     1     -39.368 -15.880 -17.318  1.00  0.00     0.096 C 
ENDBRANCH   1  10
BRANCH   6  12
HETATM   12  C9  UNL     1     -39.569 -18.506 -14.488  1.00  0.00     0.211 C 
HETATM   13  O1  UNL     1     -40.517 -18.881 -13.759  1.00  0.00    -0.644 OA
HETATM   14  O2  UNL     1     -39.367 -19.036 -15.746  1.00  0.00    -0.644 OA
ENDBRANCH   6  12
TORSDOF 3
ENDMDL
MODEL 5
REMARK VINA RESULT: -4.747712526      3.316      4.011
REMARK  3 active torsions:
REMARK  status: ('A' for Active; 'I' for Inactive)
REMARK    1  A    between atoms: S1_2  and  C2_3 
REMARK    2  A    between atoms: C3_5  and  C4_6 
REMARK    3  A    between atoms: C8_11  and  C9_12 
ROOT
HETATM    1  C2  UNL     1     -37.426 -15.418 -14.117  1.00  0.00     0.059 A 
HETATM    2  S2  UNL     1     -38.616 -16.577 -14.510  1.00  0.00    -0.083 SA
HETATM    3  C3  UNL     1     -38.278 -17.737 -13.307  1.00  0.00     0.024 A 
HETATM    4  C6  UNL     1     -37.234 -17.176 -12.623  1.00  0.00    -0.027 A 
HETATM    5  C7  UNL     1     -36.642 -17.915 -11.437  1.00  0.00     0.050 C 
HETATM    6  C8  UNL     1     -36.792 -15.977 -13.042  1.00  0.00     0.071 A 
ENDROOT
BRANCH   3   7
HETATM    7  C4  UNL     1     -38.955 -19.052 -13.084  1.00  0.00     0.206 C 
HETATM    8  C5  UNL     1     -40.300 -18.967 -13.812  1.00  0.00     0.051 C 
HETATM    9  F1  UNL     1     -38.198 -19.998 -13.771  1.00  0.00    -0.244 F 
ENDBRANCH   3   7
BRANCH   1  10
HETATM   10  S1  UNL     1     -37.069 -13.836 -14.922  1.00  0.00    -0.126 SA
HETATM   11  C1  UNL     1     -36.809 -14.239 -16.686  1.00  0.00     0.096 C 
ENDBRANCH   1  10
BRANCH   6  12
HETATM   12  C9  UNL     1     -35.663 -15.225 -12.409  1.00  0.00     0.211 C 
HETATM   13  O1  UNL     1     -34.468 -15.466 -12.698  1.00  0.00    -0.644 OA
HETATM   14  O2  UNL     1     -36.007 -14.254 -11.491  1.00  0.00    -0.644 OA
ENDBRANCH   6  12
TORSDOF 3
ENDMDL
