MODEL 1
REMARK VINA RESULT: -4.698296509      0.000      0.000
REMARK  3 active torsions:
REMARK  status: ('A' for Active; 'I' for Inactive)
REMARK    1  A    between atoms: N1_8  and  C6_9 
REMARK    2  A    between atoms: C6_9  and  C7_10 
REMARK    3  A    between atoms: C7_10  and  C8_11 
ROOT
HETATM    1  C1  UNL     1     -36.706 -19.212 -11.891  1.00  0.00     0.065 C 
HETATM    2  C2  UNL     1     -37.599 -18.467 -12.769  1.00  0.00     0.042 C 
HETATM    3 CL1  UNL     1     -39.131 -19.338 -13.160  1.00  0.00    -0.086 Cl
HETATM    4  C3  UNL     1     -37.495 -17.288 -13.317  1.00  0.00     0.093 A 
HETATM    5  S1  UNL     1     -38.815 -16.610 -14.404  1.00  0.00    -0.081 SA
HETATM    6  C4  UNL     1     -37.952 -15.122 -14.799  1.00  0.00     0.069 A 
HETATM    7  C5  UNL     1     -36.825 -15.152 -14.155  1.00  0.00     0.099 A 
HETATM    8  N1  UNL     1     -36.532 -16.258 -13.354  1.00  0.00    -0.349 N 
ENDROOT
BRANCH   8   9
HETATM    9  C6  UNL     1     -35.312 -16.291 -12.512  1.00  0.00     0.139 C 
BRANCH   9  10
HETATM   10  C7  UNL     1     -35.561 -15.747 -11.138  1.00  0.00     0.133 C 
BRANCH  10  11
HETATM   11  C8  UNL     1     -34.710 -14.524 -10.925  1.00  0.00     0.174 C 
HETATM   12  O1  UNL     1     -35.077 -13.463 -11.489  1.00  0.00    -0.648 OA
HETATM   13  O2  UNL     1     -33.567 -14.518 -10.154  1.00  0.00    -0.648 OA
ENDBRANCH  10  11
ENDBRANCH   9  10
ENDBRANCH   8   9
TORSDOF 3
ENDMDL
MODEL 2
REMARK VINA RESULT: -4.680044894      4.047      5.029
REMARK  3 active torsions:
REMARK  status: ('A' for Active; 'I' for Inactive)
REMARK    1  A    between atoms: N1_8  and  C6_9 
REMARK    2  A    between atoms: C6_9  and  C7_10 
REMARK    3  A    between atoms: C7_10  and  C8_11 
ROOT
HETATM    1  C1  UNL     1     -36.023 -18.090 -12.786  1.00  0.00     0.065 C 
HETATM    2  C2  UNL     1     -36.389 -16.737 -13.183  1.00  0.00     0.042 C 
HETATM    3 CL1  UNL     1     -35.226 -15.473 -12.629  1.00  0.00    -0.086 Cl
HETATM    4  C3  UNL     1     -37.399 -16.276 -13.868  1.00  0.00     0.093 A 
HETATM    5  S1  UNL     1     -37.594 -14.479 -14.208  1.00  0.00    -0.081 SA
HETATM    6  C4  UNL     1     -39.140 -14.638 -15.044  1.00  0.00     0.069 A 
HETATM    7  C5  UNL     1     -39.431 -15.903 -15.070  1.00  0.00     0.099 A 
HETATM    8  N1  UNL     1     -38.553 -16.812 -14.478  1.00  0.00    -0.349 N 
ENDROOT
BRANCH   8   9
HETATM    9  C6  UNL     1     -38.782 -18.274 -14.577  1.00  0.00     0.139 C 
BRANCH   9  10
HETATM   10  C7  UNL     1     -40.101 -18.679 -13.993  1.00  0.00     0.133 C 
BRANCH  10  11
HETATM   11  C8  UNL     1     -39.883 -19.772 -12.981  1.00  0.00     0.174 C 
HETATM   12  O1  UNL     1     -38.703 -20.166 -12.805  1.00  0.00    -0.648 OA
HETATM   13  O2  UNL     1     -40.903 -20.349 -12.255  1.00  0.00    -0.648 OA
ENDBRANCH  10  11
ENDBRANCH   9  10
ENDBRANCH   8   9
TORSDOF 3
ENDMDL
MODEL 3
REMARK VINA RESULT: -4.675266942      1.400      1.717
REMARK  3 active torsions:
REMARK  status: ('A' for Active; 'I' for Inactive)
REMARK    1  A    between atoms: N1_8  and  C6_9 
REMARK    2  A    between atoms: C6_9  and  C7_10 
REMARK    3  A    between atoms: C7_10  and  C8_11 
ROOT
HETATM    1  C1  UNL     1     -38.209 -19.686 -12.838  1.00  0.00     0.065 C 
HETATM    2  C2  UNL     1     -38.586 -18.475 -13.556  1.00  0.00     0.042 C 
HETATM    3 CL1  UNL     1     -40.146 -18.615 -14.454  1.00  0.00    -0.086 Cl
HETATM    4  C3  UNL     1     -38.005 -17.312 -13.663  1.00  0.00     0.093 A 
HETATM    5  S1  UNL     1     -38.739 -15.956 -14.666  1.00  0.00    -0.081 SA
HETATM    6  C4  UNL     1     -37.411 -14.824 -14.406  1.00  0.00     0.069 A 
HETATM    7  C5  UNL     1     -36.551 -15.416 -13.634  1.00  0.00     0.099 A 
HETATM    8  N1  UNL     1     -36.811 -16.718 -13.204  1.00  0.00    -0.349 N 
ENDROOT
BRANCH   8   9
HETATM    9  C6  UNL     1     -35.918 -17.396 -12.234  1.00  0.00     0.139 C 
BRANCH   9  10
HETATM   10  C7  UNL     1     -36.366 -17.192 -10.818  1.00  0.00     0.133 C 
BRANCH  10  11
HETATM   11  C8  UNL     1     -35.348 -16.356 -10.089  1.00  0.00     0.174 C 
HETATM   12  O1  UNL     1     -35.118 -16.646  -8.888  1.00  0.00    -0.648 OA
HETATM   13  O2  UNL     1     -34.671 -15.306 -10.671  1.00  0.00    -0.648 OA
ENDBRANCH  10  11
ENDBRANCH   9  10
ENDBRANCH   8   9
TORSDOF 3
ENDMDL
MODEL 4
REMARK VINA RESULT: -4.602511444      4.215      5.557
REMARK  3 active torsions:
REMARK  status: ('A' for Active; 'I' for Inactive)
REMARK    1  A    between atoms: N1_8  and  C6_9 
REMARK    2  A    between atoms: C6_9  and  C7_10 
REMARK    3  A    between atoms: C7_10  and  C8_11 
ROOT
HETATM    1  C1  UNL     1     -37.325 -15.186 -14.948  1.00  0.00     0.065 C 
HETATM    2  C2  UNL     1     -36.616 -15.188 -13.676  1.00  0.00     0.042 C 
HETATM    3 CL1  UNL     1     -35.655 -13.690 -13.373  1.00  0.00    -0.086 Cl
HETATM    4  C3  UNL     1     -36.553 -16.071 -12.717  1.00  0.00     0.093 A 
HETATM    5  S1  UNL     1     -35.547 -15.783 -11.205  1.00  0.00    -0.081 SA
HETATM    6  C4  UNL     1     -35.878 -17.360 -10.485  1.00  0.00     0.069 A 
HETATM    7  C5  UNL     1     -36.673 -17.989 -11.297  1.00  0.00     0.099 A 
HETATM    8  N1  UNL     1     -37.069 -17.362 -12.479  1.00  0.00    -0.349 N 
ENDROOT
BRANCH   8   9
HETATM    9  C6  UNL     1     -38.061 -17.991 -13.384  1.00  0.00     0.139 C 
BRANCH   9  10
HETATM   10  C7  UNL     1     -38.519 -19.326 -12.879  1.00  0.00     0.133 C 
BRANCH  10  11
HETATM   11  C8  UNL     1     -39.998 -19.469 -13.118  1.00  0.00     0.174 C 
HETATM   12  O1  UNL     1     -40.504 -18.765 -14.027  1.00  0.00    -0.648 OA
HETATM   13  O2  UNL     1     -40.806 -20.321 -12.396  1.00  0.00    -0.648 OA
ENDBRANCH  10  11
ENDBRANCH   9  10
ENDBRANCH   8   9
TORSDOF 3
ENDMDL
MODEL 5
REMARK VINA RESULT: -4.593545084      0.903      1.063
REMARK  3 active torsions:
REMARK  status: ('A' for Active; 'I' for Inactive)
REMARK    1  A    between atoms: N1_8  and  C6_9 
REMARK    2  A    between atoms: C6_9  and  C7_10 
REMARK    3  A    between atoms: C7_10  and  C8_11 
ROOT
HETATM    1  C1  UNL     1     -37.481 -19.173 -12.303  1.00  0.00     0.065 C 
HETATM    2  C2  UNL     1     -38.183 -18.263 -13.199  1.00  0.00     0.042 C 
HETATM    3 CL1  UNL     1     -39.784 -18.881 -13.759  1.00  0.00    -0.086 Cl
HETATM    4  C3  UNL     1     -37.867 -17.086 -13.664  1.00  0.00     0.093 A 
HETATM    5  S1  UNL     1     -38.981 -16.169 -14.805  1.00  0.00    -0.081 SA
HETATM    6  C4  UNL     1     -37.885 -14.806 -15.042  1.00  0.00     0.069 A 
HETATM    7  C5  UNL     1     -36.832 -15.033 -14.316  1.00  0.00     0.099 A 
HETATM    8  N1  UNL     1     -36.768 -16.207 -13.565  1.00  0.00    -0.349 N 
ENDROOT
BRANCH   8   9
HETATM    9  C6  UNL     1     -35.641 -16.460 -12.635  1.00  0.00     0.139 C 
BRANCH   9  10
HETATM   10  C7  UNL     1     -34.926 -15.198 -12.259  1.00  0.00     0.133 C 
BRANCH  10  11
HETATM   11  C8  UNL     1     -34.637 -15.211 -10.781  1.00  0.00     0.174 C 
HETATM   12  O1  UNL     1     -35.255 -16.051 -10.082  1.00  0.00    -0.648 OA
HETATM   13  O2  UNL     1     -33.743 -14.355 -10.175  1.00  0.00    -0.648 OA
ENDBRANCH  10  11
ENDBRANCH   9  10
ENDBRANCH   8   9
TORSDOF 3
ENDMDL
