MODEL 1
REMARK VINA RESULT: -4.238691545      0.000      0.000
REMARK  5 active torsions:
REMARK  status: ('A' for Active; 'I' for Inactive)
REMARK    1  A    between atoms: C2_4  and  S1_6 
REMARK    2  A    between atoms: S1_6  and  C3_7 
REMARK    3  A    between atoms: C3_7  and  C4_8 
REMARK    4  A    between atoms: C4_8  and  S2_9 
REMARK    5  A    between atoms: S2_9  and  C5_10 
ROOT
HETATM    1  C3  UNL     1     -35.255 -16.578  -9.816  1.00  0.00     0.092 C 
ENDROOT
BRANCH   1   2
HETATM    2  S1  UNL     1     -35.155 -15.301 -11.072  1.00  0.00    -0.097 SA
BRANCH   2   3
HETATM    3  C2  UNL     1     -34.513 -13.800 -10.362  1.00  0.00     0.149 C 
HETATM    4  N1  UNL     1     -34.992 -12.648 -10.742  1.00  0.00    -0.377 N 
HETATM    5  C1  UNL     1     -36.040 -12.629 -11.737  1.00  0.00     0.148 C 
ATOM      6  H1  UNL     1     -34.635 -11.779 -10.346  1.00  0.00     0.160 HD
HETATM    7  N2  UNL     1     -33.489 -13.880  -9.394  1.00  0.00    -0.075 NA
ENDBRANCH   2   3
ENDBRANCH   1   2
BRANCH   1   8
HETATM    8  C4  UNL     1     -36.257 -17.622 -10.233  1.00  0.00     0.086 C 
BRANCH   8   9
HETATM    9  S2  UNL     1     -37.463 -16.934 -11.333  1.00  0.00    -0.143 SA
BRANCH   9  10
HETATM   10  C5  UNL     1     -37.578 -17.588 -12.966  1.00  0.00     0.077 C 
HETATM   11  C6  UNL     1     -38.465 -18.808 -13.009  1.00  0.00     0.044 C 
HETATM   12  C7  UNL     1     -38.103 -16.608 -13.992  1.00  0.00     0.044 C 
HETATM   13 CL1  UNL     1     -35.936 -18.150 -13.458  1.00  0.00    -0.108 Cl
ENDBRANCH   9  10
ENDBRANCH   8   9
ENDBRANCH   1   8
TORSDOF 5
ENDMDL
MODEL 2
REMARK VINA RESULT: -4.209830276      4.921      6.604
REMARK  5 active torsions:
REMARK  status: ('A' for Active; 'I' for Inactive)
REMARK    1  A    between atoms: C2_4  and  S1_6 
REMARK    2  A    between atoms: S1_6  and  C3_7 
REMARK    3  A    between atoms: C3_7  and  C4_8 
REMARK    4  A    between atoms: C4_8  and  S2_9 
REMARK    5  A    between atoms: S2_9  and  C5_10 
ROOT
HETATM    1  C3  UNL     1     -39.667 -18.639 -15.404  1.00  0.00     0.092 C 
ENDROOT
BRANCH   1   2
HETATM    2  S1  UNL     1     -39.865 -16.977 -16.050  1.00  0.00    -0.097 SA
BRANCH   2   3
HETATM    3  C2  UNL     1     -39.562 -16.968 -17.804  1.00  0.00     0.149 C 
HETATM    4  N1  UNL     1     -39.032 -15.916 -18.363  1.00  0.00    -0.377 N 
HETATM    5  C1  UNL     1     -38.702 -14.782 -17.531  1.00  0.00     0.148 C 
ATOM      6  H1  UNL     1     -38.853 -15.895 -19.367  1.00  0.00     0.160 HD
HETATM    7  N2  UNL     1     -39.905 -18.106 -18.567  1.00  0.00    -0.075 NA
ENDBRANCH   2   3
ENDBRANCH   1   2
BRANCH   1   8
HETATM    8  C4  UNL     1     -39.804 -18.620 -13.904  1.00  0.00     0.086 C 
BRANCH   8   9
HETATM    9  S2  UNL     1     -38.258 -18.995 -13.124  1.00  0.00    -0.143 SA
BRANCH   9  10
HETATM   10  C5  UNL     1     -37.346 -17.674 -12.394  1.00  0.00     0.077 C 
HETATM   11  C6  UNL     1     -37.963 -16.336 -12.715  1.00  0.00     0.044 C 
HETATM   12  C7  UNL     1     -37.220 -17.766 -10.889  1.00  0.00     0.044 C 
HETATM   13 CL1  UNL     1     -35.702 -17.655 -13.135  1.00  0.00    -0.108 Cl
ENDBRANCH   9  10
ENDBRANCH   8   9
ENDBRANCH   1   8
TORSDOF 5
ENDMDL
MODEL 3
REMARK VINA RESULT: -4.206031495      1.919      3.149
REMARK  5 active torsions:
REMARK  status: ('A' for Active; 'I' for Inactive)
REMARK    1  A    between atoms: C2_4  and  S1_6 
REMARK    2  A    between atoms: S1_6  and  C3_7 
REMARK    3  A    between atoms: C3_7  and  C4_8 
REMARK    4  A    between atoms: C4_8  and  S2_9 
REMARK    5  A    between atoms: S2_9  and  C5_10 
ROOT
HETATM    1  C3  UNL     1     -34.935 -13.993 -11.136  1.00  0.00     0.092 C 
ENDROOT
BRANCH   1   2
HETATM    2  S1  UNL     1     -34.493 -15.258  -9.943  1.00  0.00    -0.097 SA
BRANCH   2   3
HETATM    3  C2  UNL     1     -33.610 -14.527  -8.582  1.00  0.00     0.149 C 
HETATM    4  N1  UNL     1     -33.419 -15.215  -7.491  1.00  0.00    -0.377 N 
HETATM    5  C1  UNL     1     -33.934 -16.563  -7.424  1.00  0.00     0.148 C 
ATOM      6  H1  UNL     1     -32.915 -14.810  -6.702  1.00  0.00     0.160 HD
HETATM    7  N2  UNL     1     -33.128 -13.205  -8.705  1.00  0.00    -0.075 NA
ENDBRANCH   2   3
ENDBRANCH   1   2
BRANCH   1   8
HETATM    8  C4  UNL     1     -35.311 -14.638 -12.444  1.00  0.00     0.086 C 
BRANCH   8   9
HETATM    9  S2  UNL     1     -36.939 -15.333 -12.358  1.00  0.00    -0.143 SA
BRANCH   9  10
HETATM   10  C5  UNL     1     -37.102 -17.089 -12.367  1.00  0.00     0.077 C 
HETATM   11  C6  UNL     1     -35.910 -17.748 -13.017  1.00  0.00     0.044 C 
HETATM   12  C7  UNL     1     -37.267 -17.703 -10.994  1.00  0.00     0.044 C 
HETATM   13 CL1  UNL     1     -38.525 -17.512 -13.390  1.00  0.00    -0.108 Cl
ENDBRANCH   9  10
ENDBRANCH   8   9
ENDBRANCH   1   8
TORSDOF 5
ENDMDL
MODEL 4
REMARK VINA RESULT: -4.196607799      1.952      3.064
REMARK  5 active torsions:
REMARK  status: ('A' for Active; 'I' for Inactive)
REMARK    1  A    between atoms: C2_4  and  S1_6 
REMARK    2  A    between atoms: S1_6  and  C3_7 
REMARK    3  A    between atoms: C3_7  and  C4_8 
REMARK    4  A    between atoms: C4_8  and  S2_9 
REMARK    5  A    between atoms: S2_9  and  C5_10 
ROOT
HETATM    1  C3  UNL     1     -34.906 -13.974 -11.114  1.00  0.00     0.092 C 
ENDROOT
BRANCH   1   2
HETATM    2  S1  UNL     1     -34.517 -15.255  -9.919  1.00  0.00    -0.097 SA
BRANCH   2   3
HETATM    3  C2  UNL     1     -33.610 -14.559  -8.556  1.00  0.00     0.149 C 
HETATM    4  N1  UNL     1     -33.421 -15.265  -7.476  1.00  0.00    -0.377 N 
HETATM    5  C1  UNL     1     -33.960 -16.604  -7.423  1.00  0.00     0.148 C 
ATOM      6  H1  UNL     1     -32.904 -14.880  -6.686  1.00  0.00     0.160 HD
HETATM    7  N2  UNL     1     -33.106 -13.244  -8.665  1.00  0.00    -0.075 NA
ENDBRANCH   2   3
ENDBRANCH   1   2
BRANCH   1   8
HETATM    8  C4  UNL     1     -35.287 -14.604 -12.428  1.00  0.00     0.086 C 
BRANCH   8   9
HETATM    9  S2  UNL     1     -36.913 -15.303 -12.344  1.00  0.00    -0.143 SA
BRANCH   9  10
HETATM   10  C5  UNL     1     -37.078 -17.056 -12.449  1.00  0.00     0.077 C 
HETATM   11  C6  UNL     1     -38.309 -17.446 -13.229  1.00  0.00     0.044 C 
HETATM   12  C7  UNL     1     -35.897 -17.752 -13.088  1.00  0.00     0.044 C 
HETATM   13 CL1  UNL     1     -37.322 -17.694 -10.781  1.00  0.00    -0.108 Cl
ENDBRANCH   9  10
ENDBRANCH   8   9
ENDBRANCH   1   8
TORSDOF 5
ENDMDL
MODEL 5
REMARK VINA RESULT: -4.109731596      1.866      2.846
REMARK  5 active torsions:
REMARK  status: ('A' for Active; 'I' for Inactive)
REMARK    1  A    between atoms: C2_4  and  S1_6 
REMARK    2  A    between atoms: S1_6  and  C3_7 
REMARK    3  A    between atoms: C3_7  and  C4_8 
REMARK    4  A    between atoms: C4_8  and  S2_9 
REMARK    5  A    between atoms: S2_9  and  C5_10 
ROOT
HETATM    1  C3  UNL     1     -36.563 -14.250 -14.092  1.00  0.00     0.092 C 
ENDROOT
BRANCH   1   2
HETATM    2  S1  UNL     1     -36.912 -13.769 -12.400  1.00  0.00    -0.097 SA
BRANCH   2   3
HETATM    3  C2  UNL     1     -35.409 -13.765 -11.447  1.00  0.00     0.149 C 
HETATM    4  N1  UNL     1     -35.083 -12.708 -10.757  1.00  0.00    -0.377 N 
HETATM    5  C1  UNL     1     -35.964 -11.564 -10.788  1.00  0.00     0.148 C 
ATOM      6  H1  UNL     1     -34.224 -12.689 -10.207  1.00  0.00     0.160 HD
HETATM    7  N2  UNL     1     -34.586 -14.913 -11.456  1.00  0.00    -0.075 NA
ENDBRANCH   2   3
ENDBRANCH   1   2
BRANCH   1   8
HETATM    8  C4  UNL     1     -37.407 -15.441 -14.466  1.00  0.00     0.086 C 
BRANCH   8   9
HETATM    9  S2  UNL     1     -38.093 -16.205 -13.021  1.00  0.00    -0.143 SA
BRANCH   9  10
HETATM   10  C5  UNL     1     -37.299 -17.641 -12.376  1.00  0.00     0.077 C 
HETATM   11  C6  UNL     1     -35.970 -17.883 -13.047  1.00  0.00     0.044 C 
HETATM   12  C7  UNL     1     -37.052 -17.595 -10.884  1.00  0.00     0.044 C 
HETATM   13 CL1  UNL     1     -38.325 -19.070 -12.771  1.00  0.00    -0.108 Cl
ENDBRANCH   9  10
ENDBRANCH   8   9
ENDBRANCH   1   8
TORSDOF 5
ENDMDL
