MODEL 1
REMARK VINA RESULT: -5.551439079      0.000      0.000
REMARK  5 active torsions:
REMARK  status: ('A' for Active; 'I' for Inactive)
REMARK    1  A    between atoms: C2_2  and  C5_5 
REMARK    2  A    between atoms: C6_8  and  C7_9 
REMARK    3  A    between atoms: C7_9  and  O1_10 
REMARK    4  A    between atoms: C7_9  and  C8_12 
REMARK    5  A    between atoms: C8_12  and  C9_13 
ROOT
HETATM    1  C5  UNL     1     -35.649 -16.167 -10.974  1.00  0.00     0.058 A 
HETATM    2  N1  UNL     1     -35.153 -16.512  -9.807  1.00  0.00    -0.354 N 
ATOM      3  H1  UNL     1     -35.389 -17.417  -9.400  1.00  0.00     0.166 HD
HETATM    4  C6  UNL     1     -34.361 -15.701  -9.168  1.00  0.00     0.045 A 
HETATM    5  C10 UNL     1     -34.081 -14.496  -9.768  1.00  0.00     0.079 A 
HETATM    6  S1  UNL     1     -34.978 -14.614 -11.214  1.00  0.00    -0.086 SA
ENDROOT
BRANCH   4   7
HETATM    7  C7  UNL     1     -33.786 -16.060  -7.804  1.00  0.00     0.169 C 
BRANCH   7   8
HETATM    8  O1  UNL     1     -32.958 -17.178  -8.063  1.00  0.00    -0.389 OA
ATOM      9  H1  UNL     1     -32.141 -16.967  -7.625  1.00  0.00     0.210 HD
ENDBRANCH   7   8
BRANCH   7  10
HETATM   10  C8  UNL     1     -34.898 -16.461  -6.895  1.00  0.00     0.053 C 
BRANCH  10  11
HETATM   11  C9  UNL     1     -34.866 -15.626  -5.607  1.00  0.00     0.117 C 
HETATM   12 CL1  UNL     1     -35.330 -13.968  -6.047  1.00  0.00    -0.130 Cl
ENDBRANCH  10  11
ENDBRANCH   7  10
ENDBRANCH   4   7
BRANCH   1  13
HETATM   13  C2  UNL     1     -36.595 -16.974 -11.844  1.00  0.00    -0.002 C 
HETATM   14  C1  UNL     1     -37.066 -18.134 -11.004  1.00  0.00     0.021 C 
HETATM   15  C3  UNL     1     -35.829 -17.540 -13.016  1.00  0.00     0.021 C 
HETATM   16  C4  UNL     1     -37.764 -16.164 -12.305  1.00  0.00     0.021 C 
ENDBRANCH   1  13
TORSDOF 5
ENDMDL
MODEL 2
REMARK VINA RESULT: -5.509710509      0.085      1.138
REMARK  5 active torsions:
REMARK  status: ('A' for Active; 'I' for Inactive)
REMARK    1  A    between atoms: C2_2  and  C5_5 
REMARK    2  A    between atoms: C6_8  and  C7_9 
REMARK    3  A    between atoms: C7_9  and  O1_10 
REMARK    4  A    between atoms: C7_9  and  C8_12 
REMARK    5  A    between atoms: C8_12  and  C9_13 
ROOT
HETATM    1  C5  UNL     1     -35.602 -16.230 -10.929  1.00  0.00     0.058 A 
HETATM    2  N1  UNL     1     -35.123 -16.563  -9.751  1.00  0.00    -0.354 N 
ATOM      3  H1  UNL     1     -35.365 -17.465  -9.339  1.00  0.00     0.166 HD
HETATM    4  C6  UNL     1     -34.342 -15.744  -9.108  1.00  0.00     0.045 A 
HETATM    5  C10 UNL     1     -34.055 -14.545  -9.716  1.00  0.00     0.079 A 
HETATM    6  S1  UNL     1     -34.930 -14.679 -11.173  1.00  0.00    -0.086 SA
ENDROOT
BRANCH   4   7
HETATM    7  C7  UNL     1     -33.788 -16.089  -7.733  1.00  0.00     0.169 C 
BRANCH   7   8
HETATM    8  O1  UNL     1     -32.958 -17.212  -7.967  1.00  0.00    -0.389 OA
ATOM      9  H1  UNL     1     -32.743 -17.526  -7.096  1.00  0.00     0.210 HD
ENDBRANCH   7   8
BRANCH   7  10
HETATM   10  C8  UNL     1     -34.913 -16.477  -6.835  1.00  0.00     0.053 C 
BRANCH  10  11
HETATM   11  C9  UNL     1     -34.904 -15.621  -5.561  1.00  0.00     0.117 C 
HETATM   12 CL1  UNL     1     -35.373 -13.974  -6.034  1.00  0.00    -0.130 Cl
ENDBRANCH  10  11
ENDBRANCH   7  10
ENDBRANCH   4   7
BRANCH   1  13
HETATM   13  C2  UNL     1     -36.533 -17.047 -11.805  1.00  0.00    -0.002 C 
HETATM   14  C1  UNL     1     -37.671 -16.135 -12.187  1.00  0.00     0.021 C 
HETATM   15  C3  UNL     1     -37.110 -18.181 -10.992  1.00  0.00     0.021 C 
HETATM   16  C4  UNL     1     -35.849 -17.557 -13.032  1.00  0.00     0.021 C 
ENDBRANCH   1  13
TORSDOF 5
ENDMDL
MODEL 3
REMARK VINA RESULT: -5.080043095      1.534      1.861
REMARK  5 active torsions:
REMARK  status: ('A' for Active; 'I' for Inactive)
REMARK    1  A    between atoms: C2_2  and  C5_5 
REMARK    2  A    between atoms: C6_8  and  C7_9 
REMARK    3  A    between atoms: C7_9  and  O1_10 
REMARK    4  A    between atoms: C7_9  and  C8_12 
REMARK    5  A    between atoms: C8_12  and  C9_13 
ROOT
HETATM    1  C5  UNL     1     -36.145 -16.047 -11.966  1.00  0.00     0.058 A 
HETATM    2  N1  UNL     1     -35.506 -15.861 -10.833  1.00  0.00    -0.354 N 
ATOM      3  H1  UNL     1     -35.442 -16.620 -10.154  1.00  0.00     0.166 HD
HETATM    4  C6  UNL     1     -34.956 -14.711 -10.575  1.00  0.00     0.045 A 
HETATM    5  C10 UNL     1     -35.079 -13.729 -11.529  1.00  0.00     0.079 A 
HETATM    6  S1  UNL     1     -35.978 -14.531 -12.735  1.00  0.00    -0.086 SA
ENDROOT
BRANCH   4   7
HETATM    7  C7  UNL     1     -34.227 -14.454  -9.262  1.00  0.00     0.169 C 
BRANCH   7   8
HETATM    8  O1  UNL     1     -33.208 -13.534  -9.607  1.00  0.00    -0.389 OA
ATOM      9  H1  UNL     1     -32.471 -13.791  -9.066  1.00  0.00     0.210 HD
ENDBRANCH   7   8
BRANCH   7  10
HETATM   10  C8  UNL     1     -33.612 -15.727  -8.788  1.00  0.00     0.053 C 
BRANCH  10  11
HETATM   11  C9  UNL     1     -34.274 -16.190  -7.482  1.00  0.00     0.117 C 
HETATM   12 CL1  UNL     1     -34.876 -14.736  -6.657  1.00  0.00    -0.130 Cl
ENDBRANCH  10  11
ENDBRANCH   7  10
ENDBRANCH   4   7
BRANCH   1  13
HETATM   13  C2  UNL     1     -36.856 -17.307 -12.423  1.00  0.00    -0.002 C 
HETATM   14  C1  UNL     1     -37.164 -18.101 -11.179  1.00  0.00     0.021 C 
HETATM   15  C3  UNL     1     -35.913 -18.130 -13.268  1.00  0.00     0.021 C 
HETATM   16  C4  UNL     1     -38.118 -17.004 -13.165  1.00  0.00     0.021 C 
ENDBRANCH   1  13
TORSDOF 5
ENDMDL
MODEL 4
REMARK VINA RESULT: -4.956654726      5.789      7.798
REMARK  5 active torsions:
REMARK  status: ('A' for Active; 'I' for Inactive)
REMARK    1  A    between atoms: C2_2  and  C5_5 
REMARK    2  A    between atoms: C6_8  and  C7_9 
REMARK    3  A    between atoms: C7_9  and  O1_10 
REMARK    4  A    between atoms: C7_9  and  C8_12 
REMARK    5  A    between atoms: C8_12  and  C9_13 
ROOT
HETATM    1  C5  UNL     1     -38.056 -17.971 -13.079  1.00  0.00     0.058 A 
HETATM    2  N1  UNL     1     -38.576 -17.195 -14.003  1.00  0.00    -0.354 N 
ATOM      3  H1  UNL     1     -38.174 -16.274 -14.179  1.00  0.00     0.166 HD
HETATM    4  C6  UNL     1     -39.601 -17.599 -14.695  1.00  0.00     0.045 A 
HETATM    5  C10 UNL     1     -40.096 -18.850 -14.410  1.00  0.00     0.079 A 
HETATM    6  S1  UNL     1     -39.048 -19.359 -13.165  1.00  0.00    -0.086 SA
ENDROOT
BRANCH   4   7
HETATM    7  C7  UNL     1     -40.240 -16.717 -15.759  1.00  0.00     0.169 C 
BRANCH   7   8
HETATM    8  O1  UNL     1     -40.074 -17.448 -16.960  1.00  0.00    -0.389 OA
ATOM      9  H1  UNL     1     -40.552 -18.255 -16.808  1.00  0.00     0.210 HD
ENDBRANCH   7   8
BRANCH   7  10
HETATM   10  C8  UNL     1     -39.487 -15.433 -15.847  1.00  0.00     0.053 C 
BRANCH  10  11
HETATM   11  C9  UNL     1     -40.411 -14.246 -15.541  1.00  0.00     0.117 C 
HETATM   12 CL1  UNL     1     -42.064 -14.749 -15.954  1.00  0.00    -0.130 Cl
ENDBRANCH  10  11
ENDBRANCH   7  10
ENDBRANCH   4   7
BRANCH   1  13
HETATM   13  C2  UNL     1     -36.881 -17.658 -12.171  1.00  0.00    -0.002 C 
HETATM   14  C1  UNL     1     -36.536 -18.941 -11.459  1.00  0.00     0.021 C 
HETATM   15  C3  UNL     1     -37.315 -16.658 -11.126  1.00  0.00     0.021 C 
HETATM   16  C4  UNL     1     -35.697 -17.160 -12.935  1.00  0.00     0.021 C 
ENDBRANCH   1  13
TORSDOF 5
ENDMDL
MODEL 5
REMARK VINA RESULT: -4.925869248      5.820      7.806
REMARK  5 active torsions:
REMARK  status: ('A' for Active; 'I' for Inactive)
REMARK    1  A    between atoms: C2_2  and  C5_5 
REMARK    2  A    between atoms: C6_8  and  C7_9 
REMARK    3  A    between atoms: C7_9  and  O1_10 
REMARK    4  A    between atoms: C7_9  and  C8_12 
REMARK    5  A    between atoms: C8_12  and  C9_13 
ROOT
HETATM    1  C5  UNL     1     -38.043 -17.882 -13.100  1.00  0.00     0.058 A 
HETATM    2  N1  UNL     1     -38.591 -17.110 -14.011  1.00  0.00    -0.354 N 
ATOM      3  H1  UNL     1     -38.238 -16.164 -14.156  1.00  0.00     0.166 HD
HETATM    4  C6  UNL     1     -39.582 -17.549 -14.730  1.00  0.00     0.045 A 
HETATM    5  C10 UNL     1     -40.012 -18.832 -14.487  1.00  0.00     0.079 A 
HETATM    6  S1  UNL     1     -38.957 -19.319 -13.239  1.00  0.00    -0.086 SA
ENDROOT
BRANCH   4   7
HETATM    7  C7  UNL     1     -40.254 -16.673 -15.779  1.00  0.00     0.169 C 
BRANCH   7   8
HETATM    8  O1  UNL     1     -40.092 -17.396 -16.986  1.00  0.00    -0.389 OA
ATOM      9  H1  UNL     1     -40.660 -18.150 -16.882  1.00  0.00     0.210 HD
ENDBRANCH   7   8
BRANCH   7  10
HETATM   10  C8  UNL     1     -39.525 -15.376 -15.872  1.00  0.00     0.053 C 
BRANCH  10  11
HETATM   11  C9  UNL     1     -40.481 -14.203 -15.609  1.00  0.00     0.117 C 
HETATM   12 CL1  UNL     1     -42.130 -14.796 -15.902  1.00  0.00    -0.130 Cl
ENDBRANCH  10  11
ENDBRANCH   7  10
ENDBRANCH   4   7
BRANCH   1  13
HETATM   13  C2  UNL     1     -36.899 -17.532 -12.166  1.00  0.00    -0.002 C 
HETATM   14  C1  UNL     1     -37.293 -16.256 -11.466  1.00  0.00     0.021 C 
HETATM   15  C3  UNL     1     -35.663 -17.242 -12.984  1.00  0.00     0.021 C 
HETATM   16  C4  UNL     1     -36.641 -18.610 -11.164  1.00  0.00     0.021 C 
ENDBRANCH   1  13
TORSDOF 5
ENDMDL
