MODEL 1
REMARK VINA RESULT: -5.609611008      0.000      0.000
REMARK  7 active torsions:
REMARK  status: ('A' for Active; 'I' for Inactive)
REMARK    1  A    between atoms: C2_2  and  O1_3 
REMARK    2  A    between atoms: C2_2  and  C3_5 
REMARK    3  A    between atoms: C2_2  and  C9_13 
REMARK    4  A    between atoms: C4_6  and  C5_7 
REMARK    5  A    between atoms: C6_8  and  C7_9 
REMARK    6  A    between atoms: C9_13  and  C10_14 
REMARK    7  A    between atoms: C10_14  and  S1_15 
ROOT
HETATM    1  S1  UNL     1     -34.438 -16.765  -6.918  1.00  0.00    -0.051 SA
HETATM    2  C11 UNL     1     -34.419 -16.084  -5.301  1.00  0.00     0.133 C 
HETATM    3  N1  UNL     1     -34.426 -15.631  -4.237  1.00  0.00    -0.184 NA
ENDROOT
BRANCH   1   4
HETATM    4  C10 UNL     1     -33.637 -15.642  -8.112  1.00  0.00     0.094 C 
BRANCH   4   5
HETATM    5  C9  UNL     1     -34.146 -14.242  -7.882  1.00  0.00     0.062 C 
BRANCH   5   6
HETATM    6  C2  UNL     1     -34.025 -13.369  -9.090  1.00  0.00     0.118 C 
HETATM    7  C1  UNL     1     -34.929 -12.151  -8.843  1.00  0.00     0.060 C 
BRANCH   6   8
HETATM    8  O1  UNL     1     -32.746 -12.884  -9.224  1.00  0.00    -0.378 OA
ATOM      9  H1  UNL     1     -32.643 -12.645 -10.137  1.00  0.00     0.211 HD
ENDBRANCH   6   8
BRANCH   6  10
HETATM   10  C3  UNL     1     -34.414 -14.050 -10.322  1.00  0.00    -0.064 C 
HETATM   11  C4  UNL     1     -34.757 -14.605 -11.347  1.00  0.00    -0.075 C 
BRANCH  11  12
HETATM   12  C5  UNL     1     -35.191 -15.260 -12.566  1.00  0.00     0.065 C 
HETATM   13  C6  UNL     1     -35.583 -16.504 -12.533  1.00  0.00     0.014 C 
BRANCH  13  14
HETATM   14  C7  UNL     1     -35.587 -17.234 -11.289  1.00  0.00     0.075 C 
HETATM   15  C8  UNL     1     -36.707 -17.783 -10.827  1.00  0.00     0.267 C 
HETATM   16  F1  UNL     1     -37.830 -17.645 -11.535  1.00  0.00    -0.173 F 
HETATM   17  F2  UNL     1     -36.741 -18.472  -9.666  1.00  0.00    -0.173 F 
ENDBRANCH  13  14
ENDBRANCH  11  12
ENDBRANCH   6  10
ENDBRANCH   5   6
ENDBRANCH   4   5
ENDBRANCH   1   4
TORSDOF 7
ENDMDL
MODEL 2
REMARK VINA RESULT: -5.538071335      4.195      5.810
REMARK  7 active torsions:
REMARK  status: ('A' for Active; 'I' for Inactive)
REMARK    1  A    between atoms: C2_2  and  O1_3 
REMARK    2  A    between atoms: C2_2  and  C3_5 
REMARK    3  A    between atoms: C2_2  and  C9_13 
REMARK    4  A    between atoms: C4_6  and  C5_7 
REMARK    5  A    between atoms: C6_8  and  C7_9 
REMARK    6  A    between atoms: C9_13  and  C10_14 
REMARK    7  A    between atoms: C10_14  and  S1_15 
ROOT
HETATM    1  S1  UNL     1     -34.790 -16.147  -9.236  1.00  0.00    -0.051 SA
HETATM    2  C11 UNL     1     -33.871 -14.653  -9.190  1.00  0.00     0.133 C 
HETATM    3  N1  UNL     1     -33.278 -13.662  -9.147  1.00  0.00    -0.184 NA
ENDROOT
BRANCH   1   4
HETATM    4  C10 UNL     1     -35.814 -16.241 -10.743  1.00  0.00     0.094 C 
BRANCH   4   5
HETATM    5  C9  UNL     1     -36.742 -17.424 -10.630  1.00  0.00     0.062 C 
BRANCH   5   6
HETATM    6  C2  UNL     1     -36.589 -18.399 -11.754  1.00  0.00     0.118 C 
HETATM    7  C1  UNL     1     -35.550 -17.799 -12.715  1.00  0.00     0.060 C 
BRANCH   6   8
HETATM    8  O1  UNL     1     -36.066 -19.589 -11.308  1.00  0.00    -0.378 OA
ATOM      9  H1  UNL     1     -36.756 -20.235 -11.395  1.00  0.00     0.211 HD
ENDBRANCH   6   8
BRANCH   6  10
HETATM   10  C3  UNL     1     -37.844 -18.655 -12.456  1.00  0.00    -0.064 C 
HETATM   11  C4  UNL     1     -38.884 -18.850 -13.052  1.00  0.00    -0.075 C 
BRANCH  11  12
HETATM   12  C5  UNL     1     -40.126 -19.058 -13.773  1.00  0.00     0.065 C 
HETATM   13  C6  UNL     1     -40.422 -18.299 -14.791  1.00  0.00     0.014 C 
BRANCH  13  14
HETATM   14  C7  UNL     1     -39.522 -17.251 -15.207  1.00  0.00     0.075 C 
HETATM   15  C8  UNL     1     -39.990 -16.072 -15.607  1.00  0.00     0.267 C 
HETATM   16  F1  UNL     1     -41.310 -15.875 -15.618  1.00  0.00    -0.173 F 
HETATM   17  F2  UNL     1     -39.171 -15.074 -16.001  1.00  0.00    -0.173 F 
ENDBRANCH  13  14
ENDBRANCH  11  12
ENDBRANCH   6  10
ENDBRANCH   5   6
ENDBRANCH   4   5
ENDBRANCH   1   4
TORSDOF 7
ENDMDL
MODEL 3
REMARK VINA RESULT: -5.506116850      7.224      9.025
REMARK  7 active torsions:
REMARK  status: ('A' for Active; 'I' for Inactive)
REMARK    1  A    between atoms: C2_2  and  O1_3 
REMARK    2  A    between atoms: C2_2  and  C3_5 
REMARK    3  A    between atoms: C2_2  and  C9_13 
REMARK    4  A    between atoms: C4_6  and  C5_7 
REMARK    5  A    between atoms: C6_8  and  C7_9 
REMARK    6  A    between atoms: C9_13  and  C10_14 
REMARK    7  A    between atoms: C10_14  and  S1_15 
ROOT
HETATM    1  S1  UNL     1     -36.776 -13.998 -17.276  1.00  0.00    -0.051 SA
HETATM    2  C11 UNL     1     -36.322 -12.911 -18.576  1.00  0.00     0.133 C 
HETATM    3  N1  UNL     1     -36.024 -12.179 -19.421  1.00  0.00    -0.184 NA
ENDROOT
BRANCH   1   4
HETATM    4  C10 UNL     1     -38.476 -14.620 -17.505  1.00  0.00     0.094 C 
BRANCH   4   5
HETATM    5  C9  UNL     1     -39.020 -15.060 -16.170  1.00  0.00     0.062 C 
BRANCH   5   6
HETATM    6  C2  UNL     1     -40.153 -16.029 -16.289  1.00  0.00     0.118 C 
HETATM    7  C1  UNL     1     -41.442 -15.227 -16.050  1.00  0.00     0.060 C 
BRANCH   6   8
HETATM    8  O1  UNL     1     -40.239 -16.535 -17.563  1.00  0.00    -0.378 OA
ATOM      9  H1  UNL     1     -39.347 -16.648 -17.869  1.00  0.00     0.211 HD
ENDBRANCH   6   8
BRANCH   6  10
HETATM   10  C3  UNL     1     -40.056 -17.133 -15.337  1.00  0.00    -0.064 C 
HETATM   11  C4  UNL     1     -39.953 -18.050 -14.546  1.00  0.00    -0.075 C 
BRANCH  11  12
HETATM   12  C5  UNL     1     -39.804 -19.147 -13.609  1.00  0.00     0.065 C 
HETATM   13  C6  UNL     1     -38.628 -19.433 -13.123  1.00  0.00     0.014 C 
BRANCH  13  14
HETATM   14  C7  UNL     1     -37.472 -18.664 -13.511  1.00  0.00     0.075 C 
HETATM   15  C8  UNL     1     -36.458 -18.487 -12.667  1.00  0.00     0.267 C 
HETATM   16  F1  UNL     1     -36.531 -19.034 -11.452  1.00  0.00    -0.173 F 
HETATM   17  F2  UNL     1     -35.363 -17.772 -13.003  1.00  0.00    -0.173 F 
ENDBRANCH  13  14
ENDBRANCH  11  12
ENDBRANCH   6  10
ENDBRANCH   5   6
ENDBRANCH   4   5
ENDBRANCH   1   4
TORSDOF 7
ENDMDL
MODEL 4
REMARK VINA RESULT: -5.445773491      3.648      4.800
REMARK  7 active torsions:
REMARK  status: ('A' for Active; 'I' for Inactive)
REMARK    1  A    between atoms: C2_2  and  O1_3 
REMARK    2  A    between atoms: C2_2  and  C3_5 
REMARK    3  A    between atoms: C2_2  and  C9_13 
REMARK    4  A    between atoms: C4_6  and  C5_7 
REMARK    5  A    between atoms: C6_8  and  C7_9 
REMARK    6  A    between atoms: C9_13  and  C10_14 
REMARK    7  A    between atoms: C10_14  and  S1_15 
ROOT
HETATM    1  S1  UNL     1     -35.449 -16.605 -10.024  1.00  0.00    -0.051 SA
HETATM    2  C11 UNL     1     -34.379 -15.215 -10.000  1.00  0.00     0.133 C 
HETATM    3  N1  UNL     1     -33.687 -14.289  -9.974  1.00  0.00    -0.184 NA
ENDROOT
BRANCH   1   4
HETATM    4  C10 UNL     1     -36.245 -16.792 -11.655  1.00  0.00     0.094 C 
BRANCH   4   5
HETATM    5  C9  UNL     1     -35.580 -15.857 -12.633  1.00  0.00     0.062 C 
BRANCH   5   6
HETATM    6  C2  UNL     1     -36.548 -14.959 -13.337  1.00  0.00     0.118 C 
HETATM    7  C1  UNL     1     -37.078 -13.975 -12.282  1.00  0.00     0.060 C 
BRANCH   6   8
HETATM    8  O1  UNL     1     -35.915 -14.202 -14.293  1.00  0.00    -0.378 OA
ATOM      9  H1  UNL     1     -36.472 -14.218 -15.061  1.00  0.00     0.211 HD
ENDBRANCH   6   8
BRANCH   6  10
HETATM   10  C3  UNL     1     -37.653 -15.689 -13.952  1.00  0.00    -0.064 C 
HETATM   11  C4  UNL     1     -38.569 -16.313 -14.450  1.00  0.00    -0.075 C 
BRANCH  11  12
HETATM   12  C5  UNL     1     -39.654 -17.080 -15.031  1.00  0.00     0.065 C 
HETATM   13  C6  UNL     1     -39.666 -18.380 -14.919  1.00  0.00     0.014 C 
BRANCH  13  14
HETATM   14  C7  UNL     1     -38.607 -19.061 -14.217  1.00  0.00     0.075 C 
HETATM   15  C8  UNL     1     -38.862 -19.769 -13.120  1.00  0.00     0.267 C 
HETATM   16  F1  UNL     1     -40.120 -19.837 -12.679  1.00  0.00    -0.173 F 
HETATM   17  F2  UNL     1     -37.890 -20.417 -12.444  1.00  0.00    -0.173 F 
ENDBRANCH  13  14
ENDBRANCH  11  12
ENDBRANCH   6  10
ENDBRANCH   5   6
ENDBRANCH   4   5
ENDBRANCH   1   4
TORSDOF 7
ENDMDL
MODEL 5
REMARK VINA RESULT: -5.393443062      5.944      7.754
REMARK  7 active torsions:
REMARK  status: ('A' for Active; 'I' for Inactive)
REMARK    1  A    between atoms: C2_2  and  O1_3 
REMARK    2  A    between atoms: C2_2  and  C3_5 
REMARK    3  A    between atoms: C2_2  and  C9_13 
REMARK    4  A    between atoms: C4_6  and  C5_7 
REMARK    5  A    between atoms: C6_8  and  C7_9 
REMARK    6  A    between atoms: C9_13  and  C10_14 
REMARK    7  A    between atoms: C10_14  and  S1_15 
ROOT
HETATM    1  S1  UNL     1     -37.091 -15.033 -14.200  1.00  0.00    -0.051 SA
HETATM    2  C11 UNL     1     -35.988 -13.668 -14.187  1.00  0.00     0.133 C 
HETATM    3  N1  UNL     1     -35.263 -12.767 -14.158  1.00  0.00    -0.184 NA
ENDROOT
BRANCH   1   4
HETATM    4  C10 UNL     1     -38.699 -14.569 -14.927  1.00  0.00     0.094 C 
BRANCH   4   5
HETATM    5  C9  UNL     1     -38.859 -15.277 -16.248  1.00  0.00     0.062 C 
BRANCH   5   6
HETATM    6  C2  UNL     1     -40.050 -16.181 -16.287  1.00  0.00     0.118 C 
HETATM    7  C1  UNL     1     -41.280 -15.298 -16.023  1.00  0.00     0.060 C 
BRANCH   6   8
HETATM    8  O1  UNL     1     -40.220 -16.722 -17.539  1.00  0.00    -0.378 OA
ATOM      9  H1  UNL     1     -40.818 -17.452 -17.438  1.00  0.00     0.211 HD
ENDBRANCH   6   8
BRANCH   6  10
HETATM   10  C3  UNL     1     -39.976 -17.257 -15.303  1.00  0.00    -0.064 C 
HETATM   11  C4  UNL     1     -39.892 -18.148 -14.480  1.00  0.00    -0.075 C 
BRANCH  11  12
HETATM   12  C5  UNL     1     -39.766 -19.209 -13.500  1.00  0.00     0.065 C 
HETATM   13  C6  UNL     1     -38.594 -19.504 -13.007  1.00  0.00     0.014 C 
BRANCH  13  14
HETATM   14  C7  UNL     1     -37.421 -18.780 -13.430  1.00  0.00     0.075 C 
HETATM   15  C8  UNL     1     -36.466 -18.464 -12.560  1.00  0.00     0.267 C 
HETATM   16  F1  UNL     1     -36.614 -18.829 -11.285  1.00  0.00    -0.173 F 
HETATM   17  F2  UNL     1     -35.358 -17.787 -12.928  1.00  0.00    -0.173 F 
ENDBRANCH  13  14
ENDBRANCH  11  12
ENDBRANCH   6  10
ENDBRANCH   5   6
ENDBRANCH   4   5
ENDBRANCH   1   4
TORSDOF 7
ENDMDL
