MODEL 1
REMARK VINA RESULT: -10.642918280      0.000      0.000
REMARK  8 active torsions:
REMARK  status: ('A' for Active; 'I' for Inactive)
REMARK    1  A    between atoms: O1_2  and  C2_3 
REMARK    2  A    between atoms: C4_5  and  O2_6 
REMARK    3  A    between atoms: O2_6  and  C5_7 
REMARK    4  A    between atoms: C5_7  and  C6_8 
REMARK    5  A    between atoms: C6_8  and  N1_9 
REMARK    6  A    between atoms: C15_25  and  C16_26 
REMARK    7  A    between atoms: C17_27  and  C18_28 
REMARK    8  A    between atoms: C19_30  and  C20_31 
ROOT
HETATM    1  C2  UNL     1      19.058  -6.082  34.142  1.00  0.00     0.082 A 
HETATM    2  C3  UNL     1      18.607  -4.758  34.103  1.00  0.00     0.074 A 
HETATM    3  C4  UNL     1      19.070  -3.895  33.145  1.00  0.00     0.073 A 
HETATM    4  C13 UNL     1      19.978  -4.396  32.249  1.00  0.00     0.061 A 
HETATM    5  C14 UNL     1      20.428  -5.688  32.273  1.00  0.00     0.049 A 
HETATM    6 CL2  UNL     1      21.600  -6.235  31.074  1.00  0.00    -0.083 Cl
HETATM    7  C15 UNL     1      19.964  -6.579  33.246  1.00  0.00     0.019 A 
ENDROOT
BRANCH   3   8
HETATM    8  O2  UNL     1      18.643  -2.609  33.095  1.00  0.00    -0.349 OA
BRANCH   8   9
HETATM    9  C5  UNL     1      17.371  -2.141  33.432  1.00  0.00     0.197 C 
BRANCH   9  10
HETATM   10  C6  UNL     1      17.149  -0.848  32.637  1.00  0.00     0.177 C 
BRANCH  10  11
HETATM   11  N1  UNL     1      16.547   0.095  33.560  1.00  0.00    -0.274 N 
HETATM   12  N2  UNL     1      15.262   0.344  33.638  1.00  0.00    -0.240 N 
HETATM   13  N3  UNL     1      15.019   1.250  34.573  1.00  0.00    -0.284 N 
ATOM     14  H2  UNL     1      14.549  -0.100  33.059  1.00  0.00     0.208 HD
HETATM   15  C7  UNL     1      16.188   1.602  35.120  1.00  0.00     0.080 A 
ATOM     16  H3  UNL     1      14.102   1.616  34.829  1.00  0.00     0.188 HD
HETATM   17  C8  UNL     1      16.612   2.464  36.105  1.00  0.00     0.077 A 
HETATM   18  C12 UNL     1      17.155   0.860  34.466  1.00  0.00     0.082 A 
HETATM   19  C9  UNL     1      17.928   2.595  36.436  1.00  0.00     0.140 A 
HETATM   20  F1  UNL     1      18.322   3.455  37.415  1.00  0.00    -0.204 F 
HETATM   21  C10 UNL     1      18.883   1.861  35.791  1.00  0.00     0.074 A 
HETATM   22 CL1  UNL     1      20.562   2.038  36.225  1.00  0.00    -0.081 Cl
HETATM   23  C11 UNL     1      18.484   0.990  34.800  1.00  0.00     0.060 A 
ENDBRANCH  10  11
ENDBRANCH   9  10
ENDBRANCH   8   9
ENDBRANCH   3   8
BRANCH   1  24
HETATM   24  O1  UNL     1      18.532  -6.860  35.137  1.00  0.00    -0.355 OA
HETATM   25  C1  UNL     1      17.306  -7.538  35.060  1.00  0.00     0.210 C 
ENDBRANCH   1  24
BRANCH   7  26
HETATM   26  C16 UNL     1      20.460  -7.936  33.242  1.00  0.00     0.017 C 
HETATM   27  C17 UNL     1      19.959  -9.007  32.701  1.00  0.00     0.025 C 
BRANCH  27  28
HETATM   28  C18 UNL     1      20.684 -10.274  32.856  1.00  0.00     0.037 C 
HETATM   29 CL3  UNL     1      20.681 -11.149  34.373  1.00  0.00    -0.084 Cl
HETATM   30  C19 UNL     1      21.342 -10.741  31.816  1.00  0.00     0.073 C 
BRANCH  30  31
HETATM   31  C20 UNL     1      22.091 -11.981  31.857  1.00  0.00     0.147 C 
HETATM   32  C21 UNL     1      21.520 -13.276  31.421  1.00  0.00     0.096 C 
HETATM   33  O3  UNL     1      23.275 -11.988  32.276  1.00  0.00    -0.294 OA
ENDBRANCH  30  31
ENDBRANCH  27  28
ENDBRANCH   7  26
TORSDOF 8
ENDMDL
MODEL 2
REMARK VINA RESULT: -10.385433519      1.595      2.166
REMARK  8 active torsions:
REMARK  status: ('A' for Active; 'I' for Inactive)
REMARK    1  A    between atoms: O1_2  and  C2_3 
REMARK    2  A    between atoms: C4_5  and  O2_6 
REMARK    3  A    between atoms: O2_6  and  C5_7 
REMARK    4  A    between atoms: C5_7  and  C6_8 
REMARK    5  A    between atoms: C6_8  and  N1_9 
REMARK    6  A    between atoms: C15_25  and  C16_26 
REMARK    7  A    between atoms: C17_27  and  C18_28 
REMARK    8  A    between atoms: C19_30  and  C20_31 
ROOT
HETATM    1  C2  UNL     1      20.259  -6.040  32.888  1.00  0.00     0.082 A 
HETATM    2  C3  UNL     1      19.770  -4.733  32.976  1.00  0.00     0.074 A 
HETATM    3  C4  UNL     1      18.671  -4.452  33.745  1.00  0.00     0.073 A 
HETATM    4  C13 UNL     1      18.095  -5.505  34.407  1.00  0.00     0.061 A 
HETATM    5  C14 UNL     1      18.561  -6.789  34.332  1.00  0.00     0.049 A 
HETATM    6 CL2  UNL     1      17.748  -8.075  35.223  1.00  0.00    -0.083 Cl
HETATM    7  C15 UNL     1      19.683  -7.089  33.551  1.00  0.00     0.019 A 
ENDROOT
BRANCH   3   8
HETATM    8  O2  UNL     1      18.185  -3.190  33.838  1.00  0.00    -0.349 OA
BRANCH   8   9
HETATM    9  C5  UNL     1      18.169  -2.227  32.827  1.00  0.00     0.197 C 
BRANCH   9  10
HETATM   10  C6  UNL     1      18.840  -0.972  33.398  1.00  0.00     0.177 C 
BRANCH  10  11
HETATM   11  N1  UNL     1      17.775  -0.171  33.972  1.00  0.00    -0.274 N 
HETATM   12  N2  UNL     1      16.501  -0.321  33.701  1.00  0.00    -0.240 N 
HETATM   13  N3  UNL     1      15.774   0.556  34.377  1.00  0.00    -0.284 N 
ATOM     14  H2  UNL     1      16.123  -1.016  33.057  1.00  0.00     0.208 HD
HETATM   15  C7  UNL     1      16.607   1.300  35.114  1.00  0.00     0.080 A 
ATOM     16  H3  UNL     1      14.759   0.647  34.342  1.00  0.00     0.188 HD
HETATM   17  C8  UNL     1      16.494   2.344  36.004  1.00  0.00     0.077 A 
HETATM   18  C12 UNL     1      17.879   0.828  34.847  1.00  0.00     0.082 A 
HETATM   19  C9  UNL     1      17.581   2.902  36.607  1.00  0.00     0.140 A 
HETATM   20  F1  UNL     1      17.442   3.934  37.484  1.00  0.00    -0.204 F 
HETATM   21  C10 UNL     1      18.837   2.436  36.344  1.00  0.00     0.074 A 
HETATM   22 CL1  UNL     1      20.218   3.159  37.124  1.00  0.00    -0.081 Cl
HETATM   23  C11 UNL     1      18.978   1.391  35.457  1.00  0.00     0.060 A 
ENDBRANCH  10  11
ENDBRANCH   9  10
ENDBRANCH   8   9
ENDBRANCH   3   8
BRANCH   1  24
HETATM   24  O1  UNL     1      21.360  -6.211  32.095  1.00  0.00    -0.355 OA
HETATM   25  C1  UNL     1      21.393  -5.981  30.711  1.00  0.00     0.210 C 
ENDBRANCH   1  24
BRANCH   7  26
HETATM   26  C16 UNL     1      20.148  -8.455  33.495  1.00  0.00     0.017 C 
HETATM   27  C17 UNL     1      20.308  -9.242  32.472  1.00  0.00     0.025 C 
BRANCH  27  28
HETATM   28  C18 UNL     1      20.804 -10.603  32.707  1.00  0.00     0.037 C 
HETATM   29 CL3  UNL     1      20.621 -11.386  34.262  1.00  0.00    -0.084 Cl
HETATM   30  C19 UNL     1      21.394 -11.227  31.709  1.00  0.00     0.073 C 
BRANCH  30  31
HETATM   31  C20 UNL     1      21.920 -12.573  31.830  1.00  0.00     0.147 C 
HETATM   32  C21 UNL     1      23.348 -12.852  32.105  1.00  0.00     0.096 C 
HETATM   33  O3  UNL     1      21.156 -13.561  31.702  1.00  0.00    -0.294 OA
ENDBRANCH  30  31
ENDBRANCH  27  28
ENDBRANCH   7  26
TORSDOF 8
ENDMDL
MODEL 3
REMARK VINA RESULT: -10.358409095      1.702      2.275
REMARK  8 active torsions:
REMARK  status: ('A' for Active; 'I' for Inactive)
REMARK    1  A    between atoms: O1_2  and  C2_3 
REMARK    2  A    between atoms: C4_5  and  O2_6 
REMARK    3  A    between atoms: O2_6  and  C5_7 
REMARK    4  A    between atoms: C5_7  and  C6_8 
REMARK    5  A    between atoms: C6_8  and  N1_9 
REMARK    6  A    between atoms: C15_25  and  C16_26 
REMARK    7  A    between atoms: C17_27  and  C18_28 
REMARK    8  A    between atoms: C19_30  and  C20_31 
ROOT
HETATM    1  C2  UNL     1      20.907  -5.997  31.126  1.00  0.00     0.082 A 
HETATM    2  C3  UNL     1      20.517  -4.664  30.967  1.00  0.00     0.074 A 
HETATM    3  C4  UNL     1      19.820  -4.022  31.956  1.00  0.00     0.073 A 
HETATM    4  C13 UNL     1      19.537  -4.748  33.083  1.00  0.00     0.061 A 
HETATM    5  C14 UNL     1      19.912  -6.053  33.255  1.00  0.00     0.049 A 
HETATM    6 CL2  UNL     1      19.499  -6.900  34.744  1.00  0.00    -0.083 Cl
HETATM    7  C15 UNL     1      20.625  -6.720  32.252  1.00  0.00     0.019 A 
ENDROOT
BRANCH   3   8
HETATM    8  O2  UNL     1      19.434  -2.730  31.816  1.00  0.00    -0.349 OA
BRANCH   8   9
HETATM    9  C5  UNL     1      18.384  -2.098  32.486  1.00  0.00     0.197 C 
BRANCH   9  10
HETATM   10  C6  UNL     1      18.971  -0.848  33.153  1.00  0.00     0.177 C 
BRANCH  10  11
HETATM   11  N1  UNL     1      17.851  -0.141  33.743  1.00  0.00    -0.274 N 
HETATM   12  N2  UNL     1      16.593  -0.359  33.446  1.00  0.00    -0.240 N 
HETATM   13  N3  UNL     1      15.802   0.441  34.146  1.00  0.00    -0.284 N 
ATOM     14  H2  UNL     1      16.268  -1.049  32.769  1.00  0.00     0.208 HD
HETATM   15  C7  UNL     1      16.577   1.205  34.926  1.00  0.00     0.080 A 
ATOM     16  H3  UNL     1      14.784   0.470  34.099  1.00  0.00     0.188 HD
HETATM   17  C8  UNL     1      16.386   2.201  35.856  1.00  0.00     0.077 A 
HETATM   18  C12 UNL     1      17.880   0.826  34.660  1.00  0.00     0.082 A 
HETATM   19  C9  UNL     1      17.427   2.801  36.499  1.00  0.00     0.140 A 
HETATM   20  F1  UNL     1      17.212   3.784  37.415  1.00  0.00    -0.204 F 
HETATM   21  C10 UNL     1      18.714   2.426  36.237  1.00  0.00     0.074 A 
HETATM   22 CL1  UNL     1      20.037   3.201  37.067  1.00  0.00    -0.081 Cl
HETATM   23  C11 UNL     1      18.933   1.430  35.309  1.00  0.00     0.060 A 
ENDBRANCH  10  11
ENDBRANCH   9  10
ENDBRANCH   8   9
ENDBRANCH   3   8
BRANCH   1  24
HETATM   24  O1  UNL     1      21.599  -6.543  30.078  1.00  0.00    -0.355 OA
HETATM   25  C1  UNL     1      21.053  -6.818  28.816  1.00  0.00     0.210 C 
ENDBRANCH   1  24
BRANCH   7  26
HETATM   26  C16 UNL     1      21.005  -8.097  32.466  1.00  0.00     0.017 C 
HETATM   27  C17 UNL     1      20.287  -9.180  32.419  1.00  0.00     0.025 C 
BRANCH  27  28
HETATM   28  C18 UNL     1      20.941 -10.466  32.682  1.00  0.00     0.037 C 
HETATM   29 CL3  UNL     1      20.971 -11.165  34.287  1.00  0.00    -0.084 Cl
HETATM   30  C19 UNL     1      21.510 -11.088  31.671  1.00  0.00     0.073 C 
BRANCH  30  31
HETATM   31  C20 UNL     1      22.184 -12.364  31.817  1.00  0.00     0.147 C 
HETATM   32  C21 UNL     1      21.491 -13.660  31.637  1.00  0.00     0.096 C 
HETATM   33  O3  UNL     1      23.405 -12.401  32.109  1.00  0.00    -0.294 OA
ENDBRANCH  30  31
ENDBRANCH  27  28
ENDBRANCH   7  26
TORSDOF 8
ENDMDL
MODEL 4
REMARK VINA RESULT: -10.304553912      2.047      2.603
REMARK  8 active torsions:
REMARK  status: ('A' for Active; 'I' for Inactive)
REMARK    1  A    between atoms: O1_2  and  C2_3 
REMARK    2  A    between atoms: C4_5  and  O2_6 
REMARK    3  A    between atoms: O2_6  and  C5_7 
REMARK    4  A    between atoms: C5_7  and  C6_8 
REMARK    5  A    between atoms: C6_8  and  N1_9 
REMARK    6  A    between atoms: C15_25  and  C16_26 
REMARK    7  A    between atoms: C17_27  and  C18_28 
REMARK    8  A    between atoms: C19_30  and  C20_31 
ROOT
HETATM    1  C2  UNL     1      20.908  -6.001  31.099  1.00  0.00     0.082 A 
HETATM    2  C3  UNL     1      20.532  -4.672  30.878  1.00  0.00     0.074 A 
HETATM    3  C4  UNL     1      19.842  -3.977  31.836  1.00  0.00     0.073 A 
HETATM    4  C13 UNL     1      19.552  -4.647  32.996  1.00  0.00     0.061 A 
HETATM    5  C14 UNL     1      19.912  -5.946  33.228  1.00  0.00     0.049 A 
HETATM    6 CL2  UNL     1      19.490  -6.719  34.755  1.00  0.00    -0.083 Cl
HETATM    7  C15 UNL     1      20.617  -6.667  32.258  1.00  0.00     0.019 A 
ENDROOT
BRANCH   3   8
HETATM    8  O2  UNL     1      19.470  -2.689  31.636  1.00  0.00    -0.349 OA
BRANCH   8   9
HETATM    9  C5  UNL     1      18.405  -2.025  32.249  1.00  0.00     0.197 C 
BRANCH   9  10
HETATM   10  C6  UNL     1      19.015  -0.944  33.151  1.00  0.00     0.177 C 
BRANCH  10  11
HETATM   11  N1  UNL     1      17.898  -0.221  33.727  1.00  0.00    -0.274 N 
HETATM   12  N2  UNL     1      16.640  -0.431  33.425  1.00  0.00    -0.240 N 
HETATM   13  N3  UNL     1      15.852   0.382  34.112  1.00  0.00    -0.284 N 
ATOM     14  H2  UNL     1      16.312  -1.126  32.753  1.00  0.00     0.208 HD
HETATM   15  C7  UNL     1      16.629   1.147  34.888  1.00  0.00     0.080 A 
ATOM     16  H3  UNL     1      14.835   0.420  34.059  1.00  0.00     0.188 HD
HETATM   17  C8  UNL     1      16.442   2.155  35.807  1.00  0.00     0.077 A 
HETATM   18  C12 UNL     1      17.930   0.754  34.634  1.00  0.00     0.082 A 
HETATM   19  C9  UNL     1      17.485   2.752  36.450  1.00  0.00     0.140 A 
HETATM   20  F1  UNL     1      17.273   3.747  37.355  1.00  0.00    -0.204 F 
HETATM   21  C10 UNL     1      18.770   2.363  36.199  1.00  0.00     0.074 A 
HETATM   22 CL1  UNL     1      20.094   3.136  37.029  1.00  0.00    -0.081 Cl
HETATM   23  C11 UNL     1      18.985   1.356  35.283  1.00  0.00     0.060 A 
ENDBRANCH  10  11
ENDBRANCH   9  10
ENDBRANCH   8   9
ENDBRANCH   3   8
BRANCH   1  24
HETATM   24  O1  UNL     1      21.593  -6.603  30.078  1.00  0.00    -0.355 OA
HETATM   25  C1  UNL     1      21.055  -6.893  28.816  1.00  0.00     0.210 C 
ENDBRANCH   1  24
BRANCH   7  26
HETATM   26  C16 UNL     1      20.983  -8.036  32.535  1.00  0.00     0.017 C 
HETATM   27  C17 UNL     1      20.341  -9.140  32.286  1.00  0.00     0.025 C 
BRANCH  27  28
HETATM   28  C18 UNL     1      20.955 -10.412  32.683  1.00  0.00     0.037 C 
HETATM   29 CL3  UNL     1      21.714 -11.465  31.508  1.00  0.00    -0.084 Cl
HETATM   30  C19 UNL     1      20.922 -10.744  33.956  1.00  0.00     0.073 C 
BRANCH  30  31
HETATM   31  C20 UNL     1      21.498 -11.977  34.457  1.00  0.00     0.147 C 
HETATM   32  C21 UNL     1      22.955 -12.157  34.656  1.00  0.00     0.096 C 
HETATM   33  O3  UNL     1      20.755 -12.948  34.743  1.00  0.00    -0.294 OA
ENDBRANCH  30  31
ENDBRANCH  27  28
ENDBRANCH   7  26
TORSDOF 8
ENDMDL
MODEL 5
REMARK VINA RESULT: -10.273623154      2.000      2.346
REMARK  8 active torsions:
REMARK  status: ('A' for Active; 'I' for Inactive)
REMARK    1  A    between atoms: O1_2  and  C2_3 
REMARK    2  A    between atoms: C4_5  and  O2_6 
REMARK    3  A    between atoms: O2_6  and  C5_7 
REMARK    4  A    between atoms: C5_7  and  C6_8 
REMARK    5  A    between atoms: C6_8  and  N1_9 
REMARK    6  A    between atoms: C15_25  and  C16_26 
REMARK    7  A    between atoms: C17_27  and  C18_28 
REMARK    8  A    between atoms: C19_30  and  C20_31 
ROOT
HETATM    1  C2  UNL     1      19.727  -6.133  33.591  1.00  0.00     0.082 A 
HETATM    2  C3  UNL     1      19.308  -4.805  33.465  1.00  0.00     0.074 A 
HETATM    3  C4  UNL     1      19.585  -4.094  32.328  1.00  0.00     0.073 A 
HETATM    4  C13 UNL     1      20.280  -4.748  31.344  1.00  0.00     0.061 A 
HETATM    5  C14 UNL     1      20.696  -6.047  31.451  1.00  0.00     0.049 A 
HETATM    6 CL2  UNL     1      21.586  -6.799  30.127  1.00  0.00    -0.083 Cl
HETATM    7  C15 UNL     1      20.419  -6.785  32.607  1.00  0.00     0.019 A 
ENDROOT
BRANCH   3   8
HETATM    8  O2  UNL     1      19.187  -2.805  32.192  1.00  0.00    -0.349 OA
BRANCH   8   9
HETATM    9  C5  UNL     1      19.193  -2.051  31.016  1.00  0.00     0.197 C 
BRANCH   9  10
HETATM   10  C6  UNL     1      18.101  -0.985  31.167  1.00  0.00     0.177 C 
BRANCH  10  11
HETATM   11  N1  UNL     1      18.375  -0.299  32.416  1.00  0.00    -0.274 N 
HETATM   12  N2  UNL     1      19.571  -0.140  32.930  1.00  0.00    -0.240 N 
HETATM   13  N3  UNL     1      19.501   0.523  34.075  1.00  0.00    -0.284 N 
ATOM     14  H2  UNL     1      20.435  -0.480  32.508  1.00  0.00     0.208 HD
HETATM   15  C7  UNL     1      18.214   0.804  34.310  1.00  0.00     0.080 A 
ATOM     16  H3  UNL     1      20.289   0.774  34.671  1.00  0.00     0.188 HD
HETATM   17  C8  UNL     1      17.494   1.448  35.290  1.00  0.00     0.077 A 
HETATM   18  C12 UNL     1      17.506   0.275  33.246  1.00  0.00     0.082 A 
HETATM   19  C9  UNL     1      16.137   1.568  35.232  1.00  0.00     0.140 A 
HETATM   20  F1  UNL     1      15.448   2.209  36.214  1.00  0.00    -0.204 F 
HETATM   21  C10 UNL     1      15.438   1.045  34.181  1.00  0.00     0.074 A 
HETATM   22 CL1  UNL     1      13.704   1.207  34.119  1.00  0.00    -0.081 Cl
HETATM   23  C11 UNL     1      16.136   0.396  33.185  1.00  0.00     0.060 A 
ENDBRANCH  10  11
ENDBRANCH   9  10
ENDBRANCH   8   9
ENDBRANCH   3   8
BRANCH   1  24
HETATM   24  O1  UNL     1      19.397  -6.752  34.766  1.00  0.00    -0.355 OA
HETATM   25  C1  UNL     1      18.093  -7.099  35.149  1.00  0.00     0.210 C 
ENDBRANCH   1  24
BRANCH   7  26
HETATM   26  C16 UNL     1      20.873  -8.153  32.687  1.00  0.00     0.017 C 
HETATM   27  C17 UNL     1      20.191  -9.254  32.811  1.00  0.00     0.025 C 
BRANCH  27  28
HETATM   28  C18 UNL     1      20.920 -10.526  32.868  1.00  0.00     0.037 C 
HETATM   29 CL3  UNL     1      21.111 -11.404  34.371  1.00  0.00    -0.084 Cl
HETATM   30  C19 UNL     1      21.431 -10.996  31.749  1.00  0.00     0.073 C 
BRANCH  30  31
HETATM   31  C20 UNL     1      22.169 -12.243  31.691  1.00  0.00     0.147 C 
HETATM   32  C21 UNL     1      21.513 -13.552  31.466  1.00  0.00     0.096 C 
HETATM   33  O3  UNL     1      23.417 -12.243  31.832  1.00  0.00    -0.294 OA
ENDBRANCH  30  31
ENDBRANCH  27  28
ENDBRANCH   7  26
TORSDOF 8
ENDMDL
