MODEL 1
REMARK VINA RESULT: -9.022203024      0.000      0.000
REMARK  9 active torsions:
REMARK  status: ('A' for Active; 'I' for Inactive)
REMARK    1  A    between atoms: C2_2  and  C3_3 
REMARK    2  A    between atoms: C3_3  and  C4_4 
REMARK    3  A    between atoms: C4_4  and  C5_5 
REMARK    4  A    between atoms: C5_5  and  C6_6 
REMARK    5  A    between atoms: C6_6  and  O1_7 
REMARK    6  A    between atoms: O1_7  and  C7_8 
REMARK    7  A    between atoms: C7_8  and  C8_10 
REMARK    8  A    between atoms: C8_10  and  C9_11 
REMARK    9  A    between atoms: C9_11  and  N1_12 
ROOT
HETATM    1  N1  UNL     1      22.439  -1.735  32.661  1.00  0.00    -0.388 N 
ATOM      2  H1  UNL     1      22.551  -2.480  31.973  1.00  0.00     0.159 HD
HETATM    3  C10 UNL     1      21.278  -1.494  33.100  1.00  0.00     0.082 C 
HETATM    4  C11 UNL     1      21.021  -0.454  34.078  1.00  0.00     0.208 C 
HETATM    5  O3  UNL     1      21.907   0.080  34.787  1.00  0.00    -0.285 OA
HETATM    6  C12 UNL     1      19.657   0.047  34.299  1.00  0.00     0.055 A 
HETATM    7  C13 UNL     1      19.364   1.033  35.215  1.00  0.00     0.072 A 
HETATM    8 CL1  UNL     1      20.717   1.697  36.146  1.00  0.00    -0.081 Cl
HETATM    9  C14 UNL     1      18.086   1.478  35.397  1.00  0.00     0.080 A 
HETATM   10 CL2  UNL     1      17.795   2.734  36.581  1.00  0.00    -0.081 Cl
HETATM   11  C15 UNL     1      17.030   0.949  34.659  1.00  0.00     0.080 A 
HETATM   12 CL3  UNL     1      15.381   1.519  34.891  1.00  0.00    -0.081 Cl
HETATM   13  C16 UNL     1      17.345  -0.034  33.751  1.00  0.00     0.072 A 
HETATM   14 CL4  UNL     1      16.034  -0.731  32.796  1.00  0.00    -0.081 Cl
HETATM   15  C17 UNL     1      18.627  -0.494  33.554  1.00  0.00     0.051 A 
HETATM   16  C18 UNL     1      18.881  -1.536  32.575  1.00  0.00     0.185 C 
HETATM   17  O4  UNL     1      18.031  -1.789  31.709  1.00  0.00    -0.290 OA
HETATM   18  C19 UNL     1      20.144  -2.328  32.568  1.00  0.00     0.220 C 
HETATM   19  C20 UNL     1      19.996  -3.564  33.312  1.00  0.00     0.078 C 
HETATM   20  N2  UNL     1      19.894  -4.567  33.903  1.00  0.00    -0.196 NA
ENDROOT
BRANCH   1  21
HETATM   21  C9  UNL     1      23.598  -1.020  33.077  1.00  0.00     0.129 C 
BRANCH  21  22
HETATM   22  C8  UNL     1      24.550  -0.764  31.908  1.00  0.00     0.130 C 
BRANCH  22  23
HETATM   23  C7  UNL     1      24.342  -1.845  30.916  1.00  0.00     0.260 C 
HETATM   24  O2  UNL     1      24.959  -2.913  31.000  1.00  0.00    -0.265 OA
BRANCH  23  25
HETATM   25  O1  UNL     1      23.443  -1.627  29.896  1.00  0.00    -0.321 OA
BRANCH  25  26
HETATM   26  C6  UNL     1      23.120  -0.381  29.331  1.00  0.00     0.178 C 
BRANCH  26  27
HETATM   27  C5  UNL     1      21.789  -0.336  28.683  1.00  0.00     0.027 C 
BRANCH  27  28
HETATM   28  C4  UNL     1      20.668   0.030  29.623  1.00  0.00     0.002 C 
BRANCH  28  29
HETATM   29  C3  UNL     1      19.865   1.195  29.163  1.00  0.00    -0.000 C 
BRANCH  29  30
HETATM   30  C2  UNL     1      18.436   1.023  29.577  1.00  0.00    -0.005 C 
HETATM   31  C1  UNL     1      17.648   2.293  29.517  1.00  0.00     0.005 C 
ENDBRANCH  29  30
ENDBRANCH  28  29
ENDBRANCH  27  28
ENDBRANCH  26  27
ENDBRANCH  25  26
ENDBRANCH  23  25
ENDBRANCH  22  23
ENDBRANCH  21  22
ENDBRANCH   1  21
TORSDOF 9
ENDMDL
MODEL 2
REMARK VINA RESULT: -8.815639823      2.900      4.056
REMARK  9 active torsions:
REMARK  status: ('A' for Active; 'I' for Inactive)
REMARK    1  A    between atoms: C2_2  and  C3_3 
REMARK    2  A    between atoms: C3_3  and  C4_4 
REMARK    3  A    between atoms: C4_4  and  C5_5 
REMARK    4  A    between atoms: C5_5  and  C6_6 
REMARK    5  A    between atoms: C6_6  and  O1_7 
REMARK    6  A    between atoms: O1_7  and  C7_8 
REMARK    7  A    between atoms: C7_8  and  C8_10 
REMARK    8  A    between atoms: C8_10  and  C9_11 
REMARK    9  A    between atoms: C9_11  and  N1_12 
ROOT
HETATM    1  N1  UNL     1      20.725  -2.398  31.961  1.00  0.00    -0.388 N 
ATOM      2  H1  UNL     1      20.235  -3.045  31.344  1.00  0.00     0.159 HD
HETATM    3  C10 UNL     1      20.053  -1.773  32.830  1.00  0.00     0.082 C 
HETATM    4  C11 UNL     1      20.663  -0.832  33.750  1.00  0.00     0.208 C 
HETATM    5  O3  UNL     1      21.894  -0.769  33.980  1.00  0.00    -0.285 OA
HETATM    6  C12 UNL     1      19.839   0.134  34.491  1.00  0.00     0.055 A 
HETATM    7  C13 UNL     1      20.372   1.047  35.374  1.00  0.00     0.072 A 
HETATM    8 CL1  UNL     1      22.129   1.021  35.598  1.00  0.00    -0.081 Cl
HETATM    9  C14 UNL     1      19.580   1.932  36.046  1.00  0.00     0.080 A 
HETATM   10 CL2  UNL     1      20.334   3.062  37.152  1.00  0.00    -0.081 Cl
HETATM   11  C15 UNL     1      18.199   1.944  35.862  1.00  0.00     0.080 A 
HETATM   12 CL3  UNL     1      17.174   3.084  36.728  1.00  0.00    -0.081 Cl
HETATM   13  C16 UNL     1      17.689   1.025  34.977  1.00  0.00     0.072 A 
HETATM   14 CL4  UNL     1      15.943   1.008  34.715  1.00  0.00    -0.081 Cl
HETATM   15  C17 UNL     1      18.472   0.126  34.290  1.00  0.00     0.051 A 
HETATM   16  C18 UNL     1      17.858  -0.816  33.371  1.00  0.00     0.185 C 
HETATM   17  O4  UNL     1      16.704  -0.618  32.964  1.00  0.00    -0.290 OA
HETATM   18  C19 UNL     1      18.572  -2.032  32.887  1.00  0.00     0.220 C 
HETATM   19  C20 UNL     1      18.263  -3.187  33.707  1.00  0.00     0.078 C 
HETATM   20  N2  UNL     1      18.022  -4.129  34.355  1.00  0.00    -0.196 NA
ENDROOT
BRANCH   1  21
HETATM   21  C9  UNL     1      22.132  -2.244  31.798  1.00  0.00     0.129 C 
BRANCH  21  22
HETATM   22  C8  UNL     1      22.563  -2.516  30.356  1.00  0.00     0.130 C 
BRANCH  22  23
HETATM   23  C7  UNL     1      22.605  -3.986  30.170  1.00  0.00     0.260 C 
HETATM   24  O2  UNL     1      23.681  -4.594  30.151  1.00  0.00    -0.265 OA
BRANCH  23  25
HETATM   25  O1  UNL     1      21.411  -4.656  30.019  1.00  0.00    -0.321 OA
BRANCH  25  26
HETATM   26  C6  UNL     1      21.074  -5.887  30.607  1.00  0.00     0.178 C 
BRANCH  26  27
HETATM   27  C5  UNL     1      21.093  -7.033  29.669  1.00  0.00     0.027 C 
BRANCH  27  28
HETATM   28  C4  UNL     1      20.833  -6.647  28.235  1.00  0.00     0.002 C 
BRANCH  28  29
HETATM   29  C3  UNL     1      21.932  -7.029  27.309  1.00  0.00    -0.000 C 
BRANCH  29  30
HETATM   30  C2  UNL     1      22.630  -5.800  26.812  1.00  0.00    -0.005 C 
HETATM   31  C1  UNL     1      24.119  -5.875  26.941  1.00  0.00     0.005 C 
ENDBRANCH  29  30
ENDBRANCH  28  29
ENDBRANCH  27  28
ENDBRANCH  26  27
ENDBRANCH  25  26
ENDBRANCH  23  25
ENDBRANCH  22  23
ENDBRANCH  21  22
ENDBRANCH   1  21
TORSDOF 9
ENDMDL
MODEL 3
REMARK VINA RESULT: -8.808003147      1.702      2.492
REMARK  9 active torsions:
REMARK  status: ('A' for Active; 'I' for Inactive)
REMARK    1  A    between atoms: C2_2  and  C3_3 
REMARK    2  A    between atoms: C3_3  and  C4_4 
REMARK    3  A    between atoms: C4_4  and  C5_5 
REMARK    4  A    between atoms: C5_5  and  C6_6 
REMARK    5  A    between atoms: C6_6  and  O1_7 
REMARK    6  A    between atoms: O1_7  and  C7_8 
REMARK    7  A    between atoms: C7_8  and  C8_10 
REMARK    8  A    between atoms: C8_10  and  C9_11 
REMARK    9  A    between atoms: C9_11  and  N1_12 
ROOT
HETATM    1  N1  UNL     1      21.825  -2.349  31.945  1.00  0.00    -0.388 N 
ATOM      2  H1  UNL     1      21.588  -3.084  31.280  1.00  0.00     0.159 HD
HETATM    3  C10 UNL     1      20.907  -1.891  32.684  1.00  0.00     0.082 C 
HETATM    4  C11 UNL     1      21.147  -0.845  33.660  1.00  0.00     0.208 C 
HETATM    5  O3  UNL     1      22.284  -0.515  34.072  1.00  0.00    -0.285 OA
HETATM    6  C12 UNL     1      20.028  -0.087  34.238  1.00  0.00     0.055 A 
HETATM    7  C13 UNL     1      20.206   0.915  35.166  1.00  0.00     0.072 A 
HETATM    8 CL1  UNL     1      21.871   1.274  35.655  1.00  0.00    -0.081 Cl
HETATM    9  C14 UNL     1      19.146   1.601  35.684  1.00  0.00     0.080 A 
HETATM   10 CL2  UNL     1      19.456   2.862  36.859  1.00  0.00    -0.081 Cl
HETATM   11  C15 UNL     1      17.842   1.311  35.292  1.00  0.00     0.080 A 
HETATM   12 CL3  UNL     1      16.472   2.194  35.958  1.00  0.00    -0.081 Cl
HETATM   13  C16 UNL     1      17.687   0.307  34.365  1.00  0.00     0.072 A 
HETATM   14 CL4  UNL     1      16.049  -0.091  33.841  1.00  0.00    -0.081 Cl
HETATM   15  C17 UNL     1      18.744  -0.394  33.831  1.00  0.00     0.051 A 
HETATM   16  C18 UNL     1      18.499  -1.442  32.856  1.00  0.00     0.185 C 
HETATM   17  O4  UNL     1      17.407  -1.500  32.273  1.00  0.00    -0.290 OA
HETATM   18  C19 UNL     1      19.527  -2.469  32.521  1.00  0.00     0.220 C 
HETATM   19  C20 UNL     1      19.353  -3.669  33.318  1.00  0.00     0.078 C 
HETATM   20  N2  UNL     1      19.226  -4.645  33.948  1.00  0.00    -0.196 NA
ENDROOT
BRANCH   1  21
HETATM   21  C9  UNL     1      23.172  -1.889  31.995  1.00  0.00     0.129 C 
BRANCH  21  22
HETATM   22  C8  UNL     1      24.035  -2.567  30.929  1.00  0.00     0.130 C 
BRANCH  22  23
HETATM   23  C7  UNL     1      23.146  -3.425  30.111  1.00  0.00     0.260 C 
HETATM   24  O2  UNL     1      23.118  -4.651  30.274  1.00  0.00    -0.265 OA
BRANCH  23  25
HETATM   25  O1  UNL     1      22.352  -2.820  29.163  1.00  0.00    -0.321 OA
BRANCH  25  26
HETATM   26  C6  UNL     1      22.741  -1.782  28.299  1.00  0.00     0.178 C 
BRANCH  26  27
HETATM   27  C5  UNL     1      22.029  -0.504  28.528  1.00  0.00     0.027 C 
BRANCH  27  28
HETATM   28  C4  UNL     1      22.895   0.574  29.129  1.00  0.00     0.002 C 
BRANCH  28  29
HETATM   29  C3  UNL     1      24.351   0.352  28.917  1.00  0.00    -0.000 C 
BRANCH  29  30
HETATM   30  C2  UNL     1      25.096   1.637  29.111  1.00  0.00    -0.005 C 
HETATM   31  C1  UNL     1      26.078   1.584  30.238  1.00  0.00     0.005 C 
ENDBRANCH  29  30
ENDBRANCH  28  29
ENDBRANCH  27  28
ENDBRANCH  26  27
ENDBRANCH  25  26
ENDBRANCH  23  25
ENDBRANCH  22  23
ENDBRANCH  21  22
ENDBRANCH   1  21
TORSDOF 9
ENDMDL
MODEL 4
REMARK VINA RESULT: -8.807401003      1.623      2.111
REMARK  9 active torsions:
REMARK  status: ('A' for Active; 'I' for Inactive)
REMARK    1  A    between atoms: C2_2  and  C3_3 
REMARK    2  A    between atoms: C3_3  and  C4_4 
REMARK    3  A    between atoms: C4_4  and  C5_5 
REMARK    4  A    between atoms: C5_5  and  C6_6 
REMARK    5  A    between atoms: C6_6  and  O1_7 
REMARK    6  A    between atoms: O1_7  and  C7_8 
REMARK    7  A    between atoms: C7_8  and  C8_10 
REMARK    8  A    between atoms: C8_10  and  C9_11 
REMARK    9  A    between atoms: C9_11  and  N1_12 
ROOT
HETATM    1  N1  UNL     1      20.801  -1.963  32.139  1.00  0.00    -0.388 N 
ATOM      2  H1  UNL     1      20.342  -2.591  31.480  1.00  0.00     0.159 HD
HETATM    3  C10 UNL     1      20.089  -1.371  32.998  1.00  0.00     0.082 C 
HETATM    4  C11 UNL     1      20.653  -0.458  33.975  1.00  0.00     0.208 C 
HETATM    5  O3  UNL     1      21.873  -0.398  34.260  1.00  0.00    -0.285 OA
HETATM    6  C12 UNL     1      19.792   0.479  34.711  1.00  0.00     0.055 A 
HETATM    7  C13 UNL     1      20.282   1.364  35.646  1.00  0.00     0.072 A 
HETATM    8 CL1  UNL     1      22.027   1.337  35.946  1.00  0.00    -0.081 Cl
HETATM    9  C14 UNL     1      19.457   2.223  36.312  1.00  0.00     0.080 A 
HETATM   10 CL2  UNL     1      20.155   3.318  37.487  1.00  0.00    -0.081 Cl
HETATM   11  C15 UNL     1      18.085   2.236  36.069  1.00  0.00     0.080 A 
HETATM   12 CL3  UNL     1      17.017   3.342  36.926  1.00  0.00    -0.081 Cl
HETATM   13  C16 UNL     1      17.619   1.345  35.131  1.00  0.00     0.072 A 
HETATM   14 CL4  UNL     1      15.886   1.330  34.793  1.00  0.00    -0.081 Cl
HETATM   15  C17 UNL     1      18.436   0.472  34.450  1.00  0.00     0.051 A 
HETATM   16  C18 UNL     1      17.868  -0.440  33.474  1.00  0.00     0.185 C 
HETATM   17  O4  UNL     1      16.731  -0.233  33.024  1.00  0.00    -0.290 OA
HETATM   18  C19 UNL     1      18.608  -1.637  32.981  1.00  0.00     0.220 C 
HETATM   19  C20 UNL     1      18.270  -2.820  33.749  1.00  0.00     0.078 C 
HETATM   20  N2  UNL     1      18.006  -3.785  34.353  1.00  0.00    -0.196 NA
ENDROOT
BRANCH   1  21
HETATM   21  C9  UNL     1      22.213  -1.799  32.043  1.00  0.00     0.129 C 
BRANCH  21  22
HETATM   22  C8  UNL     1      22.700  -1.958  30.602  1.00  0.00     0.130 C 
BRANCH  22  23
HETATM   23  C7  UNL     1      21.516  -2.246  29.758  1.00  0.00     0.260 C 
HETATM   24  O2  UNL     1      21.112  -3.405  29.603  1.00  0.00    -0.265 OA
BRANCH  23  25
HETATM   25  O1  UNL     1      20.880  -1.188  29.149  1.00  0.00    -0.321 OA
BRANCH  25  26
HETATM   26  C6  UNL     1      21.469   0.036  28.790  1.00  0.00     0.178 C 
BRANCH  26  27
HETATM   27  C5  UNL     1      20.531   1.182  28.785  1.00  0.00     0.027 C 
BRANCH  27  28
HETATM   28  C4  UNL     1      19.245   0.916  29.526  1.00  0.00     0.002 C 
BRANCH  28  29
HETATM   29  C3  UNL     1      18.143   1.843  29.151  1.00  0.00    -0.000 C 
BRANCH  29  30
HETATM   30  C2  UNL     1      16.887   1.459  29.873  1.00  0.00    -0.005 C 
HETATM   31  C1  UNL     1      16.390   0.097  29.505  1.00  0.00     0.005 C 
ENDBRANCH  29  30
ENDBRANCH  28  29
ENDBRANCH  27  28
ENDBRANCH  26  27
ENDBRANCH  25  26
ENDBRANCH  23  25
ENDBRANCH  22  23
ENDBRANCH  21  22
ENDBRANCH   1  21
TORSDOF 9
ENDMDL
MODEL 5
REMARK VINA RESULT: -8.784836377      2.390      3.384
REMARK  9 active torsions:
REMARK  status: ('A' for Active; 'I' for Inactive)
REMARK    1  A    between atoms: C2_2  and  C3_3 
REMARK    2  A    between atoms: C3_3  and  C4_4 
REMARK    3  A    between atoms: C4_4  and  C5_5 
REMARK    4  A    between atoms: C5_5  and  C6_6 
REMARK    5  A    between atoms: C6_6  and  O1_7 
REMARK    6  A    between atoms: O1_7  and  C7_8 
REMARK    7  A    between atoms: C7_8  and  C8_10 
REMARK    8  A    between atoms: C8_10  and  C9_11 
REMARK    9  A    between atoms: C9_11  and  N1_12 
ROOT
HETATM    1  N1  UNL     1      22.178  -1.963  32.459  1.00  0.00    -0.388 N 
ATOM      2  H1  UNL     1      22.170  -2.727  31.784  1.00  0.00     0.159 HD
HETATM    3  C10 UNL     1      21.088  -1.639  33.011  1.00  0.00     0.082 C 
HETATM    4  C11 UNL     1      21.001  -0.565  33.982  1.00  0.00     0.208 C 
HETATM    5  O3  UNL     1      21.988  -0.073  34.578  1.00  0.00    -0.285 OA
HETATM    6  C12 UNL     1      19.701   0.026  34.333  1.00  0.00     0.055 A 
HETATM    7  C13 UNL     1      19.569   1.047  35.247  1.00  0.00     0.072 A 
HETATM    8 CL1  UNL     1      21.052   1.643  36.011  1.00  0.00    -0.081 Cl
HETATM    9  C14 UNL     1      18.348   1.576  35.551  1.00  0.00     0.080 A 
HETATM   10 CL2  UNL     1      18.262   2.873  36.725  1.00  0.00    -0.081 Cl
HETATM   11  C15 UNL     1      17.188   1.099  34.944  1.00  0.00     0.080 A 
HETATM   12 CL3  UNL     1      15.611   1.778  35.333  1.00  0.00    -0.081 Cl
HETATM   13  C16 UNL     1      17.343   0.080  34.035  1.00  0.00     0.072 A 
HETATM   14 CL4  UNL     1      15.898  -0.552  33.243  1.00  0.00    -0.081 Cl
HETATM   15  C17 UNL     1      18.566  -0.465  33.716  1.00  0.00     0.051 A 
HETATM   16  C18 UNL     1      18.650  -1.540  32.745  1.00  0.00     0.185 C 
HETATM   17  O4  UNL     1      17.698  -1.757  31.981  1.00  0.00    -0.290 OA
HETATM   18  C19 UNL     1      19.854  -2.410  32.626  1.00  0.00     0.220 C 
HETATM   19  C20 UNL     1      19.713  -3.620  33.415  1.00  0.00     0.078 C 
HETATM   20  N2  UNL     1      19.614  -4.601  34.040  1.00  0.00    -0.196 NA
ENDROOT
BRANCH   1  21
HETATM   21  C9  UNL     1      23.417  -1.314  32.730  1.00  0.00     0.129 C 
BRANCH  21  22
HETATM   22  C8  UNL     1      24.426  -1.536  31.602  1.00  0.00     0.130 C 
BRANCH  22  23
HETATM   23  C7  UNL     1      23.739  -2.294  30.530  1.00  0.00     0.260 C 
HETATM   24  O2  UNL     1      23.211  -1.710  29.576  1.00  0.00    -0.265 OA
BRANCH  23  25
HETATM   25  O1  UNL     1      23.705  -3.667  30.624  1.00  0.00    -0.321 OA
BRANCH  25  26
HETATM   26  C6  UNL     1      22.988  -4.537  29.784  1.00  0.00     0.178 C 
BRANCH  26  27
HETATM   27  C5  UNL     1      21.661  -4.930  30.311  1.00  0.00     0.027 C 
BRANCH  27  28
HETATM   28  C4  UNL     1      21.260  -6.339  29.953  1.00  0.00     0.002 C 
BRANCH  28  29
HETATM   29  C3  UNL     1      20.682  -6.462  28.587  1.00  0.00    -0.000 C 
BRANCH  29  30
HETATM   30  C2  UNL     1      21.630  -7.206  27.698  1.00  0.00    -0.005 C 
HETATM   31  C1  UNL     1      21.936  -6.481  26.425  1.00  0.00     0.005 C 
ENDBRANCH  29  30
ENDBRANCH  28  29
ENDBRANCH  27  28
ENDBRANCH  26  27
ENDBRANCH  25  26
ENDBRANCH  23  25
ENDBRANCH  22  23
ENDBRANCH  21  22
ENDBRANCH   1  21
TORSDOF 9
ENDMDL
