MODEL 1
REMARK VINA RESULT: -10.832962546      0.000      0.000
REMARK  9 active torsions:
REMARK  status: ('A' for Active; 'I' for Inactive)
REMARK    1  A    between atoms: O1_2  and  C2_3 
REMARK    2  A    between atoms: C7_8  and  O2_9 
REMARK    3  A    between atoms: O2_9  and  C8_10 
REMARK    4  A    between atoms: C10_12  and  C11_13 
REMARK    5  A    between atoms: C12_14  and  C13_15 
REMARK    6  A    between atoms: C13_15  and  O4_17 
REMARK    7  A    between atoms: O4_17  and  C14_18 
REMARK    8  A    between atoms: C21_30  and  O5_31 
REMARK    9  A    between atoms: C23_33  and  O6_34 
ROOT
HETATM    1  C8  UNL     1      20.530  -5.671  32.379  1.00  0.00     0.113 A 
HETATM    2  C9  UNL     1      19.955  -4.380  32.315  1.00  0.00     0.051 A 
HETATM    3  C10 UNL     1      18.936  -3.946  33.117  1.00  0.00    -0.030 A 
HETATM    4  C20 UNL     1      18.450  -4.835  34.040  1.00  0.00     0.051 A 
HETATM    5  C21 UNL     1      18.980  -6.095  34.135  1.00  0.00     0.105 A 
HETATM    6  C23 UNL     1      20.029  -6.542  33.310  1.00  0.00     0.135 A 
ENDROOT
BRANCH   3   7
HETATM    7  C11 UNL     1      18.417  -2.582  32.962  1.00  0.00     0.017 C 
HETATM    8  C12 UNL     1      17.465  -2.093  33.693  1.00  0.00     0.083 C 
BRANCH   8   9
HETATM    9  C13 UNL     1      17.024  -0.712  33.449  1.00  0.00     0.288 C 
HETATM   10  O3  UNL     1      15.796  -0.468  33.428  1.00  0.00    -0.260 OA
BRANCH   9  11
HETATM   11  O4  UNL     1      17.949   0.295  33.247  1.00  0.00    -0.269 OA
BRANCH  11  12
HETATM   12  C14 UNL     1      18.577   0.888  34.324  1.00  0.00     0.163 A 
HETATM   13  C15 UNL     1      17.985   1.813  35.159  1.00  0.00     0.195 A 
HETATM   14  F1  UNL     1      16.685   2.170  34.911  1.00  0.00    -0.200 F 
HETATM   15  C16 UNL     1      18.671   2.374  36.227  1.00  0.00     0.199 A 
HETATM   16  F2  UNL     1      18.094   3.280  37.050  1.00  0.00    -0.199 F 
HETATM   17  C17 UNL     1      19.978   2.013  36.475  1.00  0.00     0.199 A 
HETATM   18  F3  UNL     1      20.684   2.540  37.511  1.00  0.00    -0.199 F 
HETATM   19  C18 UNL     1      20.600   1.082  35.646  1.00  0.00     0.199 A 
HETATM   20  F4  UNL     1      21.892   0.708  35.870  1.00  0.00    -0.199 F 
HETATM   21  C19 UNL     1      19.883   0.537  34.583  1.00  0.00     0.195 A 
HETATM   22  F5  UNL     1      20.540  -0.364  33.809  1.00  0.00    -0.200 F 
ENDBRANCH  11  12
ENDBRANCH   9  11
ENDBRANCH   8   9
ENDBRANCH   3   7
BRANCH   1  23
HETATM   23  O2  UNL     1      21.546  -5.929  31.505  1.00  0.00    -0.305 OA
BRANCH  23  24
HETATM   24  C7  UNL     1      21.527  -5.991  30.161  1.00  0.00     0.109 A 
HETATM   25  C2  UNL     1      22.500  -5.231  29.477  1.00  0.00     0.102 A 
HETATM   26  C3  UNL     1      22.581  -5.215  28.104  1.00  0.00     0.039 A 
HETATM   27  C4  UNL     1      21.717  -5.941  27.315  1.00  0.00     0.003 A 
HETATM   28  C5  UNL     1      20.765  -6.684  27.985  1.00  0.00     0.003 A 
HETATM   29  C6  UNL     1      20.672  -6.710  29.354  1.00  0.00     0.040 A 
BRANCH  25  30
HETATM   30  O1  UNL     1      23.384  -4.491  30.249  1.00  0.00    -0.353 OA
HETATM   31  C1  UNL     1      23.281  -3.082  30.241  1.00  0.00     0.210 C 
ENDBRANCH  25  30
ENDBRANCH  23  24
ENDBRANCH   1  23
BRANCH   5  32
HETATM   32  O5  UNL     1      18.479  -6.973  35.067  1.00  0.00    -0.353 OA
HETATM   33  C22 UNL     1      17.291  -7.677  34.790  1.00  0.00     0.210 C 
ENDBRANCH   5  32
BRANCH   6  34
HETATM   34  O6  UNL     1      20.493  -7.798  33.477  1.00  0.00    -0.351 OA
HETATM   35  C24 UNL     1      20.350  -8.976  32.797  1.00  0.00     0.210 C 
ENDBRANCH   6  34
TORSDOF 9
ENDMDL
MODEL 2
REMARK VINA RESULT: -10.784989686      0.203      1.802
REMARK  9 active torsions:
REMARK  status: ('A' for Active; 'I' for Inactive)
REMARK    1  A    between atoms: O1_2  and  C2_3 
REMARK    2  A    between atoms: C7_8  and  O2_9 
REMARK    3  A    between atoms: O2_9  and  C8_10 
REMARK    4  A    between atoms: C10_12  and  C11_13 
REMARK    5  A    between atoms: C12_14  and  C13_15 
REMARK    6  A    between atoms: C13_15  and  O4_17 
REMARK    7  A    between atoms: O4_17  and  C14_18 
REMARK    8  A    between atoms: C21_30  and  O5_31 
REMARK    9  A    between atoms: C23_33  and  O6_34 
ROOT
HETATM    1  C8  UNL     1      20.537  -5.711  32.366  1.00  0.00     0.113 A 
HETATM    2  C9  UNL     1      19.969  -4.417  32.302  1.00  0.00     0.051 A 
HETATM    3  C10 UNL     1      18.952  -3.978  33.106  1.00  0.00    -0.030 A 
HETATM    4  C20 UNL     1      18.462  -4.864  34.028  1.00  0.00     0.051 A 
HETATM    5  C21 UNL     1      18.984  -6.127  34.122  1.00  0.00     0.105 A 
HETATM    6  C23 UNL     1      20.031  -6.580  33.297  1.00  0.00     0.135 A 
ENDROOT
BRANCH   3   7
HETATM    7  C11 UNL     1      18.441  -2.610  32.951  1.00  0.00     0.017 C 
HETATM    8  C12 UNL     1      17.690  -2.025  33.831  1.00  0.00     0.083 C 
BRANCH   8   9
HETATM    9  C13 UNL     1      17.235  -0.652  33.571  1.00  0.00     0.288 C 
HETATM   10  O3  UNL     1      16.004  -0.420  33.554  1.00  0.00    -0.260 OA
BRANCH   9  11
HETATM   11  O4  UNL     1      18.149   0.361  33.350  1.00  0.00    -0.269 OA
BRANCH  11  12
HETATM   12  C14 UNL     1      18.897   0.863  34.396  1.00  0.00     0.163 A 
HETATM   13  C15 UNL     1      20.182   0.464  34.698  1.00  0.00     0.195 A 
HETATM   14  F1  UNL     1      20.765  -0.494  33.909  1.00  0.00    -0.200 F 
HETATM   15  C16 UNL     1      20.882   1.007  35.767  1.00  0.00     0.199 A 
HETATM   16  F2  UNL     1      22.143   0.620  36.066  1.00  0.00    -0.199 F 
HETATM   17  C17 UNL     1      20.295   1.970  36.559  1.00  0.00     0.199 A 
HETATM   18  F3  UNL     1      20.947   2.528  37.614  1.00  0.00    -0.199 F 
HETATM   19  C18 UNL     1      18.997   2.391  36.276  1.00  0.00     0.199 A 
HETATM   20  F4  UNL     1      18.394   3.343  37.045  1.00  0.00    -0.199 F 
HETATM   21  C19 UNL     1      18.322   1.825  35.197  1.00  0.00     0.195 A 
HETATM   22  F5  UNL     1      17.061   2.274  34.969  1.00  0.00    -0.200 F 
ENDBRANCH  11  12
ENDBRANCH   9  11
ENDBRANCH   8   9
ENDBRANCH   3   7
BRANCH   1  23
HETATM   23  O2  UNL     1      21.551  -5.974  31.492  1.00  0.00    -0.305 OA
BRANCH  23  24
HETATM   24  C7  UNL     1      21.538  -6.009  30.147  1.00  0.00     0.109 A 
HETATM   25  C2  UNL     1      22.510  -5.232  29.482  1.00  0.00     0.102 A 
HETATM   26  C3  UNL     1      22.597  -5.187  28.110  1.00  0.00     0.039 A 
HETATM   27  C4  UNL     1      21.738  -5.900  27.303  1.00  0.00     0.003 A 
HETATM   28  C5  UNL     1      20.786  -6.660  27.954  1.00  0.00     0.003 A 
HETATM   29  C6  UNL     1      20.688  -6.714  29.321  1.00  0.00     0.040 A 
BRANCH  25  30
HETATM   30  O1  UNL     1      23.389  -4.505  30.273  1.00  0.00    -0.353 OA
HETATM   31  C1  UNL     1      23.302  -3.095  30.268  1.00  0.00     0.210 C 
ENDBRANCH  25  30
ENDBRANCH  23  24
ENDBRANCH   1  23
BRANCH   5  32
HETATM   32  O5  UNL     1      18.479  -7.003  35.053  1.00  0.00    -0.353 OA
HETATM   33  C22 UNL     1      17.296  -7.712  34.769  1.00  0.00     0.210 C 
ENDBRANCH   5  32
BRANCH   6  34
HETATM   34  O6  UNL     1      20.488  -7.838  33.463  1.00  0.00    -0.351 OA
HETATM   35  C24 UNL     1      20.350  -9.012  32.774  1.00  0.00     0.210 C 
ENDBRANCH   6  34
TORSDOF 9
ENDMDL
MODEL 3
REMARK VINA RESULT: -10.470996507      1.514      2.277
REMARK  9 active torsions:
REMARK  status: ('A' for Active; 'I' for Inactive)
REMARK    1  A    between atoms: O1_2  and  C2_3 
REMARK    2  A    between atoms: C7_8  and  O2_9 
REMARK    3  A    between atoms: O2_9  and  C8_10 
REMARK    4  A    between atoms: C10_12  and  C11_13 
REMARK    5  A    between atoms: C12_14  and  C13_15 
REMARK    6  A    between atoms: C13_15  and  O4_17 
REMARK    7  A    between atoms: O4_17  and  C14_18 
REMARK    8  A    between atoms: C21_30  and  O5_31 
REMARK    9  A    between atoms: C23_33  and  O6_34 
ROOT
HETATM    1  C8  UNL     1      20.968  -5.999  31.501  1.00  0.00     0.113 A 
HETATM    2  C9  UNL     1      20.387  -4.764  31.128  1.00  0.00     0.051 A 
HETATM    3  C10 UNL     1      19.500  -4.062  31.898  1.00  0.00    -0.030 A 
HETATM    4  C20 UNL     1      19.160  -4.607  33.108  1.00  0.00     0.051 A 
HETATM    5  C21 UNL     1      19.700  -5.802  33.506  1.00  0.00     0.105 A 
HETATM    6  C23 UNL     1      20.614  -6.524  32.715  1.00  0.00     0.135 A 
ENDROOT
BRANCH   3   7
HETATM    7  C11 UNL     1      18.961  -2.787  31.409  1.00  0.00     0.017 C 
HETATM    8  C12 UNL     1      18.448  -1.885  32.185  1.00  0.00     0.083 C 
BRANCH   8   9
HETATM    9  C13 UNL     1      17.937  -0.644  31.585  1.00  0.00     0.288 C 
HETATM   10  O3  UNL     1      17.257  -0.719  30.536  1.00  0.00    -0.260 OA
BRANCH   9  11
HETATM   11  O4  UNL     1      18.204   0.580  32.170  1.00  0.00    -0.269 OA
BRANCH  11  12
HETATM   12  C14 UNL     1      17.472   1.004  33.260  1.00  0.00     0.163 A 
HETATM   13  C15 UNL     1      16.095   1.062  33.300  1.00  0.00     0.195 A 
HETATM   14  F1  UNL     1      15.398   0.673  32.186  1.00  0.00    -0.200 F 
HETATM   15  C16 UNL     1      15.416   1.499  34.430  1.00  0.00     0.199 A 
HETATM   16  F2  UNL     1      14.065   1.557  34.474  1.00  0.00    -0.199 F 
HETATM   17  C17 UNL     1      16.119   1.890  35.550  1.00  0.00     0.199 A 
HETATM   18  F3  UNL     1      15.491   2.323  36.676  1.00  0.00    -0.199 F 
HETATM   19  C18 UNL     1      17.512   1.841  35.536  1.00  0.00     0.199 A 
HETATM   20  F4  UNL     1      18.229   2.222  36.631  1.00  0.00    -0.199 F 
HETATM   21  C19 UNL     1      18.161   1.398  34.387  1.00  0.00     0.195 A 
HETATM   22  F5  UNL     1      19.518   1.371  34.431  1.00  0.00    -0.200 F 
ENDBRANCH  11  12
ENDBRANCH   9  11
ENDBRANCH   8   9
ENDBRANCH   3   7
BRANCH   1  23
HETATM   23  O2  UNL     1      21.841  -6.553  30.610  1.00  0.00    -0.305 OA
BRANCH  23  24
HETATM   24  C7  UNL     1      21.963  -6.348  29.286  1.00  0.00     0.109 A 
HETATM   25  C2  UNL     1      22.958  -5.436  28.875  1.00  0.00     0.102 A 
HETATM   26  C3  UNL     1      23.178  -5.145  27.548  1.00  0.00     0.039 A 
HETATM   27  C4  UNL     1      22.439  -5.728  26.543  1.00  0.00     0.003 A 
HETATM   28  C5  UNL     1      21.466  -6.620  26.946  1.00  0.00     0.003 A 
HETATM   29  C6  UNL     1      21.235  -6.921  28.265  1.00  0.00     0.040 A 
BRANCH  25  30
HETATM   30  O1  UNL     1      23.717  -4.836  29.869  1.00  0.00    -0.353 OA
HETATM   31  C1  UNL     1      23.562  -3.451  30.102  1.00  0.00     0.210 C 
ENDBRANCH  25  30
ENDBRANCH  23  24
ENDBRANCH   1  23
BRANCH   5  32
HETATM   32  O5  UNL     1      19.348  -6.334  34.724  1.00  0.00    -0.353 OA
HETATM   33  C22 UNL     1      18.068  -6.898  34.890  1.00  0.00     0.210 C 
ENDBRANCH   5  32
BRANCH   6  34
HETATM   34  O6  UNL     1      21.100  -7.689  33.189  1.00  0.00    -0.351 OA
HETATM   35  C24 UNL     1      20.817  -9.011  32.973  1.00  0.00     0.210 C 
ENDBRANCH   6  34
TORSDOF 9
ENDMDL
MODEL 4
REMARK VINA RESULT: -10.457271355      1.444      4.176
REMARK  9 active torsions:
REMARK  status: ('A' for Active; 'I' for Inactive)
REMARK    1  A    between atoms: O1_2  and  C2_3 
REMARK    2  A    between atoms: C7_8  and  O2_9 
REMARK    3  A    between atoms: O2_9  and  C8_10 
REMARK    4  A    between atoms: C10_12  and  C11_13 
REMARK    5  A    between atoms: C12_14  and  C13_15 
REMARK    6  A    between atoms: C13_15  and  O4_17 
REMARK    7  A    between atoms: O4_17  and  C14_18 
REMARK    8  A    between atoms: C21_30  and  O5_31 
REMARK    9  A    between atoms: C23_33  and  O6_34 
ROOT
HETATM    1  C8  UNL     1      20.248  -5.296  32.323  1.00  0.00     0.113 A 
HETATM    2  C9  UNL     1      19.482  -4.197  32.777  1.00  0.00     0.051 A 
HETATM    3  C10 UNL     1      19.248  -3.063  32.048  1.00  0.00    -0.030 A 
HETATM    4  C20 UNL     1      19.801  -3.004  30.795  1.00  0.00     0.051 A 
HETATM    5  C21 UNL     1      20.549  -4.048  30.319  1.00  0.00     0.105 A 
HETATM    6  C23 UNL     1      20.790  -5.215  31.068  1.00  0.00     0.135 A 
ENDROOT
BRANCH   3   7
HETATM    7  C11 UNL     1      18.435  -1.983  32.620  1.00  0.00     0.017 C 
HETATM    8  C12 UNL     1      18.136  -0.897  31.979  1.00  0.00     0.083 C 
BRANCH   8   9
HETATM    9  C13 UNL     1      17.315   0.119  32.653  1.00  0.00     0.288 C 
HETATM   10  O3  UNL     1      16.885   1.085  31.982  1.00  0.00    -0.260 OA
BRANCH   9  11
HETATM   11  O4  UNL     1      17.024   0.007  34.000  1.00  0.00    -0.269 OA
BRANCH  11  12
HETATM   12  C14 UNL     1      17.479   0.958  34.890  1.00  0.00     0.163 A 
HETATM   13  C15 UNL     1      16.664   1.798  35.620  1.00  0.00     0.195 A 
HETATM   14  F1  UNL     1      15.308   1.685  35.456  1.00  0.00    -0.200 F 
HETATM   15  C16 UNL     1      17.184   2.736  36.500  1.00  0.00     0.199 A 
HETATM   16  F2  UNL     1      16.388   3.561  37.218  1.00  0.00    -0.199 F 
HETATM   17  C17 UNL     1      18.549   2.847  36.663  1.00  0.00     0.199 A 
HETATM   18  F3  UNL     1      19.098   3.753  37.516  1.00  0.00    -0.199 F 
HETATM   19  C18 UNL     1      19.396   2.012  35.938  1.00  0.00     0.199 A 
HETATM   20  F4  UNL     1      20.749   2.103  36.082  1.00  0.00    -0.199 F 
HETATM   21  C19 UNL     1      18.841   1.081  35.063  1.00  0.00     0.195 A 
HETATM   22  F5  UNL     1      19.713   0.294  34.384  1.00  0.00    -0.200 F 
ENDBRANCH  11  12
ENDBRANCH   9  11
ENDBRANCH   8   9
ENDBRANCH   3   7
BRANCH   1  23
HETATM   23  O2  UNL     1      20.370  -6.348  33.184  1.00  0.00    -0.305 OA
BRANCH  23  24
HETATM   24  C7  UNL     1      19.462  -7.274  33.542  1.00  0.00     0.109 A 
HETATM   25  C2  UNL     1      19.779  -8.618  33.253  1.00  0.00     0.102 A 
HETATM   26  C3  UNL     1      18.930  -9.654  33.572  1.00  0.00     0.039 A 
HETATM   27  C4  UNL     1      17.720  -9.438  34.193  1.00  0.00     0.003 A 
HETATM   28  C5  UNL     1      17.411  -8.122  34.476  1.00  0.00     0.003 A 
HETATM   29  C6  UNL     1      18.247  -7.079  34.164  1.00  0.00     0.040 A 
BRANCH  25  30
HETATM   30  O1  UNL     1      20.993  -8.863  32.628  1.00  0.00    -0.353 OA
HETATM   31  C1  UNL     1      21.163 -10.073  31.919  1.00  0.00     0.210 C 
ENDBRANCH  25  30
ENDBRANCH  23  24
ENDBRANCH   1  23
BRANCH   5  32
HETATM   32  O5  UNL     1      21.097  -3.972  29.060  1.00  0.00    -0.353 OA
HETATM   33  C22 UNL     1      22.355  -3.364  28.886  1.00  0.00     0.210 C 
ENDBRANCH   5  32
BRANCH   6  34
HETATM   34  O6  UNL     1      21.534  -6.196  30.517  1.00  0.00    -0.351 OA
HETATM   35  C24 UNL     1      21.305  -7.170  29.583  1.00  0.00     0.210 C 
ENDBRANCH   6  34
TORSDOF 9
ENDMDL
MODEL 5
REMARK VINA RESULT: -10.431671862      3.651      7.257
REMARK  9 active torsions:
REMARK  status: ('A' for Active; 'I' for Inactive)
REMARK    1  A    between atoms: O1_2  and  C2_3 
REMARK    2  A    between atoms: C7_8  and  O2_9 
REMARK    3  A    between atoms: O2_9  and  C8_10 
REMARK    4  A    between atoms: C10_12  and  C11_13 
REMARK    5  A    between atoms: C12_14  and  C13_15 
REMARK    6  A    between atoms: C13_15  and  O4_17 
REMARK    7  A    between atoms: O4_17  and  C14_18 
REMARK    8  A    between atoms: C21_30  and  O5_31 
REMARK    9  A    between atoms: C23_33  and  O6_34 
ROOT
HETATM    1  C8  UNL     1      18.266  -0.840  33.997  1.00  0.00     0.113 A 
HETATM    2  C9  UNL     1      19.648  -0.689  34.260  1.00  0.00     0.051 A 
HETATM    3  C10 UNL     1      20.203   0.394  34.885  1.00  0.00    -0.030 A 
HETATM    4  C20 UNL     1      19.349   1.392  35.275  1.00  0.00     0.051 A 
HETATM    5  C21 UNL     1      18.004   1.285  35.038  1.00  0.00     0.105 A 
HETATM    6  C23 UNL     1      17.432   0.170  34.396  1.00  0.00     0.135 A 
ENDROOT
BRANCH   3   7
HETATM    7  C11 UNL     1      21.654   0.443  35.108  1.00  0.00     0.017 C 
HETATM    8  C12 UNL     1      22.496  -0.329  34.497  1.00  0.00     0.083 C 
BRANCH   8   9
HETATM    9  C13 UNL     1      23.928  -0.192  34.799  1.00  0.00     0.288 C 
HETATM   10  O3  UNL     1      24.267   0.416  35.840  1.00  0.00    -0.260 OA
BRANCH   9  11
HETATM   11  O4  UNL     1      24.879  -0.726  33.949  1.00  0.00    -0.269 OA
BRANCH  11  12
HETATM   12  C14 UNL     1      24.890  -0.379  32.613  1.00  0.00     0.163 A 
HETATM   13  C15 UNL     1      24.217  -1.067  31.624  1.00  0.00     0.195 A 
HETATM   14  F1  UNL     1      23.485  -2.168  31.984  1.00  0.00    -0.200 F 
HETATM   15  C16 UNL     1      24.268  -0.667  30.296  1.00  0.00     0.199 A 
HETATM   16  F2  UNL     1      23.610  -1.338  29.323  1.00  0.00    -0.199 F 
HETATM   17  C17 UNL     1      25.005   0.441  29.936  1.00  0.00     0.199 A 
HETATM   18  F3  UNL     1      25.079   0.865  28.645  1.00  0.00    -0.199 F 
HETATM   19  C18 UNL     1      25.694   1.153  30.915  1.00  0.00     0.199 A 
HETATM   20  F4  UNL     1      26.429   2.253  30.584  1.00  0.00    -0.199 F 
HETATM   21  C19 UNL     1      25.622   0.726  32.239  1.00  0.00     0.195 A 
HETATM   22  F5  UNL     1      26.313   1.458  33.149  1.00  0.00    -0.200 F 
ENDBRANCH  11  12
ENDBRANCH   9  11
ENDBRANCH   8   9
ENDBRANCH   3   7
BRANCH   1  23
HETATM   23  O2  UNL     1      17.889  -1.992  33.371  1.00  0.00    -0.305 OA
BRANCH  23  24
HETATM   24  C7  UNL     1      18.339  -3.248  33.540  1.00  0.00     0.109 A 
HETATM   25  C2  UNL     1      19.197  -3.755  32.540  1.00  0.00     0.102 A 
HETATM   26  C3  UNL     1      19.721  -5.025  32.603  1.00  0.00     0.039 A 
HETATM   27  C4  UNL     1      19.440  -5.878  33.647  1.00  0.00     0.003 A 
HETATM   28  C5  UNL     1      18.600  -5.382  34.624  1.00  0.00     0.003 A 
HETATM   29  C6  UNL     1      18.070  -4.117  34.575  1.00  0.00     0.040 A 
BRANCH  25  30
HETATM   30  O1  UNL     1      19.497  -2.914  31.478  1.00  0.00    -0.353 OA
HETATM   31  C1  UNL     1      19.925  -3.484  30.258  1.00  0.00     0.210 C 
ENDBRANCH  25  30
ENDBRANCH  23  24
ENDBRANCH   1  23
BRANCH   5  32
HETATM   32  O5  UNL     1      17.162   2.297  35.436  1.00  0.00    -0.353 OA
HETATM   33  C22 UNL     1      17.364   2.917  36.684  1.00  0.00     0.210 C 
ENDBRANCH   5  32
BRANCH   6  34
HETATM   34  O6  UNL     1      16.096   0.146  34.210  1.00  0.00    -0.351 OA
HETATM   35  C24 UNL     1      15.268   0.353  33.141  1.00  0.00     0.210 C 
ENDBRANCH   6  34
TORSDOF 9
ENDMDL
