MODEL 1
REMARK VINA RESULT: -4.544532455      0.000      0.000
REMARK  5 active torsions:
REMARK  status: ('A' for Active; 'I' for Inactive)
REMARK    1  A    between atoms: O1_1  and  C1_3 
REMARK    2  A    between atoms: C1_3  and  C2_4 
REMARK    3  A    between atoms: C2_4  and  C3_5 
REMARK    4  A    between atoms: C3_5  and  C4_6 
REMARK    5  A    between atoms: C4_6  and  N1_7 
ROOT
HETATM    1  N1  UNL     1      33.675   2.240  55.051  1.00  0.00    -0.322 N 
HETATM    2  C5  UNL     1      34.791   2.911  54.695  1.00  0.00     0.179 A 
HETATM    3  S1  UNL     1      35.090   4.509  54.959  1.00  0.00    -0.040 SA
HETATM    4  N2  UNL     1      35.593   2.014  54.089  1.00  0.00    -0.330 N 
ATOM      5  H2  UNL     1      36.515   2.225  53.707  1.00  0.00     0.168 HD
HETATM    6  C6  UNL     1      35.012   0.801  54.056  1.00  0.00     0.085 A 
HETATM    7  C7  UNL     1      35.407  -0.427  53.558  1.00  0.00     0.086 A 
HETATM    8 CL1  UNL     1      36.958  -0.634  52.774  1.00  0.00    -0.080 Cl
HETATM    9  C8  UNL     1      34.546  -1.501  53.692  1.00  0.00     0.080 A 
HETATM   10 CL2  UNL     1      35.024  -3.048  53.074  1.00  0.00    -0.081 Cl
HETATM   11  C9  UNL     1      33.312  -1.381  54.304  1.00  0.00     0.059 A 
HETATM   12 CL3  UNL     1      32.232  -2.748  54.468  1.00  0.00    -0.082 Cl
HETATM   13  C10 UNL     1      32.946  -0.147  54.791  1.00  0.00     0.057 A 
HETATM   14  C11 UNL     1      33.779   0.948  54.675  1.00  0.00     0.067 A 
ENDROOT
BRANCH   1  15
HETATM   15  C4  UNL     1      32.548   2.850  55.738  1.00  0.00     0.132 C 
BRANCH  15  16
HETATM   16  C3  UNL     1      31.580   3.476  54.735  1.00  0.00     0.022 C 
BRANCH  16  17
HETATM   17  C2  UNL     1      30.180   3.057  55.150  1.00  0.00     0.028 C 
BRANCH  17  18
HETATM   18  C1  UNL     1      29.765   1.768  54.499  1.00  0.00     0.164 C 
BRANCH  18  19
HETATM   19  O1  UNL     1      28.499   1.442  54.984  1.00  0.00    -0.401 OA
ATOM     20  H1  UNL     1      27.865   1.960  54.502  1.00  0.00     0.209 HD
ENDBRANCH  18  19
ENDBRANCH  17  18
ENDBRANCH  16  17
ENDBRANCH  15  16
ENDBRANCH   1  15
TORSDOF 5
ENDMDL
MODEL 2
REMARK VINA RESULT: -4.524618512      3.305      4.516
REMARK  5 active torsions:
REMARK  status: ('A' for Active; 'I' for Inactive)
REMARK    1  A    between atoms: O1_1  and  C1_3 
REMARK    2  A    between atoms: C1_3  and  C2_4 
REMARK    3  A    between atoms: C2_4  and  C3_5 
REMARK    4  A    between atoms: C3_5  and  C4_6 
REMARK    5  A    between atoms: C4_6  and  N1_7 
ROOT
HETATM    1  N1  UNL     1      34.119  -0.589  54.038  1.00  0.00    -0.322 N 
HETATM    2  C5  UNL     1      33.510  -1.787  53.912  1.00  0.00     0.179 A 
HETATM    3  S1  UNL     1      32.390  -2.421  54.939  1.00  0.00    -0.040 SA
HETATM    4  N2  UNL     1      34.004  -2.345  52.789  1.00  0.00    -0.330 N 
ATOM      5  H2  UNL     1      33.733  -3.260  52.429  1.00  0.00     0.168 HD
HETATM    6  C6  UNL     1      34.903  -1.530  52.208  1.00  0.00     0.085 A 
HETATM    7  C7  UNL     1      35.677  -1.632  51.067  1.00  0.00     0.086 A 
HETATM    8 CL1  UNL     1      35.601  -3.047  50.040  1.00  0.00    -0.080 Cl
HETATM    9  C8  UNL     1      36.521  -0.585  50.748  1.00  0.00     0.080 A 
HETATM   10 CL2  UNL     1      37.500  -0.695  49.321  1.00  0.00    -0.081 Cl
HETATM   11  C9  UNL     1      36.614   0.551  51.532  1.00  0.00     0.059 A 
HETATM   12 CL3  UNL     1      37.686   1.869  51.116  1.00  0.00    -0.082 Cl
HETATM   13  C10 UNL     1      35.831   0.624  52.661  1.00  0.00     0.057 A 
HETATM   14  C11 UNL     1      34.976  -0.401  53.012  1.00  0.00     0.067 A 
ENDROOT
BRANCH   1  15
HETATM   15  C4  UNL     1      33.864   0.338  55.128  1.00  0.00     0.132 C 
BRANCH  15  16
HETATM   16  C3  UNL     1      32.823   1.380  54.718  1.00  0.00     0.022 C 
BRANCH  16  17
HETATM   17  C2  UNL     1      32.930   2.526  55.709  1.00  0.00     0.028 C 
BRANCH  17  18
HETATM   18  C1  UNL     1      33.026   3.858  55.017  1.00  0.00     0.164 C 
BRANCH  18  19
HETATM   19  O1  UNL     1      34.371   4.224  54.997  1.00  0.00    -0.401 OA
ATOM     20  H1  UNL     1      34.544   4.630  54.156  1.00  0.00     0.209 HD
ENDBRANCH  18  19
ENDBRANCH  17  18
ENDBRANCH  16  17
ENDBRANCH  15  16
ENDBRANCH   1  15
TORSDOF 5
ENDMDL
MODEL 3
REMARK VINA RESULT: -4.491459364      4.183      6.094
REMARK  5 active torsions:
REMARK  status: ('A' for Active; 'I' for Inactive)
REMARK    1  A    between atoms: O1_1  and  C1_3 
REMARK    2  A    between atoms: C1_3  and  C2_4 
REMARK    3  A    between atoms: C2_4  and  C3_5 
REMARK    4  A    between atoms: C3_5  and  C4_6 
REMARK    5  A    between atoms: C4_6  and  N1_7 
ROOT
HETATM    1  N1  UNL     1      34.908  -0.607  54.130  1.00  0.00    -0.322 N 
HETATM    2  C5  UNL     1      33.993  -1.597  54.061  1.00  0.00     0.179 A 
HETATM    3  S1  UNL     1      34.305  -3.192  53.792  1.00  0.00    -0.040 SA
HETATM    4  N2  UNL     1      32.793  -1.017  54.255  1.00  0.00    -0.330 N 
ATOM      5  H2  UNL     1      31.901  -1.513  54.258  1.00  0.00     0.168 HD
HETATM    6  C6  UNL     1      32.930   0.308  54.444  1.00  0.00     0.085 A 
HETATM    7  C7  UNL     1      32.030   1.332  54.678  1.00  0.00     0.086 A 
HETATM    8 CL1  UNL     1      30.310   1.023  54.783  1.00  0.00    -0.080 Cl
HETATM    9  C8  UNL     1      32.517   2.616  54.830  1.00  0.00     0.080 A 
HETATM   10 CL2  UNL     1      31.403   3.912  55.124  1.00  0.00    -0.081 Cl
HETATM   11  C9  UNL     1      33.868   2.905  54.753  1.00  0.00     0.059 A 
HETATM   12 CL3  UNL     1      34.471   4.535  54.947  1.00  0.00    -0.082 Cl
HETATM   13  C10 UNL     1      34.740   1.866  54.520  1.00  0.00     0.057 A 
HETATM   14  C11 UNL     1      34.291   0.570  54.363  1.00  0.00     0.067 A 
ENDROOT
BRANCH   1  15
HETATM   15  C4  UNL     1      36.338  -0.814  53.973  1.00  0.00     0.132 C 
BRANCH  15  16
HETATM   16  C3  UNL     1      36.737  -0.726  52.500  1.00  0.00     0.022 C 
BRANCH  16  17
HETATM   17  C2  UNL     1      37.361   0.643  52.291  1.00  0.00     0.028 C 
BRANCH  17  18
HETATM   18  C1  UNL     1      36.970   1.241  50.969  1.00  0.00     0.164 C 
BRANCH  18  19
HETATM   19  O1  UNL     1      37.714   2.409  50.801  1.00  0.00    -0.401 OA
ATOM     20  H1  UNL     1      37.871   2.516  49.870  1.00  0.00     0.209 HD
ENDBRANCH  18  19
ENDBRANCH  17  18
ENDBRANCH  16  17
ENDBRANCH  15  16
ENDBRANCH   1  15
TORSDOF 5
ENDMDL
MODEL 4
REMARK VINA RESULT: -4.426387114      4.478      6.247
REMARK  5 active torsions:
REMARK  status: ('A' for Active; 'I' for Inactive)
REMARK    1  A    between atoms: O1_1  and  C1_3 
REMARK    2  A    between atoms: C1_3  and  C2_4 
REMARK    3  A    between atoms: C2_4  and  C3_5 
REMARK    4  A    between atoms: C3_5  and  C4_6 
REMARK    5  A    between atoms: C4_6  and  N1_7 
ROOT
HETATM    1  N1  UNL     1      35.148  -1.521  51.534  1.00  0.00    -0.322 N 
HETATM    2  C5  UNL     1      34.421  -2.653  51.646  1.00  0.00     0.179 A 
HETATM    3  S1  UNL     1      34.291  -3.840  50.512  1.00  0.00    -0.040 SA
HETATM    4  N2  UNL     1      33.835  -2.607  52.858  1.00  0.00    -0.330 N 
ATOM      5  H2  UNL     1      33.217  -3.328  53.231  1.00  0.00     0.168 HD
HETATM    6  C6  UNL     1      34.174  -1.479  53.509  1.00  0.00     0.085 A 
HETATM    7  C7  UNL     1      33.850  -0.966  54.751  1.00  0.00     0.086 A 
HETATM    8 CL1  UNL     1      32.786  -1.829  55.841  1.00  0.00    -0.080 Cl
HETATM    9  C8  UNL     1      34.385   0.253  55.121  1.00  0.00     0.080 A 
HETATM   10 CL2  UNL     1      33.989   0.912  56.675  1.00  0.00    -0.081 Cl
HETATM   11  C9  UNL     1      35.229   0.968  54.291  1.00  0.00     0.059 A 
HETATM   12 CL3  UNL     1      35.901   2.511  54.772  1.00  0.00    -0.082 Cl
HETATM   13  C10 UNL     1      35.535   0.433  53.061  1.00  0.00     0.057 A 
HETATM   14  C11 UNL     1      35.019  -0.782  52.656  1.00  0.00     0.067 A 
ENDROOT
BRANCH   1  15
HETATM   15  C4  UNL     1      35.942  -1.181  50.365  1.00  0.00     0.132 C 
BRANCH  15  16
HETATM   16  C3  UNL     1      35.433   0.110  49.724  1.00  0.00     0.022 C 
BRANCH  16  17
HETATM   17  C2  UNL     1      36.651   0.861  49.214  1.00  0.00     0.028 C 
BRANCH  17  18
HETATM   18  C1  UNL     1      37.693   1.032  50.285  1.00  0.00     0.164 C 
BRANCH  18  19
HETATM   19  O1  UNL     1      37.685   2.373  50.667  1.00  0.00    -0.401 OA
ATOM     20  H1  UNL     1      38.589   2.664  50.709  1.00  0.00     0.209 HD
ENDBRANCH  18  19
ENDBRANCH  17  18
ENDBRANCH  16  17
ENDBRANCH  15  16
ENDBRANCH   1  15
TORSDOF 5
ENDMDL
MODEL 5
REMARK VINA RESULT: -4.417983141      3.814      4.899
REMARK  5 active torsions:
REMARK  status: ('A' for Active; 'I' for Inactive)
REMARK    1  A    between atoms: O1_1  and  C1_3 
REMARK    2  A    between atoms: C1_3  and  C2_4 
REMARK    3  A    between atoms: C2_4  and  C3_5 
REMARK    4  A    between atoms: C3_5  and  C4_6 
REMARK    5  A    between atoms: C4_6  and  N1_7 
ROOT
HETATM    1  N1  UNL     1      33.369  -1.525  54.949  1.00  0.00    -0.322 N 
HETATM    2  C5  UNL     1      34.666  -1.900  54.998  1.00  0.00     0.179 A 
HETATM    3  S1  UNL     1      35.228  -3.447  55.066  1.00  0.00    -0.040 SA
HETATM    4  N2  UNL     1      35.388  -0.763  54.981  1.00  0.00    -0.330 N 
ATOM      5  H2  UNL     1      36.407  -0.723  55.010  1.00  0.00     0.168 HD
HETATM    6  C6  UNL     1      34.583   0.313  54.921  1.00  0.00     0.085 A 
HETATM    7  C7  UNL     1      34.819   1.675  54.883  1.00  0.00     0.086 A 
HETATM    8 CL1  UNL     1      36.448   2.315  54.909  1.00  0.00    -0.080 Cl
HETATM    9  C8  UNL     1      33.736   2.530  54.823  1.00  0.00     0.080 A 
HETATM   10 CL2  UNL     1      34.013   4.241  54.774  1.00  0.00    -0.081 Cl
HETATM   11  C9  UNL     1      32.432   2.067  54.802  1.00  0.00     0.059 A 
HETATM   12 CL3  UNL     1      31.069   3.161  54.725  1.00  0.00    -0.082 Cl
HETATM   13  C10 UNL     1      32.227   0.707  54.841  1.00  0.00     0.057 A 
HETATM   14  C11 UNL     1      33.285  -0.179  54.900  1.00  0.00     0.067 A 
ENDROOT
BRANCH   1  15
HETATM   15  C4  UNL     1      32.256  -2.460  54.947  1.00  0.00     0.132 C 
BRANCH  15  16
HETATM   16  C3  UNL     1      31.765  -2.716  56.372  1.00  0.00     0.022 C 
BRANCH  16  17
HETATM   17  C2  UNL     1      30.534  -3.598  56.264  1.00  0.00     0.028 C 
BRANCH  17  18
HETATM   18  C1  UNL     1      29.460  -3.183  57.230  1.00  0.00     0.164 C 
BRANCH  18  19
HETATM   19  O1  UNL     1      28.230  -3.429  56.622  1.00  0.00    -0.401 OA
ATOM     20  H1  UNL     1      27.847  -2.588  56.401  1.00  0.00     0.209 HD
ENDBRANCH  18  19
ENDBRANCH  17  18
ENDBRANCH  16  17
ENDBRANCH  15  16
ENDBRANCH   1  15
TORSDOF 5
ENDMDL
