MODEL 1
REMARK VINA RESULT: -5.530993818      0.000      0.000
REMARK  5 active torsions:
REMARK  status: ('A' for Active; 'I' for Inactive)
REMARK    1  A    between atoms: C2_2  and  C3_3 
REMARK    2  A    between atoms: C2_2  and  C4_5 
REMARK    3  A    between atoms: C4_5  and  N1_7 
REMARK    4  A    between atoms: N1_7  and  C6_9 
REMARK    5  A    between atoms: C14_20  and  N2_21 
ROOT
HETATM    1  C6  UNL     1      34.151   0.900  54.641  1.00  0.00     0.061 A 
HETATM    2  C7  UNL     1      35.494   1.212  54.684  1.00  0.00     0.086 A 
HETATM    3 CL2  UNL     1      36.003   2.882  54.402  1.00  0.00    -0.080 Cl
HETATM    4  C8  UNL     1      36.479   0.262  54.919  1.00  0.00     0.099 A 
HETATM    5 CL3  UNL     1      38.169   0.707  54.966  1.00  0.00    -0.079 Cl
HETATM    6  C9  UNL     1      36.106  -1.048  55.117  1.00  0.00     0.173 A 
HETATM    7  F1  UNL     1      37.051  -2.022  55.352  1.00  0.00    -0.201 F 
HETATM    8  C10 UNL     1      34.767  -1.404  55.081  1.00  0.00     0.120 A 
HETATM    9  C11 UNL     1      33.808  -0.419  54.843  1.00  0.00     0.007 A 
HETATM   10  C12 UNL     1      32.357  -0.753  54.795  1.00  0.00     0.048 C 
HETATM   11  C13 UNL     1      32.245  -2.238  54.510  1.00  0.00     0.066 C 
HETATM   12  C14 UNL     1      33.041  -2.967  55.599  1.00  0.00     0.325 C 
HETATM   13  O1  UNL     1      34.402  -2.744  55.283  1.00  0.00    -0.314 OA
ENDROOT
BRANCH   1  14
HETATM   14  N1  UNL     1      33.141   1.852  54.430  1.00  0.00    -0.380 N 
ATOM     15  H1  UNL     1      32.759   1.890  53.484  1.00  0.00     0.160 HD
BRANCH  14  16
HETATM   16  C4  UNL     1      32.583   2.765  55.354  1.00  0.00     0.107 C 
HETATM   17  C5  UNL     1      33.250   4.106  55.191  1.00  0.00     0.037 C 
BRANCH  16  18
HETATM   18  C2  UNL     1      31.116   2.942  55.308  1.00  0.00    -0.053 C 
HETATM   19  C1  UNL     1      30.466   3.692  56.181  1.00  0.00     0.017 C 
BRANCH  18  20
HETATM   20  C3  UNL     1      30.290   2.280  54.245  1.00  0.00     0.150 C 
HETATM   21 CL1  UNL     1      28.888   1.422  54.829  1.00  0.00    -0.126 Cl
ENDBRANCH  18  20
ENDBRANCH  16  18
ENDBRANCH  14  16
ENDBRANCH   1  14
BRANCH  12  22
HETATM   22  N2  UNL     1      32.700  -4.355  55.671  1.00  0.00    -0.052 N 
ATOM     23  H23 UNL     1      32.207  -4.570  56.537  1.00  0.00     0.277 HD
ATOM     24  H22 UNL     1      31.966  -4.591  55.004  1.00  0.00     0.277 HD
ATOM     25  H21 UNL     1      33.517  -4.954  55.551  1.00  0.00     0.277 HD
ENDBRANCH  12  22
TORSDOF 5
ENDMDL
MODEL 2
REMARK VINA RESULT: -5.267300099      2.586      2.993
REMARK  5 active torsions:
REMARK  status: ('A' for Active; 'I' for Inactive)
REMARK    1  A    between atoms: C2_2  and  C3_3 
REMARK    2  A    between atoms: C2_2  and  C4_5 
REMARK    3  A    between atoms: C4_5  and  N1_7 
REMARK    4  A    between atoms: N1_7  and  C6_9 
REMARK    5  A    between atoms: C14_20  and  N2_21 
ROOT
HETATM    1  C6  UNL     1      34.369   0.810  55.696  1.00  0.00     0.061 A 
HETATM    2  C7  UNL     1      34.844   0.623  56.977  1.00  0.00     0.086 A 
HETATM    3 CL2  UNL     1      33.906   1.237  58.345  1.00  0.00    -0.080 Cl
HETATM    4  C8  UNL     1      36.050  -0.012  57.246  1.00  0.00     0.099 A 
HETATM    5 CL3  UNL     1      36.609  -0.226  58.889  1.00  0.00    -0.079 Cl
HETATM    6  C9  UNL     1      36.807  -0.475  56.194  1.00  0.00     0.173 A 
HETATM    7  F1  UNL     1      38.009  -1.109  56.417  1.00  0.00    -0.201 F 
HETATM    8  C10 UNL     1      36.366  -0.307  54.892  1.00  0.00     0.120 A 
HETATM    9  C11 UNL     1      35.149   0.336  54.663  1.00  0.00     0.007 A 
HETATM   10  C12 UNL     1      34.633   0.540  53.280  1.00  0.00     0.048 C 
HETATM   11  C13 UNL     1      35.819   0.447  52.339  1.00  0.00     0.066 C 
HETATM   12  C14 UNL     1      36.485  -0.911  52.587  1.00  0.00     0.325 C 
HETATM   13  O1  UNL     1      37.150  -0.783  53.829  1.00  0.00    -0.314 OA
ENDROOT
BRANCH   1  14
HETATM   14  N1  UNL     1      33.142   1.427  55.407  1.00  0.00    -0.380 N 
ATOM     15  H1  UNL     1      32.467   0.855  54.899  1.00  0.00     0.160 HD
BRANCH  14  16
HETATM   16  C4  UNL     1      32.717   2.737  55.727  1.00  0.00     0.107 C 
HETATM   17  C5  UNL     1      33.557   3.730  54.967  1.00  0.00     0.037 C 
BRANCH  16  18
HETATM   18  C2  UNL     1      31.287   3.043  55.511  1.00  0.00    -0.053 C 
HETATM   19  C1  UNL     1      30.611   3.860  56.299  1.00  0.00     0.017 C 
BRANCH  18  20
HETATM   20  C3  UNL     1      30.533   2.440  54.363  1.00  0.00     0.150 C 
HETATM   21 CL1  UNL     1      29.079   1.583  54.804  1.00  0.00    -0.126 Cl
ENDBRANCH  18  20
ENDBRANCH  16  18
ENDBRANCH  14  16
ENDBRANCH   1  14
BRANCH  12  22
HETATM   22  N2  UNL     1      37.360  -1.280  51.516  1.00  0.00    -0.052 N 
ATOM     23  H23 UNL     1      36.842  -1.431  50.651  1.00  0.00     0.277 HD
ATOM     24  H22 UNL     1      37.938  -0.493  51.223  1.00  0.00     0.277 HD
ATOM     25  H21 UNL     1      37.931  -2.092  51.754  1.00  0.00     0.277 HD
ENDBRANCH  12  22
TORSDOF 5
ENDMDL
MODEL 3
REMARK VINA RESULT: -5.183381689      3.822      4.880
REMARK  5 active torsions:
REMARK  status: ('A' for Active; 'I' for Inactive)
REMARK    1  A    between atoms: C2_2  and  C3_3 
REMARK    2  A    between atoms: C2_2  and  C4_5 
REMARK    3  A    between atoms: C4_5  and  N1_7 
REMARK    4  A    between atoms: N1_7  and  C6_9 
REMARK    5  A    between atoms: C14_20  and  N2_21 
ROOT
HETATM    1  C6  UNL     1      34.757  -1.136  53.969  1.00  0.00     0.061 A 
HETATM    2  C7  UNL     1      34.300  -2.434  54.065  1.00  0.00     0.086 A 
HETATM    3 CL2  UNL     1      33.899  -3.094  55.656  1.00  0.00    -0.080 Cl
HETATM    4  C8  UNL     1      34.160  -3.264  52.960  1.00  0.00     0.099 A 
HETATM    5 CL3  UNL     1      33.574  -4.903  53.132  1.00  0.00    -0.079 Cl
HETATM    6  C9  UNL     1      34.490  -2.777  51.716  1.00  0.00     0.173 A 
HETATM    7  F1  UNL     1      34.366  -3.568  50.595  1.00  0.00    -0.201 F 
HETATM    8  C10 UNL     1      34.953  -1.479  51.577  1.00  0.00     0.120 A 
HETATM    9  C11 UNL     1      35.080  -0.676  52.711  1.00  0.00     0.007 A 
HETATM   10  C12 UNL     1      35.574   0.726  52.611  1.00  0.00     0.048 C 
HETATM   11  C13 UNL     1      36.342   0.841  51.309  1.00  0.00     0.066 C 
HETATM   12  C14 UNL     1      35.392   0.409  50.186  1.00  0.00     0.325 C 
HETATM   13  O1  UNL     1      35.288  -0.998  50.302  1.00  0.00    -0.314 OA
ENDROOT
BRANCH   1  14
HETATM   14  N1  UNL     1      34.881  -0.275  55.071  1.00  0.00    -0.380 N 
ATOM     15  H1  UNL     1      35.836  -0.062  55.361  1.00  0.00     0.160 HD
BRANCH  14  16
HETATM   16  C4  UNL     1      33.858   0.335  55.833  1.00  0.00     0.107 C 
HETATM   17  C5  UNL     1      34.441   0.857  57.120  1.00  0.00     0.037 C 
BRANCH  16  18
HETATM   18  C2  UNL     1      33.093   1.414  55.171  1.00  0.00    -0.053 C 
HETATM   19  C1  UNL     1      31.938   1.195  54.567  1.00  0.00     0.017 C 
BRANCH  18  20
HETATM   20  C3  UNL     1      33.595   2.828  55.169  1.00  0.00     0.150 C 
HETATM   21 CL1  UNL     1      32.488   4.004  55.829  1.00  0.00    -0.126 Cl
ENDBRANCH  18  20
ENDBRANCH  16  18
ENDBRANCH  14  16
ENDBRANCH   1  14
BRANCH  12  22
HETATM   22  N2  UNL     1      35.854   0.835  48.901  1.00  0.00    -0.052 N 
ATOM     23  H23 UNL     1      35.552   1.787  48.695  1.00  0.00     0.277 HD
ATOM     24  H22 UNL     1      36.863   0.982  48.901  1.00  0.00     0.277 HD
ATOM     25  H21 UNL     1      35.574   0.190  48.162  1.00  0.00     0.277 HD
ENDBRANCH  12  22
TORSDOF 5
ENDMDL
MODEL 4
REMARK VINA RESULT: -5.176590541      2.645      3.778
REMARK  5 active torsions:
REMARK  status: ('A' for Active; 'I' for Inactive)
REMARK    1  A    between atoms: C2_2  and  C3_3 
REMARK    2  A    between atoms: C2_2  and  C4_5 
REMARK    3  A    between atoms: C4_5  and  N1_7 
REMARK    4  A    between atoms: N1_7  and  C6_9 
REMARK    5  A    between atoms: C14_20  and  N2_21 
ROOT
HETATM    1  C6  UNL     1      34.108   0.708  54.274  1.00  0.00     0.061 A 
HETATM    2  C7  UNL     1      33.409  -0.447  54.556  1.00  0.00     0.086 A 
HETATM    3 CL2  UNL     1      31.659  -0.360  54.799  1.00  0.00    -0.080 Cl
HETATM    4  C8  UNL     1      34.023  -1.685  54.682  1.00  0.00     0.099 A 
HETATM    5 CL3  UNL     1      33.093  -3.122  55.039  1.00  0.00    -0.079 Cl
HETATM    6  C9  UNL     1      35.387  -1.771  54.521  1.00  0.00     0.173 A 
HETATM    7  F1  UNL     1      36.037  -2.980  54.638  1.00  0.00    -0.201 F 
HETATM    8  C10 UNL     1      36.127  -0.634  54.237  1.00  0.00     0.120 A 
HETATM    9  C11 UNL     1      35.472   0.592  54.118  1.00  0.00     0.007 A 
HETATM   10  C12 UNL     1      36.225   1.841  53.814  1.00  0.00     0.048 C 
HETATM   11  C13 UNL     1      37.671   1.602  54.202  1.00  0.00     0.066 C 
HETATM   12  C14 UNL     1      38.143   0.360  53.437  1.00  0.00     0.325 C 
HETATM   13  O1  UNL     1      37.518  -0.737  54.077  1.00  0.00    -0.314 OA
ENDROOT
BRANCH   1  14
HETATM   14  N1  UNL     1      33.500   1.964  54.119  1.00  0.00    -0.380 N 
ATOM     15  H1  UNL     1      33.276   2.232  53.160  1.00  0.00     0.160 HD
BRANCH  14  16
HETATM   16  C4  UNL     1      33.158   2.906  55.116  1.00  0.00     0.107 C 
HETATM   17  C5  UNL     1      33.961   4.164  54.907  1.00  0.00     0.037 C 
BRANCH  16  18
HETATM   18  C2  UNL     1      31.726   3.256  55.234  1.00  0.00    -0.053 C 
HETATM   19  C1  UNL     1      31.231   3.859  56.301  1.00  0.00     0.017 C 
BRANCH  18  20
HETATM   20  C3  UNL     1      30.762   2.952  54.126  1.00  0.00     0.150 C 
HETATM   21 CL1  UNL     1      29.254   2.239  54.637  1.00  0.00    -0.126 Cl
ENDBRANCH  18  20
ENDBRANCH  16  18
ENDBRANCH  14  16
ENDBRANCH   1  14
BRANCH  12  22
HETATM   22  N2  UNL     1      39.570   0.257  53.413  1.00  0.00    -0.052 N 
ATOM     23  H23 UNL     1      39.961   0.304  54.353  1.00  0.00     0.277 HD
ATOM     24  H22 UNL     1      39.870  -0.684  53.160  1.00  0.00     0.277 HD
ATOM     25  H21 UNL     1      39.992   0.957  52.801  1.00  0.00     0.277 HD
ENDBRANCH  12  22
TORSDOF 5
ENDMDL
MODEL 5
REMARK VINA RESULT: -5.141171205      1.147      1.236
REMARK  5 active torsions:
REMARK  status: ('A' for Active; 'I' for Inactive)
REMARK    1  A    between atoms: C2_2  and  C3_3 
REMARK    2  A    between atoms: C2_2  and  C4_5 
REMARK    3  A    between atoms: C4_5  and  N1_7 
REMARK    4  A    between atoms: N1_7  and  C6_9 
REMARK    5  A    between atoms: C14_20  and  N2_21 
ROOT
HETATM    1  C6  UNL     1      34.442   0.524  54.170  1.00  0.00     0.061 A 
HETATM    2  C7  UNL     1      35.744   0.978  54.171  1.00  0.00     0.086 A 
HETATM    3 CL2  UNL     1      36.053   2.719  54.217  1.00  0.00    -0.080 Cl
HETATM    4  C8  UNL     1      36.838   0.124  54.114  1.00  0.00     0.099 A 
HETATM    5 CL3  UNL     1      38.471   0.748  54.120  1.00  0.00    -0.079 Cl
HETATM    6  C9  UNL     1      36.619  -1.234  54.052  1.00  0.00     0.173 A 
HETATM    7  F1  UNL     1      37.675  -2.116  53.994  1.00  0.00    -0.201 F 
HETATM    8  C10 UNL     1      35.326  -1.731  54.048  1.00  0.00     0.120 A 
HETATM    9  C11 UNL     1      34.254  -0.840  54.107  1.00  0.00     0.007 A 
HETATM   10  C12 UNL     1      32.846  -1.327  54.105  1.00  0.00     0.048 C 
HETATM   11  C13 UNL     1      32.853  -2.723  53.515  1.00  0.00     0.066 C 
HETATM   12  C14 UNL     1      33.826  -3.561  54.351  1.00  0.00     0.325 C 
HETATM   13  O1  UNL     1      35.118  -3.117  53.983  1.00  0.00    -0.314 OA
ENDROOT
BRANCH   1  14
HETATM   14  N1  UNL     1      33.326   1.372  54.252  1.00  0.00    -0.380 N 
ATOM     15  H1  UNL     1      33.022   1.791  53.372  1.00  0.00     0.160 HD
BRANCH  14  16
HETATM   16  C4  UNL     1      32.566   1.721  55.392  1.00  0.00     0.107 C 
HETATM   17  C5  UNL     1      33.483   1.837  56.582  1.00  0.00     0.037 C 
BRANCH  16  18
HETATM   18  C2  UNL     1      31.742   2.944  55.291  1.00  0.00    -0.053 C 
HETATM   19  C1  UNL     1      32.026   4.046  55.963  1.00  0.00     0.017 C 
BRANCH  18  20
HETATM   20  C3  UNL     1      30.538   2.993  54.398  1.00  0.00     0.150 C 
HETATM   21 CL1  UNL     1      29.341   1.763  54.706  1.00  0.00    -0.126 Cl
ENDBRANCH  18  20
ENDBRANCH  16  18
ENDBRANCH  14  16
ENDBRANCH   1  14
BRANCH  12  22
HETATM   22  N2  UNL     1      33.634  -4.965  54.148  1.00  0.00    -0.052 N 
ATOM     23  H23 UNL     1      33.419  -5.172  53.173  1.00  0.00     0.277 HD
ATOM     24  H22 UNL     1      34.514  -5.474  54.231  1.00  0.00     0.277 HD
ATOM     25  H21 UNL     1      32.924  -5.346  54.774  1.00  0.00     0.277 HD
ENDBRANCH  12  22
TORSDOF 5
ENDMDL
