MODEL 1
REMARK VINA RESULT: -6.638588128      0.000      0.000
REMARK  6 active torsions:
REMARK  status: ('A' for Active; 'I' for Inactive)
REMARK    1  A    between atoms: C2_2  and  C3_3 
REMARK    2  A    between atoms: C3_3  and  C4_4 
REMARK    3  A    between atoms: C5_5  and  C6_6 
REMARK    4  A    between atoms: C6_6  and  C9_9 
REMARK    5  A    between atoms: C11_11  and  O1_12 
REMARK    6  A    between atoms: C15_17  and  O2_18 
ROOT
HETATM    1  C9  UNL     1      34.832   0.592  54.268  1.00  0.00    -0.043 A 
HETATM    2  C10 UNL     1      36.006   1.126  54.740  1.00  0.00     0.047 A 
HETATM    3  C11 UNL     1      37.085   1.153  53.858  1.00  0.00     0.100 A 
HETATM    4  C12 UNL     1      37.011   0.674  52.567  1.00  0.00     0.117 A 
HETATM    5  C13 UNL     1      35.838   0.142  52.098  1.00  0.00     0.013 A 
HETATM    6  C14 UNL     1      34.761   0.111  52.971  1.00  0.00     0.021 A 
HETATM    7  C15 UNL     1      35.646  -0.396  50.744  1.00  0.00     0.235 C 
HETATM    8  C16 UNL     1      36.875  -0.436  49.917  1.00  0.00     0.364 C 
HETATM    9  F1  UNL     1      36.906  -1.679  49.270  1.00  0.00    -0.193 F 
HETATM   10  F2  UNL     1      36.859   0.501  48.877  1.00  0.00    -0.193 F 
HETATM   11  C17 UNL     1      38.156  -0.284  50.647  1.00  0.00     0.428 C 
HETATM   12  F3  UNL     1      39.172   0.082  49.787  1.00  0.00    -0.168 F 
HETATM   13  F4  UNL     1      38.502  -1.508  51.193  1.00  0.00    -0.168 F 
HETATM   14  O3  UNL     1      38.089   0.702  51.687  1.00  0.00    -0.275 OA
ENDROOT
BRANCH   1  15
HETATM   15  C6  UNL     1      33.649   0.547  55.194  1.00  0.00    -0.003 C 
HETATM   16  C7  UNL     1      34.018   1.066  56.523  1.00  0.00     0.024 C 
HETATM   17  C8  UNL     1      33.412  -0.973  55.386  1.00  0.00     0.024 C 
BRANCH  15  18
HETATM   18  C5  UNL     1      32.433   1.037  54.562  1.00  0.00    -0.017 C 
HETATM   19  C4  UNL     1      31.926   2.207  54.375  1.00  0.00    -0.030 C 
BRANCH  19  20
HETATM   20  C3  UNL     1      32.369   3.551  54.727  1.00  0.00     0.026 C 
BRANCH  20  21
HETATM   21  C2  UNL     1      31.839   4.022  56.068  1.00  0.00    -0.001 C 
HETATM   22  C1  UNL     1      30.363   3.721  56.188  1.00  0.00     0.005 C 
ENDBRANCH  20  21
ENDBRANCH  19  20
ENDBRANCH  15  18
ENDBRANCH   1  15
BRANCH   3  23
HETATM   23  O1  UNL     1      38.274   1.689  54.323  1.00  0.00    -0.358 OA
ATOM     24  H1  UNL     1      39.071   1.439  53.872  1.00  0.00     0.217 HD
ENDBRANCH   3  23
BRANCH   7  25
HETATM   25  O2  UNL     1      34.727   0.461  50.095  1.00  0.00    -0.384 OA
ATOM     26  H2  UNL     1      35.226   1.209  49.787  1.00  0.00     0.210 HD
ENDBRANCH   7  25
TORSDOF 6
ENDMDL
MODEL 2
REMARK VINA RESULT: -6.560531235      4.370      6.336
REMARK  6 active torsions:
REMARK  status: ('A' for Active; 'I' for Inactive)
REMARK    1  A    between atoms: C2_2  and  C3_3 
REMARK    2  A    between atoms: C3_3  and  C4_4 
REMARK    3  A    between atoms: C5_5  and  C6_6 
REMARK    4  A    between atoms: C6_6  and  C9_9 
REMARK    5  A    between atoms: C11_11  and  O1_12 
REMARK    6  A    between atoms: C15_17  and  O2_18 
ROOT
HETATM    1  C9  UNL     1      34.513  -0.824  54.953  1.00  0.00    -0.043 A 
HETATM    2  C10 UNL     1      35.186  -0.337  56.046  1.00  0.00     0.047 A 
HETATM    3  C11 UNL     1      34.718   0.856  56.594  1.00  0.00     0.100 A 
HETATM    4  C12 UNL     1      33.634   1.539  56.087  1.00  0.00     0.117 A 
HETATM    5  C13 UNL     1      32.963   1.052  54.995  1.00  0.00     0.013 A 
HETATM    6  C14 UNL     1      33.425  -0.135  54.445  1.00  0.00     0.021 A 
HETATM    7  C15 UNL     1      31.799   1.696  54.372  1.00  0.00     0.235 C 
HETATM    8  C16 UNL     1      31.445   3.016  54.945  1.00  0.00     0.364 C 
HETATM    9  F1  UNL     1      31.174   3.880  53.875  1.00  0.00    -0.193 F 
HETATM   10  F2  UNL     1      30.255   2.986  55.683  1.00  0.00    -0.193 F 
HETATM   11  C17 UNL     1      32.484   3.661  55.784  1.00  0.00     0.428 C 
HETATM   12  F3  UNL     1      31.930   4.638  56.587  1.00  0.00    -0.168 F 
HETATM   13  F4  UNL     1      33.399   4.284  54.952  1.00  0.00    -0.168 F 
HETATM   14  O3  UNL     1      33.167   2.731  56.635  1.00  0.00    -0.275 OA
ENDROOT
BRANCH   1  15
HETATM   15  C6  UNL     1      34.993  -2.108  54.337  1.00  0.00    -0.003 C 
HETATM   16  C7  UNL     1      33.895  -2.771  53.610  1.00  0.00     0.024 C 
HETATM   17  C8  UNL     1      35.280  -3.003  55.572  1.00  0.00     0.024 C 
BRANCH  15  18
HETATM   18  C5  UNL     1      36.282  -1.958  53.678  1.00  0.00    -0.017 C 
HETATM   19  C4  UNL     1      36.721  -1.213  52.723  1.00  0.00    -0.030 C 
BRANCH  19  20
HETATM   20  C3  UNL     1      36.096  -0.192  51.890  1.00  0.00     0.026 C 
BRANCH  20  21
HETATM   21  C2  UNL     1      36.818   1.141  51.937  1.00  0.00    -0.001 C 
HETATM   22  C1  UNL     1      36.693   1.761  53.311  1.00  0.00     0.005 C 
ENDBRANCH  20  21
ENDBRANCH  19  20
ENDBRANCH  15  18
ENDBRANCH   1  15
BRANCH   3  23
HETATM   23  O1  UNL     1      35.389   1.356  57.697  1.00  0.00    -0.358 OA
ATOM     24  H1  UNL     1      34.892   1.890  58.305  1.00  0.00     0.217 HD
ENDBRANCH   3  23
BRANCH   7  25
HETATM   25  O2  UNL     1      30.698   0.834  54.586  1.00  0.00    -0.384 OA
ATOM     26  H2  UNL     1      30.412   0.541  53.729  1.00  0.00     0.210 HD
ENDBRANCH   7  25
TORSDOF 6
ENDMDL
MODEL 3
REMARK VINA RESULT: -6.553624133      0.849      1.211
REMARK  6 active torsions:
REMARK  status: ('A' for Active; 'I' for Inactive)
REMARK    1  A    between atoms: C2_2  and  C3_3 
REMARK    2  A    between atoms: C3_3  and  C4_4 
REMARK    3  A    between atoms: C5_5  and  C6_6 
REMARK    4  A    between atoms: C6_6  and  C9_9 
REMARK    5  A    between atoms: C11_11  and  O1_12 
REMARK    6  A    between atoms: C15_17  and  O2_18 
ROOT
HETATM    1  C9  UNL     1      34.909   1.300  54.278  1.00  0.00    -0.043 A 
HETATM    2  C10 UNL     1      36.179   1.613  54.697  1.00  0.00     0.047 A 
HETATM    3  C11 UNL     1      37.230   1.218  53.871  1.00  0.00     0.100 A 
HETATM    4  C12 UNL     1      37.038   0.543  52.684  1.00  0.00     0.117 A 
HETATM    5  C13 UNL     1      35.770   0.231  52.268  1.00  0.00     0.013 A 
HETATM    6  C14 UNL     1      34.720   0.621  53.085  1.00  0.00     0.021 A 
HETATM    7  C15 UNL     1      35.450  -0.483  51.025  1.00  0.00     0.235 C 
HETATM    8  C16 UNL     1      36.630  -0.967  50.271  1.00  0.00     0.364 C 
HETATM    9  F1  UNL     1      36.355  -2.279  49.857  1.00  0.00    -0.193 F 
HETATM   10  F2  UNL     1      36.842  -0.261  49.081  1.00  0.00    -0.193 F 
HETATM   11  C17 UNL     1      37.912  -0.997  51.016  1.00  0.00     0.428 C 
HETATM   12  F3  UNL     1      38.984  -1.051  50.149  1.00  0.00    -0.168 F 
HETATM   13  F4  UNL     1      37.949  -2.147  51.786  1.00  0.00    -0.168 F 
HETATM   14  O3  UNL     1      38.089   0.149  51.861  1.00  0.00    -0.275 OA
ENDROOT
BRANCH   1  15
HETATM   15  C6  UNL     1      33.753   1.711  55.145  1.00  0.00    -0.003 C 
HETATM   16  C7  UNL     1      33.953   1.235  56.526  1.00  0.00     0.024 C 
HETATM   17  C8  UNL     1      32.574   0.877  54.578  1.00  0.00     0.024 C 
BRANCH  15  18
HETATM   18  C5  UNL     1      33.366   3.098  54.930  1.00  0.00    -0.017 C 
HETATM   19  C4  UNL     1      32.338   3.804  55.254  1.00  0.00    -0.030 C 
BRANCH  19  20
HETATM   20  C3  UNL     1      31.112   3.501  55.983  1.00  0.00     0.026 C 
BRANCH  20  21
HETATM   21  C2  UNL     1      29.877   3.504  55.103  1.00  0.00    -0.001 C 
HETATM   22  C1  UNL     1      29.257   2.127  55.056  1.00  0.00     0.005 C 
ENDBRANCH  20  21
ENDBRANCH  19  20
ENDBRANCH  15  18
ENDBRANCH   1  15
BRANCH   3  23
HETATM   23  O1  UNL     1      38.514   1.528  54.284  1.00  0.00    -0.358 OA
ATOM     24  H1  UNL     1      38.833   1.105  55.072  1.00  0.00     0.217 HD
ENDBRANCH   3  23
BRANCH   7  25
HETATM   25  O2  UNL     1      34.767   0.437  50.194  1.00  0.00    -0.384 OA
ATOM     26  H2  UNL     1      35.072   1.302  50.441  1.00  0.00     0.210 HD
ENDBRANCH   7  25
TORSDOF 6
ENDMDL
MODEL 4
REMARK VINA RESULT: -6.497956665      4.317      6.409
REMARK  6 active torsions:
REMARK  status: ('A' for Active; 'I' for Inactive)
REMARK    1  A    between atoms: C2_2  and  C3_3 
REMARK    2  A    between atoms: C3_3  and  C4_4 
REMARK    3  A    between atoms: C5_5  and  C6_6 
REMARK    4  A    between atoms: C6_6  and  C9_9 
REMARK    5  A    between atoms: C11_11  and  O1_12 
REMARK    6  A    between atoms: C15_17  and  O2_18 
ROOT
HETATM    1  C9  UNL     1      34.384  -0.991  54.921  1.00  0.00    -0.043 A 
HETATM    2  C10 UNL     1      35.142  -0.482  55.948  1.00  0.00     0.047 A 
HETATM    3  C11 UNL     1      34.762   0.759  56.456  1.00  0.00     0.100 A 
HETATM    4  C12 UNL     1      33.682   1.468  55.975  1.00  0.00     0.117 A 
HETATM    5  C13 UNL     1      32.927   0.959  54.951  1.00  0.00     0.013 A 
HETATM    6  C14 UNL     1      33.300  -0.275  54.440  1.00  0.00     0.021 A 
HETATM    7  C15 UNL     1      31.759   1.626  54.361  1.00  0.00     0.235 C 
HETATM    8  C16 UNL     1      31.500   2.989  54.882  1.00  0.00     0.364 C 
HETATM    9  F1  UNL     1      31.206   3.810  53.784  1.00  0.00    -0.193 F 
HETATM   10  F2  UNL     1      30.356   3.055  55.686  1.00  0.00    -0.193 F 
HETATM   11  C17 UNL     1      32.615   3.625  55.624  1.00  0.00     0.428 C 
HETATM   12  F3  UNL     1      32.156   4.667  56.404  1.00  0.00    -0.168 F 
HETATM   13  F4  UNL     1      33.507   4.159  54.710  1.00  0.00    -0.168 F 
HETATM   14  O3  UNL     1      33.304   2.707  56.484  1.00  0.00    -0.275 OA
ENDROOT
BRANCH   1  15
HETATM   15  C6  UNL     1      34.767  -2.326  54.350  1.00  0.00    -0.003 C 
HETATM   16  C7  UNL     1      33.566  -3.067  53.924  1.00  0.00     0.024 C 
HETATM   17  C8  UNL     1      35.318  -3.090  55.582  1.00  0.00     0.024 C 
BRANCH  15  18
HETATM   18  C5  UNL     1      35.896  -2.233  53.434  1.00  0.00    -0.017 C 
HETATM   19  C4  UNL     1      36.030  -1.860  52.208  1.00  0.00    -0.030 C 
BRANCH  19  20
HETATM   20  C3  UNL     1      35.088  -1.369  51.209  1.00  0.00     0.026 C 
BRANCH  20  21
HETATM   21  C2  UNL     1      35.194   0.125  50.972  1.00  0.00    -0.001 C 
HETATM   22  C1  UNL     1      35.842   0.403  49.635  1.00  0.00     0.005 C 
ENDBRANCH  20  21
ENDBRANCH  19  20
ENDBRANCH  15  18
ENDBRANCH   1  15
BRANCH   3  23
HETATM   23  O1  UNL     1      35.520   1.281  57.491  1.00  0.00    -0.358 OA
ATOM     24  H1  UNL     1      35.895   0.666  58.110  1.00  0.00     0.217 HD
ENDBRANCH   3  23
BRANCH   7  25
HETATM   25  O2  UNL     1      30.634   0.831  54.683  1.00  0.00    -0.384 OA
ATOM     26  H2  UNL     1      29.879   1.262  54.300  1.00  0.00     0.210 HD
ENDBRANCH   7  25
TORSDOF 6
ENDMDL
MODEL 5
REMARK VINA RESULT: -6.497229825      1.403      2.653
REMARK  6 active torsions:
REMARK  status: ('A' for Active; 'I' for Inactive)
REMARK    1  A    between atoms: C2_2  and  C3_3 
REMARK    2  A    between atoms: C3_3  and  C4_4 
REMARK    3  A    between atoms: C5_5  and  C6_6 
REMARK    4  A    between atoms: C6_6  and  C9_9 
REMARK    5  A    between atoms: C11_11  and  O1_12 
REMARK    6  A    between atoms: C15_17  and  O2_18 
ROOT
HETATM    1  C9  UNL     1      34.159  -0.241  53.933  1.00  0.00    -0.043 A 
HETATM    2  C10 UNL     1      34.024  -1.364  53.153  1.00  0.00     0.047 A 
HETATM    3  C11 UNL     1      34.921  -1.508  52.096  1.00  0.00     0.100 A 
HETATM    4  C12 UNL     1      35.908  -0.587  51.819  1.00  0.00     0.117 A 
HETATM    5  C13 UNL     1      36.041   0.533  52.599  1.00  0.00     0.013 A 
HETATM    6  C14 UNL     1      35.152   0.683  53.652  1.00  0.00     0.021 A 
HETATM    7  C15 UNL     1      37.054   1.578  52.395  1.00  0.00     0.235 C 
HETATM    8  C16 UNL     1      37.886   1.402  51.182  1.00  0.00     0.364 C 
HETATM    9  F1  UNL     1      37.989   2.654  50.558  1.00  0.00    -0.193 F 
HETATM   10  F2  UNL     1      39.207   1.046  51.476  1.00  0.00    -0.193 F 
HETATM   11  C17 UNL     1      37.371   0.445  50.172  1.00  0.00     0.428 C 
HETATM   12  F3  UNL     1      38.377   0.044  49.317  1.00  0.00    -0.168 F 
HETATM   13  F4  UNL     1      36.412   1.085  49.405  1.00  0.00    -0.168 F 
HETATM   14  O3  UNL     1      36.803  -0.732  50.763  1.00  0.00    -0.275 OA
ENDROOT
BRANCH   1  15
HETATM   15  C6  UNL     1      33.208  -0.055  55.081  1.00  0.00    -0.003 C 
HETATM   16  C7  UNL     1      33.928   0.432  56.271  1.00  0.00     0.024 C 
HETATM   17  C8  UNL     1      32.774  -1.507  55.416  1.00  0.00     0.024 C 
BRANCH  15  18
HETATM   18  C5  UNL     1      31.980   0.616  54.679  1.00  0.00    -0.017 C 
HETATM   19  C4  UNL     1      31.640   1.850  54.524  1.00  0.00    -0.030 C 
BRANCH  19  20
HETATM   20  C3  UNL     1      32.358   3.108  54.692  1.00  0.00     0.026 C 
BRANCH  20  21
HETATM   21  C2  UNL     1      32.000   3.833  55.975  1.00  0.00    -0.001 C 
HETATM   22  C1  UNL     1      30.508   3.778  56.214  1.00  0.00     0.005 C 
ENDBRANCH  20  21
ENDBRANCH  19  20
ENDBRANCH  15  18
ENDBRANCH   1  15
BRANCH   3  23
HETATM   23  O1  UNL     1      34.793  -2.636  51.303  1.00  0.00    -0.358 OA
ATOM     24  H1  UNL     1      34.132  -2.617  50.622  1.00  0.00     0.217 HD
ENDBRANCH   3  23
BRANCH   7  25
HETATM   25  O2  UNL     1      37.921   1.523  53.512  1.00  0.00    -0.384 OA
ATOM     26  H2  UNL     1      37.736   2.293  54.037  1.00  0.00     0.210 HD
ENDBRANCH   7  25
TORSDOF 6
ENDMDL
