MODEL 1
REMARK VINA RESULT: -6.460104582      0.000      0.000
REMARK  4 active torsions:
REMARK  status: ('A' for Active; 'I' for Inactive)
REMARK    1  A    between atoms: C2_2  and  C3_3 
REMARK    2  A    between atoms: C4_5  and  N1_6 
REMARK    3  A    between atoms: C9_14  and  O2_15 
REMARK    4  A    between atoms: C10_17  and  O3_18 
ROOT
HETATM    1  N1  UNL     1      -4.418   1.333  12.578  1.00  0.00    -0.320 N 
HETATM    2  C5  UNL     1      -5.045   1.229  11.391  1.00  0.00     0.186 A 
HETATM    3  N2  UNL     1      -4.746   0.032  10.833  1.00  0.00    -0.343 N 
ATOM      4  H2  UNL     1      -5.090  -0.300   9.933  1.00  0.00     0.167 HD
HETATM    5  C6  UNL     1      -3.923  -0.650  11.651  1.00  0.00     0.130 A 
HETATM    6  C7  UNL     1      -3.348  -1.962  11.468  1.00  0.00     0.119 C 
HETATM    7  N3  UNL     1      -2.878  -3.020  11.339  1.00  0.00    -0.190 NA
HETATM    8  C8  UNL     1      -3.735   0.198  12.744  1.00  0.00     0.135 A 
ENDROOT
BRANCH   1   9
HETATM    9  C4  UNL     1      -4.526   2.494  13.438  1.00  0.00     0.260 C 
HETATM   10  O1  UNL     1      -5.216   2.253  14.593  1.00  0.00    -0.352 OA
HETATM   11  C3  UNL     1      -6.241   3.150  14.720  1.00  0.00     0.177 C 
HETATM   12  C10 UNL     1      -5.756   4.378  13.967  1.00  0.00     0.183 C 
HETATM   13  C9  UNL     1      -5.184   3.660  12.732  1.00  0.00     0.199 C 
BRANCH  11  14
HETATM   14  C2  UNL     1      -6.645   3.446  16.098  1.00  0.00    -0.003 C 
HETATM   15  C1  UNL     1      -6.763   2.461  16.971  1.00  0.00     0.009 C 
ENDBRANCH  11  14
BRANCH  12  16
HETATM   16  O3  UNL     1      -6.758   5.248  13.650  1.00  0.00    -0.390 OA
ATOM     17  H3  UNL     1      -6.867   5.371  12.714  1.00  0.00     0.210 HD
ENDBRANCH  12  16
BRANCH  13  18
HETATM   18  O2  UNL     1      -4.278   4.475  12.080  1.00  0.00    -0.388 OA
ATOM     19  H2  UNL     1      -4.216   5.342  12.464  1.00  0.00     0.210 HD
ENDBRANCH  13  18
ENDBRANCH   1   9
TORSDOF 4
ENDMDL
MODEL 2
REMARK VINA RESULT: -6.391492551      2.870      4.982
REMARK  4 active torsions:
REMARK  status: ('A' for Active; 'I' for Inactive)
REMARK    1  A    between atoms: C2_2  and  C3_3 
REMARK    2  A    between atoms: C4_5  and  N1_6 
REMARK    3  A    between atoms: C9_14  and  O2_15 
REMARK    4  A    between atoms: C10_17  and  O3_18 
ROOT
HETATM    1  N1  UNL     1      -4.363   1.197  13.890  1.00  0.00    -0.320 N 
HETATM    2  C5  UNL     1      -4.233  -0.047  14.390  1.00  0.00     0.186 A 
HETATM    3  N2  UNL     1      -4.715  -0.071  15.655  1.00  0.00    -0.343 N 
ATOM      4  H2  UNL     1      -4.736  -0.891  16.261  1.00  0.00     0.167 HD
HETATM    5  C6  UNL     1      -5.161   1.154  15.987  1.00  0.00     0.130 A 
HETATM    6  C7  UNL     1      -5.754   1.596  17.228  1.00  0.00     0.119 C 
HETATM    7  N3  UNL     1      -6.236   1.969  18.220  1.00  0.00    -0.190 NA
HETATM    8  C8  UNL     1      -4.925   1.932  14.853  1.00  0.00     0.135 A 
ENDROOT
BRANCH   1   9
HETATM    9  C4  UNL     1      -3.944   1.568  12.554  1.00  0.00     0.260 C 
HETATM   10  O1  UNL     1      -2.797   2.309  12.530  1.00  0.00    -0.352 OA
HETATM   11  C3  UNL     1      -3.008   3.474  11.843  1.00  0.00     0.177 C 
HETATM   12  C10 UNL     1      -4.114   3.128  10.857  1.00  0.00     0.183 C 
HETATM   13  C9  UNL     1      -5.020   2.340  11.819  1.00  0.00     0.199 C 
BRANCH  11  14
HETATM   14  C2  UNL     1      -1.822   4.042  11.196  1.00  0.00    -0.003 C 
HETATM   15  C1  UNL     1      -0.643   3.474  11.379  1.00  0.00     0.009 C 
ENDBRANCH  11  14
BRANCH  12  16
HETATM   16  O3  UNL     1      -4.734   4.225  10.334  1.00  0.00    -0.390 OA
ATOM     17  H3  UNL     1      -4.406   4.469   9.477  1.00  0.00     0.210 HD
ENDBRANCH  12  16
BRANCH  13  18
HETATM   18  O2  UNL     1      -5.878   1.522  11.108  1.00  0.00    -0.388 OA
ATOM     19  H2  UNL     1      -6.261   0.835  11.641  1.00  0.00     0.210 HD
ENDBRANCH  13  18
ENDBRANCH   1   9
TORSDOF 4
ENDMDL
MODEL 3
REMARK VINA RESULT: -6.316623756      2.800      5.755
REMARK  4 active torsions:
REMARK  status: ('A' for Active; 'I' for Inactive)
REMARK    1  A    between atoms: C2_2  and  C3_3 
REMARK    2  A    between atoms: C4_5  and  N1_6 
REMARK    3  A    between atoms: C9_14  and  O2_15 
REMARK    4  A    between atoms: C10_17  and  O3_18 
ROOT
HETATM    1  N1  UNL     1      -4.291   2.237  13.305  1.00  0.00    -0.320 N 
HETATM    2  C5  UNL     1      -4.395   2.183  14.646  1.00  0.00     0.186 A 
HETATM    3  N2  UNL     1      -3.861   3.307  15.180  1.00  0.00    -0.343 N 
ATOM      4  H2  UNL     1      -3.811   3.520  16.176  1.00  0.00     0.167 HD
HETATM    5  C6  UNL     1      -3.406   4.099  14.192  1.00  0.00     0.130 A 
HETATM    6  C7  UNL     1      -2.764   5.389  14.288  1.00  0.00     0.119 C 
HETATM    7  N3  UNL     1      -2.246   6.431  14.347  1.00  0.00    -0.190 NA
HETATM    8  C8  UNL     1      -3.692   3.396  13.020  1.00  0.00     0.135 A 
ENDROOT
BRANCH   1   9
HETATM    9  C4  UNL     1      -4.766   1.189  12.425  1.00  0.00     0.260 C 
HETATM   10  O1  UNL     1      -4.408  -0.066  12.831  1.00  0.00    -0.352 OA
HETATM   11  C3  UNL     1      -3.756  -0.716  11.818  1.00  0.00     0.177 C 
HETATM   12  C10 UNL     1      -4.319  -0.089  10.551  1.00  0.00     0.183 C 
HETATM   13  C9  UNL     1      -4.280   1.381  11.004  1.00  0.00     0.199 C 
BRANCH  11  14
HETATM   14  C2  UNL     1      -3.873  -2.177  11.835  1.00  0.00    -0.003 C 
HETATM   15  C1  UNL     1      -2.892  -2.917  11.351  1.00  0.00     0.009 C 
ENDBRANCH  11  14
BRANCH  12  16
HETATM   16  O3  UNL     1      -3.550  -0.318   9.448  1.00  0.00    -0.390 OA
ATOM     17  H3  UNL     1      -2.658  -0.568   9.657  1.00  0.00     0.210 HD
ENDBRANCH  12  16
BRANCH  13  18
HETATM   18  O2  UNL     1      -5.143   2.142  10.238  1.00  0.00    -0.388 OA
ATOM     19  H2  UNL     1      -5.234   3.032  10.558  1.00  0.00     0.210 HD
ENDBRANCH  13  18
ENDBRANCH   1   9
TORSDOF 4
ENDMDL
MODEL 4
REMARK VINA RESULT: -6.308225924      2.114      2.444
REMARK  4 active torsions:
REMARK  status: ('A' for Active; 'I' for Inactive)
REMARK    1  A    between atoms: C2_2  and  C3_3 
REMARK    2  A    between atoms: C4_5  and  N1_6 
REMARK    3  A    between atoms: C9_14  and  O2_15 
REMARK    4  A    between atoms: C10_17  and  O3_18 
ROOT
HETATM    1  N1  UNL     1      -3.641   1.343  11.480  1.00  0.00    -0.320 N 
HETATM    2  C5  UNL     1      -4.844   0.877  11.094  1.00  0.00     0.186 A 
HETATM    3  N2  UNL     1      -4.790  -0.472  11.000  1.00  0.00    -0.343 N 
ATOM      4  H2  UNL     1      -5.566  -1.075  10.726  1.00  0.00     0.167 HD
HETATM    5  C6  UNL     1      -3.554  -0.894  11.324  1.00  0.00     0.130 A 
HETATM    6  C7  UNL     1      -3.039  -2.244  11.363  1.00  0.00     0.119 C 
HETATM    7  N3  UNL     1      -2.608  -3.324  11.403  1.00  0.00    -0.190 NA
HETATM    8  C8  UNL     1      -2.852   0.275  11.622  1.00  0.00     0.135 A 
ENDROOT
BRANCH   1   9
HETATM    9  C4  UNL     1      -3.356   2.749  11.677  1.00  0.00     0.260 C 
HETATM   10  O1  UNL     1      -3.350   3.124  12.991  1.00  0.00    -0.352 OA
HETATM   11  C3  UNL     1      -4.213   4.169  13.182  1.00  0.00     0.177 C 
HETATM   12  C10 UNL     1      -4.240   4.879  11.837  1.00  0.00     0.183 C 
HETATM   13  C9  UNL     1      -4.339   3.634  10.940  1.00  0.00     0.199 C 
BRANCH  11  14
HETATM   14  C2  UNL     1      -3.875   5.063  14.294  1.00  0.00    -0.003 C 
HETATM   15  C1  UNL     1      -2.805   5.833  14.212  1.00  0.00     0.009 C 
ENDBRANCH  11  14
BRANCH  12  16
HETATM   16  O3  UNL     1      -5.306   5.717  11.690  1.00  0.00    -0.390 OA
ATOM     17  H3  UNL     1      -5.742   5.627  10.851  1.00  0.00     0.210 HD
ENDBRANCH  12  16
BRANCH  13  18
HETATM   18  O2  UNL     1      -3.932   3.935   9.653  1.00  0.00    -0.388 OA
ATOM     19  H2  UNL     1      -4.650   4.202   9.091  1.00  0.00     0.210 HD
ENDBRANCH  13  18
ENDBRANCH   1   9
TORSDOF 4
ENDMDL
MODEL 5
REMARK VINA RESULT: -6.264191178      3.515      5.383
REMARK  4 active torsions:
REMARK  status: ('A' for Active; 'I' for Inactive)
REMARK    1  A    between atoms: C2_2  and  C3_3 
REMARK    2  A    between atoms: C4_5  and  N1_6 
REMARK    3  A    between atoms: C9_14  and  O2_15 
REMARK    4  A    between atoms: C10_17  and  O3_18 
ROOT
HETATM    1  N1  UNL     1      -4.596   4.269  14.102  1.00  0.00    -0.320 N 
HETATM    2  C5  UNL     1      -5.003   4.973  13.028  1.00  0.00     0.186 A 
HETATM    3  N2  UNL     1      -4.263   6.102  12.930  1.00  0.00    -0.343 N 
ATOM      4  H2  UNL     1      -4.366   6.812  12.205  1.00  0.00     0.167 HD
HETATM    5  C6  UNL     1      -3.371   6.142  13.937  1.00  0.00     0.130 A 
HETATM    6  C7  UNL     1      -2.382   7.153  14.230  1.00  0.00     0.119 C 
HETATM    7  N3  UNL     1      -1.577   7.957  14.481  1.00  0.00    -0.190 NA
HETATM    8  C8  UNL     1      -3.606   4.971  14.659  1.00  0.00     0.135 A 
ENDROOT
BRANCH   1   9
HETATM    9  C4  UNL     1      -5.181   3.004  14.495  1.00  0.00     0.260 C 
HETATM   10  O1  UNL     1      -5.845   3.059  15.689  1.00  0.00    -0.352 OA
HETATM   11  C3  UNL     1      -5.359   2.102  16.538  1.00  0.00     0.177 C 
HETATM   12  C10 UNL     1      -4.854   1.006  15.611  1.00  0.00     0.183 C 
HETATM   13  C9  UNL     1      -4.144   1.905  14.584  1.00  0.00     0.199 C 
BRANCH  11  14
HETATM   14  C2  UNL     1      -6.313   1.612  17.538  1.00  0.00    -0.003 C 
HETATM   15  C1  UNL     1      -7.420   1.008  17.144  1.00  0.00     0.009 C 
ENDBRANCH  11  14
BRANCH  12  16
HETATM   16  O3  UNL     1      -4.002   0.133  16.222  1.00  0.00    -0.390 OA
ATOM     17  H3  UNL     1      -4.441  -0.624  16.592  1.00  0.00     0.210 HD
ENDBRANCH  12  16
BRANCH  13  18
HETATM   18  O2  UNL     1      -3.974   1.228  13.391  1.00  0.00    -0.388 OA
ATOM     19  H2  UNL     1      -3.068   0.994  13.225  1.00  0.00     0.210 HD
ENDBRANCH  13  18
ENDBRANCH   1   9
TORSDOF 4
ENDMDL
