MODEL 1
REMARK VINA RESULT: -6.266613831      0.000      0.000
REMARK  4 active torsions:
REMARK  status: ('A' for Active; 'I' for Inactive)
REMARK    1  A    between atoms: O1_2  and  C2_3 
REMARK    2  A    between atoms: C8_11  and  C9_12 
REMARK    3  A    between atoms: C9_12  and  O4_13 
REMARK    4  A    between atoms: C10_15  and  O5_16 
ROOT
HETATM    1  C2  UNL     1      -5.402   0.824  16.359  1.00  0.00     0.283 C 
HETATM    2  C3  UNL     1      -5.606   2.288  16.334  1.00  0.00     0.029 C 
HETATM    3  C4  UNL     1      -5.724   3.056  15.272  1.00  0.00    -0.023 C 
HETATM    4  C5  UNL     1      -5.691   2.715  13.860  1.00  0.00     0.070 C 
HETATM    5  C6  UNL     1      -4.568   1.818  13.440  1.00  0.00     0.114 C 
HETATM    6  C7  UNL     1      -4.148   0.857  14.511  1.00  0.00     0.212 C 
HETATM    7  O2  UNL     1      -5.323   0.329  15.068  1.00  0.00    -0.355 OA
HETATM    8  O3  UNL     1      -3.466   2.498  12.920  1.00  0.00    -0.365 OA
HETATM    9  C8  UNL     1      -3.297   1.526  11.954  1.00  0.00     0.178 C 
HETATM   10  C10 UNL     1      -4.765   1.210  12.070  1.00  0.00     0.186 C 
ENDROOT
BRANCH  10  11
HETATM   11  O5  UNL     1      -5.604   2.005  11.287  1.00  0.00    -0.390 OA
ATOM     12  H5  UNL     1      -5.100   2.605  10.751  1.00  0.00     0.210 HD
ENDBRANCH  10  11
BRANCH   9  13
HETATM   13  C9  UNL     1      -2.860   2.080  10.618  1.00  0.00     0.198 C 
BRANCH  13  14
HETATM   14  O4  UNL     1      -1.934   1.187  10.050  1.00  0.00    -0.398 OA
ATOM     15  H4  UNL     1      -1.203   1.690   9.711  1.00  0.00     0.209 HD
ENDBRANCH  13  14
ENDBRANCH   9  13
BRANCH   1  16
HETATM   16  O1  UNL     1      -6.371   0.174  17.117  1.00  0.00    -0.363 OA
HETATM   17  C1  UNL     1      -7.544   0.925  17.217  1.00  0.00     0.205 C 
ENDBRANCH   1  16
TORSDOF 4
ENDMDL
MODEL 2
REMARK VINA RESULT: -6.188466322      2.376      3.914
REMARK  4 active torsions:
REMARK  status: ('A' for Active; 'I' for Inactive)
REMARK    1  A    between atoms: O1_2  and  C2_3 
REMARK    2  A    between atoms: C8_11  and  C9_12 
REMARK    3  A    between atoms: C9_12  and  O4_13 
REMARK    4  A    between atoms: C10_15  and  O5_16 
ROOT
HETATM    1  C2  UNL     1      -4.271   5.399  13.919  1.00  0.00     0.283 C 
HETATM    2  C3  UNL     1      -5.675   5.071  14.245  1.00  0.00     0.029 C 
HETATM    3  C4  UNL     1      -6.226   3.876  14.274  1.00  0.00    -0.023 C 
HETATM    4  C5  UNL     1      -5.649   2.571  14.006  1.00  0.00     0.070 C 
HETATM    5  C6  UNL     1      -4.825   2.475  12.759  1.00  0.00     0.114 C 
HETATM    6  C7  UNL     1      -4.121   3.753  12.416  1.00  0.00     0.212 C 
HETATM    7  O2  UNL     1      -3.569   4.246  13.609  1.00  0.00    -0.355 OA
HETATM    8  O3  UNL     1      -5.522   1.980  11.657  1.00  0.00    -0.365 OA
HETATM    9  C8  UNL     1      -4.422   1.245  11.264  1.00  0.00     0.178 C 
HETATM   10  C10 UNL     1      -3.967   1.231  12.699  1.00  0.00     0.186 C 
ENDROOT
BRANCH  10  11
HETATM   11  O5  UNL     1      -4.511   0.211  13.482  1.00  0.00    -0.390 OA
ATOM     12  H5  UNL     1      -3.950  -0.555  13.479  1.00  0.00     0.210 HD
ENDBRANCH  10  11
BRANCH   9  13
HETATM   13  C9  UNL     1      -4.779  -0.105  10.687  1.00  0.00     0.198 C 
BRANCH  13  14
HETATM   14  O4  UNL     1      -5.051   0.057   9.317  1.00  0.00    -0.398 OA
ATOM     15  H4  UNL     1      -4.857  -0.761   8.874  1.00  0.00     0.209 HD
ENDBRANCH  13  14
ENDBRANCH   9  13
BRANCH   1  16
HETATM   16  O1  UNL     1      -3.659   6.136  14.927  1.00  0.00    -0.363 OA
HETATM   17  C1  UNL     1      -2.524   6.807  14.466  1.00  0.00     0.205 C 
ENDBRANCH   1  16
TORSDOF 4
ENDMDL
MODEL 3
REMARK VINA RESULT: -6.159180236      2.089      3.915
REMARK  4 active torsions:
REMARK  status: ('A' for Active; 'I' for Inactive)
REMARK    1  A    between atoms: O1_2  and  C2_3 
REMARK    2  A    between atoms: C8_11  and  C9_12 
REMARK    3  A    between atoms: C9_12  and  O4_13 
REMARK    4  A    between atoms: C10_15  and  O5_16 
ROOT
HETATM    1  C2  UNL     1      -4.497   0.321  13.177  1.00  0.00     0.283 C 
HETATM    2  C3  UNL     1      -4.066  -0.541  12.056  1.00  0.00     0.029 C 
HETATM    3  C4  UNL     1      -3.052  -0.338  11.241  1.00  0.00    -0.023 C 
HETATM    4  C5  UNL     1      -2.088   0.748  11.196  1.00  0.00     0.070 C 
HETATM    5  C6  UNL     1      -2.667   2.126  11.280  1.00  0.00     0.114 C 
HETATM    6  C7  UNL     1      -3.918   2.192  12.103  1.00  0.00     0.212 C 
HETATM    7  O2  UNL     1      -3.682   1.438  13.263  1.00  0.00    -0.355 OA
HETATM    8  O3  UNL     1      -2.855   2.737  10.040  1.00  0.00    -0.365 OA
HETATM    9  C8  UNL     1      -2.432   3.948  10.549  1.00  0.00     0.178 C 
HETATM   10  C10 UNL     1      -1.640   3.193  11.583  1.00  0.00     0.186 C 
ENDROOT
BRANCH  10  11
HETATM   11  O5  UNL     1      -0.367   2.790  11.174  1.00  0.00    -0.390 OA
ATOM     12  H5  UNL     1       0.059   3.473  10.670  1.00  0.00     0.210 HD
ENDBRANCH  10  11
BRANCH   9  13
HETATM   13  C9  UNL     1      -1.611   4.755   9.570  1.00  0.00     0.198 C 
BRANCH  13  14
HETATM   14  O4  UNL     1      -2.238   4.695   8.312  1.00  0.00    -0.398 OA
ATOM     15  H4  UNL     1      -2.094   5.522   7.866  1.00  0.00     0.209 HD
ENDBRANCH  13  14
ENDBRANCH   9  13
BRANCH   1  16
HETATM   16  O1  UNL     1      -4.565  -0.378  14.378  1.00  0.00    -0.363 OA
HETATM   17  C1  UNL     1      -4.523   0.476  15.481  1.00  0.00     0.205 C 
ENDBRANCH   1  16
TORSDOF 4
ENDMDL
MODEL 4
REMARK VINA RESULT: -6.148172556      1.964      5.347
REMARK  4 active torsions:
REMARK  status: ('A' for Active; 'I' for Inactive)
REMARK    1  A    between atoms: O1_2  and  C2_3 
REMARK    2  A    between atoms: C8_11  and  C9_12 
REMARK    3  A    between atoms: C9_12  and  O4_13 
REMARK    4  A    between atoms: C10_15  and  O5_16 
ROOT
HETATM    1  C2  UNL     1      -4.408   4.152  12.151  1.00  0.00     0.283 C 
HETATM    2  C3  UNL     1      -4.027   5.152  13.170  1.00  0.00     0.029 C 
HETATM    3  C4  UNL     1      -3.683   4.922  14.420  1.00  0.00    -0.023 C 
HETATM    4  C5  UNL     1      -3.578   3.670  15.148  1.00  0.00     0.070 C 
HETATM    5  C6  UNL     1      -4.739   2.736  14.995  1.00  0.00     0.114 C 
HETATM    6  C7  UNL     1      -5.405   2.836  13.656  1.00  0.00     0.212 C 
HETATM    7  O2  UNL     1      -4.382   2.878  12.696  1.00  0.00    -0.355 OA
HETATM    8  O3  UNL     1      -5.676   2.826  16.025  1.00  0.00    -0.365 OA
HETATM    9  C8  UNL     1      -5.838   1.455  16.025  1.00  0.00     0.178 C 
HETATM   10  C10 UNL     1      -4.446   1.329  15.465  1.00  0.00     0.186 C 
ENDROOT
BRANCH  10  11
HETATM   11  O5  UNL     1      -3.424   1.324  16.417  1.00  0.00    -0.390 OA
ATOM     12  H5  UNL     1      -3.222   2.207  16.702  1.00  0.00     0.210 HD
ENDBRANCH  10  11
BRANCH   9  13
HETATM   13  C9  UNL     1      -6.032   0.876  17.407  1.00  0.00     0.198 C 
BRANCH  13  14
HETATM   14  O4  UNL     1      -5.899  -0.522  17.324  1.00  0.00    -0.398 OA
ATOM     15  H4  UNL     1      -5.199  -0.791  17.907  1.00  0.00     0.209 HD
ENDBRANCH  13  14
ENDBRANCH   9  13
BRANCH   1  16
HETATM   16  O1  UNL     1      -3.628   4.252  11.003  1.00  0.00    -0.363 OA
HETATM   17  C1  UNL     1      -2.607   3.301  10.983  1.00  0.00     0.205 C 
ENDBRANCH   1  16
TORSDOF 4
ENDMDL
MODEL 5
REMARK VINA RESULT: -6.060522330      2.360      3.160
REMARK  4 active torsions:
REMARK  status: ('A' for Active; 'I' for Inactive)
REMARK    1  A    between atoms: O1_2  and  C2_3 
REMARK    2  A    between atoms: C8_11  and  C9_12 
REMARK    3  A    between atoms: C9_12  and  O4_13 
REMARK    4  A    between atoms: C10_15  and  O5_16 
ROOT
HETATM    1  C2  UNL     1      -4.896   3.789  14.657  1.00  0.00     0.283 C 
HETATM    2  C3  UNL     1      -3.694   4.338  13.994  1.00  0.00     0.029 C 
HETATM    3  C4  UNL     1      -3.214   4.003  12.815  1.00  0.00    -0.023 C 
HETATM    4  C5  UNL     1      -3.697   3.034  11.847  1.00  0.00     0.070 C 
HETATM    5  C6  UNL     1      -4.051   1.689  12.403  1.00  0.00     0.114 C 
HETATM    6  C7  UNL     1      -4.566   1.749  13.809  1.00  0.00     0.212 C 
HETATM    7  O2  UNL     1      -5.478   2.814  13.864  1.00  0.00    -0.355 OA
HETATM    8  O3  UNL     1      -3.032   0.743  12.286  1.00  0.00    -0.365 OA
HETATM    9  C8  UNL     1      -3.952  -0.237  11.969  1.00  0.00     0.178 C 
HETATM   10  C10 UNL     1      -4.867   0.842  11.454  1.00  0.00     0.186 C 
ENDROOT
BRANCH  10  11
HETATM   11  O5  UNL     1      -4.645   1.222  10.129  1.00  0.00    -0.390 OA
ATOM     12  H5  UNL     1      -5.337   1.794   9.819  1.00  0.00     0.210 HD
ENDBRANCH  10  11
BRANCH   9  13
HETATM   13  C9  UNL     1      -3.452  -1.212  10.928  1.00  0.00     0.198 C 
BRANCH  13  14
HETATM   14  O4  UNL     1      -2.787  -2.261  11.588  1.00  0.00    -0.398 OA
ATOM     15  H4  UNL     1      -2.883  -3.050  11.067  1.00  0.00     0.209 HD
ENDBRANCH  13  14
ENDBRANCH   9  13
BRANCH   1  16
HETATM   16  O1  UNL     1      -5.796   4.787  15.016  1.00  0.00    -0.363 OA
HETATM   17  C1  UNL     1      -6.595   5.179  13.940  1.00  0.00     0.205 C 
ENDBRANCH   1  16
TORSDOF 4
ENDMDL
