MODEL 1
REMARK VINA RESULT: -7.191267612      0.000      0.000
REMARK  5 active torsions:
REMARK  status: ('A' for Active; 'I' for Inactive)
REMARK    1  A    between atoms: C2_3  and  N2_4 
REMARK    2  A    between atoms: C3_8  and  C4_9 
REMARK    3  A    between atoms: C5_10  and  C6_11 
REMARK    4  A    between atoms: C6_11  and  O1_12 
REMARK    5  A    between atoms: O1_12  and  N3_13 
ROOT
HETATM    1  N1  UNL     1      -6.532   4.073  13.953  1.00  0.00    -0.194 NA
HETATM    2  C1  UNL     1      -5.827   3.328  14.494  1.00  0.00     0.103 C 
HETATM    3  C2  UNL     1      -4.933   2.412  15.150  1.00  0.00     0.255 C 
HETATM    4  C3  UNL     1      -5.004   1.001  14.615  1.00  0.00     0.254 C 
HETATM    5  O2  UNL     1      -4.372   0.285  15.632  1.00  0.00    -0.340 OA
HETATM    6  C7  UNL     1      -5.116   0.696  16.740  1.00  0.00     0.269 C 
HETATM    7  O3  UNL     1      -6.339   0.092  16.675  1.00  0.00    -0.361 OA
HETATM    8  C8  UNL     1      -7.317   0.986  17.002  1.00  0.00     0.171 C 
HETATM    9  C9  UNL     1      -6.750   2.372  16.886  1.00  0.00     0.039 C 
HETATM   10  C10 UNL     1      -5.301   2.177  16.619  1.00  0.00     0.097 C 
ENDROOT
BRANCH   3  11
HETATM   11  N2  UNL     1      -3.560   2.863  15.143  1.00  0.00    -0.053 N 
ATOM     12  H23 UNL     1      -3.433   3.633  14.486  1.00  0.00     0.276 HD
ATOM     13  H22 UNL     1      -3.330   3.345  16.012  1.00  0.00     0.276 HD
ATOM     14  H21 UNL     1      -2.896   2.111  14.955  1.00  0.00     0.276 HD
ENDBRANCH   3  11
BRANCH   4  15
HETATM   15  C4  UNL     1      -4.277   0.938  13.351  1.00  0.00    -0.068 C 
HETATM   16  C5  UNL     1      -3.688   0.872  12.299  1.00  0.00    -0.075 C 
BRANCH  16  17
HETATM   17  C6  UNL     1      -2.990   0.778  11.014  1.00  0.00     0.294 C 
BRANCH  17  18
HETATM   18  O1  UNL     1      -3.718  -0.062  10.142  1.00  0.00    -0.275 OA
BRANCH  18  19
HETATM   19  N3  UNL     1      -5.022   0.286  10.205  1.00  0.00    -0.310 N 
ATOM     20  H32 UNL     1      -5.721  -0.166  10.795  1.00  0.00     0.184 HD
ATOM     21  H31 UNL     1      -5.178   1.067   9.567  1.00  0.00     0.184 HD
ENDBRANCH  18  19
ENDBRANCH  17  18
ENDBRANCH  16  17
ENDBRANCH   4  15
TORSDOF 5
ENDMDL
MODEL 2
REMARK VINA RESULT: -7.171421296      1.342      1.342
REMARK  5 active torsions:
REMARK  status: ('A' for Active; 'I' for Inactive)
REMARK    1  A    between atoms: C2_3  and  N2_4 
REMARK    2  A    between atoms: C3_8  and  C4_9 
REMARK    3  A    between atoms: C5_10  and  C6_11 
REMARK    4  A    between atoms: C6_11  and  O1_12 
REMARK    5  A    between atoms: O1_12  and  N3_13 
ROOT
HETATM    1  N1  UNL     1      -6.563   4.090  13.961  1.00  0.00    -0.194 NA
HETATM    2  C1  UNL     1      -5.854   3.353  14.507  1.00  0.00     0.103 C 
HETATM    3  C2  UNL     1      -4.954   2.447  15.169  1.00  0.00     0.255 C 
HETATM    4  C3  UNL     1      -4.994   1.039  14.624  1.00  0.00     0.254 C 
HETATM    5  O2  UNL     1      -4.364   0.327  15.645  1.00  0.00    -0.340 OA
HETATM    6  C7  UNL     1      -5.130   0.718  16.745  1.00  0.00     0.269 C 
HETATM    7  O3  UNL     1      -6.342   0.095  16.659  1.00  0.00    -0.361 OA
HETATM    8  C8  UNL     1      -7.339   0.970  16.979  1.00  0.00     0.171 C 
HETATM    9  C9  UNL     1      -6.793   2.366  16.880  1.00  0.00     0.039 C 
HETATM   10  C10 UNL     1      -5.338   2.197  16.631  1.00  0.00     0.097 C 
ENDROOT
BRANCH   3  11
HETATM   11  N2  UNL     1      -3.589   2.921  15.183  1.00  0.00    -0.053 N 
ATOM     12  H23 UNL     1      -3.065   2.545  14.393  1.00  0.00     0.276 HD
ATOM     13  H22 UNL     1      -3.545   3.914  14.955  1.00  0.00     0.276 HD
ATOM     14  H21 UNL     1      -3.111   2.728  16.064  1.00  0.00     0.276 HD
ENDBRANCH   3  11
BRANCH   4  15
HETATM   15  C4  UNL     1      -4.249   0.997  13.370  1.00  0.00    -0.068 C 
HETATM   16  C5  UNL     1      -3.618   0.950  12.342  1.00  0.00    -0.075 C 
BRANCH  16  17
HETATM   17  C6  UNL     1      -2.838   0.878  11.102  1.00  0.00     0.294 C 
BRANCH  17  18
HETATM   18  O1  UNL     1      -1.460   0.925  11.409  1.00  0.00    -0.275 OA
BRANCH  18  19
HETATM   19  N3  UNL     1      -1.129   2.204  11.691  1.00  0.00    -0.310 N 
ATOM     20  H32 UNL     1      -0.975   2.575  12.629  1.00  0.00     0.184 HD
ATOM     21  H31 UNL     1      -1.061   2.720  10.814  1.00  0.00     0.184 HD
ENDBRANCH  18  19
ENDBRANCH  17  18
ENDBRANCH  16  17
ENDBRANCH   4  15
TORSDOF 5
ENDMDL
MODEL 3
REMARK VINA RESULT: -6.898149503      2.659      3.232
REMARK  5 active torsions:
REMARK  status: ('A' for Active; 'I' for Inactive)
REMARK    1  A    between atoms: C2_3  and  N2_4 
REMARK    2  A    between atoms: C3_8  and  C4_9 
REMARK    3  A    between atoms: C5_10  and  C6_11 
REMARK    4  A    between atoms: C6_11  and  O1_12 
REMARK    5  A    between atoms: O1_12  and  N3_13 
ROOT
HETATM    1  N1  UNL     1      -4.819   3.779  10.274  1.00  0.00    -0.194 NA
HETATM    2  C1  UNL     1      -4.376   3.404  11.278  1.00  0.00     0.103 C 
HETATM    3  C2  UNL     1      -3.807   2.928  12.511  1.00  0.00     0.255 C 
HETATM    4  C3  UNL     1      -4.502   1.709  13.072  1.00  0.00     0.254 C 
HETATM    5  O2  UNL     1      -4.035   1.703  14.386  1.00  0.00    -0.340 OA
HETATM    6  C7  UNL     1      -4.372   2.998  14.787  1.00  0.00     0.269 C 
HETATM    7  O3  UNL     1      -5.725   3.048  14.958  1.00  0.00    -0.361 OA
HETATM    8  C8  UNL     1      -6.217   4.208  14.434  1.00  0.00     0.171 C 
HETATM    9  C9  UNL     1      -5.189   4.780  13.499  1.00  0.00     0.039 C 
HETATM   10  C10 UNL     1      -3.991   3.917  13.666  1.00  0.00     0.097 C 
ENDROOT
BRANCH   3  11
HETATM   11  N2  UNL     1      -2.388   2.674  12.414  1.00  0.00    -0.053 N 
ATOM     12  H23 UNL     1      -2.059   2.139  13.217  1.00  0.00     0.276 HD
ATOM     13  H22 UNL     1      -2.187   2.003  11.672  1.00  0.00     0.276 HD
ATOM     14  H21 UNL     1      -1.840   3.526  12.293  1.00  0.00     0.276 HD
ENDBRANCH   3  11
BRANCH   4  15
HETATM   15  C4  UNL     1      -4.072   0.534  12.320  1.00  0.00    -0.068 C 
HETATM   16  C5  UNL     1      -3.730  -0.432  11.683  1.00  0.00    -0.075 C 
BRANCH  16  17
HETATM   17  C6  UNL     1      -3.325  -1.598  10.890  1.00  0.00     0.294 C 
BRANCH  17  18
HETATM   18  O1  UNL     1      -2.580  -2.483  11.700  1.00  0.00    -0.275 OA
BRANCH  18  19
HETATM   19  N3  UNL     1      -2.845  -3.748  11.306  1.00  0.00    -0.310 N 
ATOM     20  H32 UNL     1      -3.738  -4.070  10.933  1.00  0.00     0.184 HD
ATOM     21  H31 UNL     1      -2.006  -4.311  11.445  1.00  0.00     0.184 HD
ENDBRANCH  18  19
ENDBRANCH  17  18
ENDBRANCH  16  17
ENDBRANCH   4  15
TORSDOF 5
ENDMDL
MODEL 4
REMARK VINA RESULT: -6.140727208      3.162      5.487
REMARK  5 active torsions:
REMARK  status: ('A' for Active; 'I' for Inactive)
REMARK    1  A    between atoms: C2_3  and  N2_4 
REMARK    2  A    between atoms: C3_8  and  C4_9 
REMARK    3  A    between atoms: C5_10  and  C6_11 
REMARK    4  A    between atoms: C6_11  and  O1_12 
REMARK    5  A    between atoms: O1_12  and  N3_13 
ROOT
HETATM    1  N1  UNL     1      -5.499   1.702  11.555  1.00  0.00    -0.194 NA
HETATM    2  C1  UNL     1      -5.054   2.473  12.297  1.00  0.00     0.103 C 
HETATM    3  C2  UNL     1      -4.497   3.411  13.236  1.00  0.00     0.255 C 
HETATM    4  C3  UNL     1      -5.536   4.189  14.009  1.00  0.00     0.254 C 
HETATM    5  O2  UNL     1      -4.773   5.240  14.519  1.00  0.00    -0.340 OA
HETATM    6  C7  UNL     1      -4.196   5.735  13.347  1.00  0.00     0.269 C 
HETATM    7  O3  UNL     1      -5.165   6.392  12.644  1.00  0.00    -0.361 OA
HETATM    8  C8  UNL     1      -5.067   6.084  11.319  1.00  0.00     0.171 C 
HETATM    9  C9  UNL     1      -4.242   4.836  11.181  1.00  0.00     0.039 C 
HETATM   10  C10 UNL     1      -3.738   4.552  12.550  1.00  0.00     0.097 C 
ENDROOT
BRANCH   3  11
HETATM   11  N2  UNL     1      -3.566   2.799  14.156  1.00  0.00    -0.053 N 
ATOM     12  H23 UNL     1      -3.737   1.797  14.235  1.00  0.00     0.276 HD
ATOM     13  H22 UNL     1      -2.625   2.778  13.764  1.00  0.00     0.276 HD
ATOM     14  H21 UNL     1      -3.568   3.243  15.075  1.00  0.00     0.276 HD
ENDBRANCH   3  11
BRANCH   4  15
HETATM   15  C4  UNL     1      -6.082   3.334  15.057  1.00  0.00    -0.068 C 
HETATM   16  C5  UNL     1      -6.526   2.610  15.915  1.00  0.00    -0.075 C 
BRANCH  16  17
HETATM   17  C6  UNL     1      -7.054   1.713  16.948  1.00  0.00     0.294 C 
BRANCH  17  18
HETATM   18  O1  UNL     1      -6.722   0.378  16.628  1.00  0.00    -0.275 OA
BRANCH  18  19
HETATM   19  N3  UNL     1      -5.701  -0.010  17.423  1.00  0.00    -0.310 N 
ATOM     20  H32 UNL     1      -4.942   0.594  17.738  1.00  0.00     0.184 HD
ATOM     21  H31 UNL     1      -5.825  -0.998  17.647  1.00  0.00     0.184 HD
ENDBRANCH  18  19
ENDBRANCH  17  18
ENDBRANCH  16  17
ENDBRANCH   4  15
TORSDOF 5
ENDMDL
MODEL 5
REMARK VINA RESULT: -6.036916676      3.915      5.682
REMARK  5 active torsions:
REMARK  status: ('A' for Active; 'I' for Inactive)
REMARK    1  A    between atoms: C2_3  and  N2_4 
REMARK    2  A    between atoms: C3_8  and  C4_9 
REMARK    3  A    between atoms: C5_10  and  C6_11 
REMARK    4  A    between atoms: C6_11  and  O1_12 
REMARK    5  A    between atoms: O1_12  and  N3_13 
ROOT
HETATM    1  N1  UNL     1      -3.709   3.186  14.065  1.00  0.00    -0.194 NA
HETATM    2  C1  UNL     1      -3.459   3.147  12.934  1.00  0.00     0.103 C 
HETATM    3  C2  UNL     1      -3.167   3.084  11.526  1.00  0.00     0.255 C 
HETATM    4  C3  UNL     1      -2.055   2.123  11.176  1.00  0.00     0.254 C 
HETATM    5  O2  UNL     1      -1.729   2.533   9.884  1.00  0.00    -0.340 OA
HETATM    6  C7  UNL     1      -1.495   3.894  10.094  1.00  0.00     0.269 C 
HETATM    7  O3  UNL     1      -0.304   4.021  10.749  1.00  0.00    -0.361 OA
HETATM    8  C8  UNL     1      -0.413   4.958  11.734  1.00  0.00     0.171 C 
HETATM    9  C9  UNL     1      -1.872   5.180  12.018  1.00  0.00     0.039 C 
HETATM   10  C10 UNL     1      -2.592   4.395  10.983  1.00  0.00     0.097 C 
ENDROOT
BRANCH   3  11
HETATM   11  N2  UNL     1      -4.332   2.787  10.724  1.00  0.00    -0.053 N 
ATOM     12  H23 UNL     1      -5.189   3.005  11.232  1.00  0.00     0.276 HD
ATOM     13  H22 UNL     1      -4.422   3.449   9.953  1.00  0.00     0.276 HD
ATOM     14  H21 UNL     1      -4.345   1.826  10.383  1.00  0.00     0.276 HD
ENDBRANCH   3  11
BRANCH   4  15
HETATM   15  C4  UNL     1      -2.577   0.761  11.217  1.00  0.00    -0.068 C 
HETATM   16  C5  UNL     1      -2.995  -0.370  11.265  1.00  0.00    -0.075 C 
BRANCH  16  17
HETATM   17  C6  UNL     1      -3.490  -1.749  11.342  1.00  0.00     0.294 C 
BRANCH  17  18
HETATM   18  O1  UNL     1      -2.397  -2.636  11.468  1.00  0.00    -0.275 OA
BRANCH  18  19
HETATM   19  N3  UNL     1      -2.853  -3.898  11.313  1.00  0.00    -0.310 N 
ATOM     20  H32 UNL     1      -3.764  -4.149  10.929  1.00  0.00     0.184 HD
ATOM     21  H31 UNL     1      -2.134  -4.542  11.643  1.00  0.00     0.184 HD
ENDBRANCH  18  19
ENDBRANCH  17  18
ENDBRANCH  16  17
ENDBRANCH   4  15
TORSDOF 5
ENDMDL
