MODEL 1
REMARK VINA RESULT: -6.486249815      0.000      0.000
REMARK  5 active torsions:
REMARK  status: ('A' for Active; 'I' for Inactive)
REMARK    1  A    between atoms: C2_2  and  O1_3 
REMARK    2  A    between atoms: C2_2  and  C3_5 
REMARK    3  A    between atoms: C3_5  and  O2_6 
REMARK    4  A    between atoms: C3_5  and  C4_8 
REMARK    5  A    between atoms: C7_13  and  O5_14 
ROOT
HETATM    1  C4  UNL     1      -4.785   1.278  14.237  1.00  0.00     0.182 C 
HETATM    2  C5  UNL     1      -4.620   2.542  13.541  1.00  0.00     0.206 C 
HETATM    3  O3  UNL     1      -3.590   2.846  12.756  1.00  0.00    -0.353 OA
HETATM    4  C6  UNL     1      -3.004   2.013  11.925  1.00  0.00     0.330 A 
HETATM    5  O4  UNL     1      -2.745   2.061  10.601  1.00  0.00    -0.311 OA
HETATM    6  C7  UNL     1      -3.935   1.490  10.806  1.00  0.00     0.237 A 
HETATM    7  C8  UNL     1      -4.215   0.095  11.215  1.00  0.00     0.070 C 
HETATM    8  C9  UNL     1      -4.414  -0.474  12.390  1.00  0.00     0.137 C 
HETATM    9  O6  UNL     1      -4.424   0.071  13.665  1.00  0.00    -0.353 OA
ENDROOT
BRANCH   1  10
HETATM   10  C3  UNL     1      -4.116   1.302  15.624  1.00  0.00     0.178 C 
BRANCH  10  11
HETATM   11  C2  UNL     1      -5.095   0.997  16.713  1.00  0.00     0.145 C 
HETATM   12  C1  UNL     1      -6.202   2.028  16.631  1.00  0.00     0.042 C 
BRANCH  11  13
HETATM   13  O1  UNL     1      -5.676  -0.255  16.530  1.00  0.00    -0.393 OA
ATOM     14  H1  UNL     1      -5.058  -0.787  16.042  1.00  0.00     0.210 HD
ENDBRANCH  11  13
ENDBRANCH  10  11
BRANCH  10  15
HETATM   15  O2  UNL     1      -3.524   2.522  15.886  1.00  0.00    -0.390 OA
ATOM     16  H2  UNL     1      -3.944   3.188  15.353  1.00  0.00     0.210 HD
ENDBRANCH  10  15
ENDBRANCH   1  10
BRANCH   6  17
HETATM   17  O5  UNL     1      -5.118   2.226  10.619  1.00  0.00    -0.358 OA
ATOM     18  H5  UNL     1      -5.794   1.784  10.120  1.00  0.00     0.213 HD
ENDBRANCH   6  17
TORSDOF 5
ENDMDL
MODEL 2
REMARK VINA RESULT: -6.463408154      1.759      4.710
REMARK  5 active torsions:
REMARK  status: ('A' for Active; 'I' for Inactive)
REMARK    1  A    between atoms: C2_2  and  O1_3 
REMARK    2  A    between atoms: C2_2  and  C3_5 
REMARK    3  A    between atoms: C3_5  and  O2_6 
REMARK    4  A    between atoms: C3_5  and  C4_8 
REMARK    5  A    between atoms: C7_13  and  O5_14 
ROOT
HETATM    1  C4  UNL     1      -3.986   1.084  12.712  1.00  0.00     0.182 C 
HETATM    2  C5  UNL     1      -4.145   2.494  12.405  1.00  0.00     0.206 C 
HETATM    3  O3  UNL     1      -5.231   3.211  12.677  1.00  0.00    -0.353 OA
HETATM    4  C6  UNL     1      -5.954   3.100  13.769  1.00  0.00     0.330 A 
HETATM    5  O4  UNL     1      -6.350   3.985  14.708  1.00  0.00    -0.311 OA
HETATM    6  C7  UNL     1      -5.183   3.442  15.065  1.00  0.00     0.237 A 
HETATM    7  C8  UNL     1      -4.949   2.120  15.687  1.00  0.00     0.070 C 
HETATM    8  C9  UNL     1      -4.661   0.931  15.190  1.00  0.00     0.137 C 
HETATM    9  O6  UNL     1      -4.481   0.524  13.876  1.00  0.00    -0.353 OA
ENDROOT
BRANCH   1  10
HETATM   10  C3  UNL     1      -4.500   0.192  11.566  1.00  0.00     0.178 C 
BRANCH  10  11
HETATM   11  C2  UNL     1      -3.372  -0.437  10.809  1.00  0.00     0.145 C 
HETATM   12  C1  UNL     1      -3.225  -1.858  11.312  1.00  0.00     0.042 C 
BRANCH  11  13
HETATM   13  O1  UNL     1      -3.655  -0.502   9.448  1.00  0.00    -0.393 OA
ATOM     14  H1  UNL     1      -2.861  -0.775   9.004  1.00  0.00     0.210 HD
ENDBRANCH  11  13
ENDBRANCH  10  11
BRANCH  10  15
HETATM   15  O2  UNL     1      -5.290   0.900  10.681  1.00  0.00    -0.390 OA
ATOM     16  H2  UNL     1      -4.869   1.730  10.490  1.00  0.00     0.210 HD
ENDBRANCH  10  15
ENDBRANCH   1  10
BRANCH   6  17
HETATM   17  O5  UNL     1      -3.983   4.150  14.878  1.00  0.00    -0.358 OA
ATOM     18  H5  UNL     1      -3.397   3.788  14.225  1.00  0.00     0.213 HD
ENDBRANCH   6  17
TORSDOF 5
ENDMDL
MODEL 3
REMARK VINA RESULT: -6.223733139      1.472      5.119
REMARK  5 active torsions:
REMARK  status: ('A' for Active; 'I' for Inactive)
REMARK    1  A    between atoms: C2_2  and  O1_3 
REMARK    2  A    between atoms: C2_2  and  C3_5 
REMARK    3  A    between atoms: C3_5  and  O2_6 
REMARK    4  A    between atoms: C3_5  and  C4_8 
REMARK    5  A    between atoms: C7_13  and  O5_14 
ROOT
HETATM    1  C4  UNL     1      -4.915   2.116  13.275  1.00  0.00     0.182 C 
HETATM    2  C5  UNL     1      -4.537   0.893  13.959  1.00  0.00     0.206 C 
HETATM    3  O3  UNL     1      -3.975   0.841  15.164  1.00  0.00    -0.353 OA
HETATM    4  C6  UNL     1      -4.289   1.619  16.175  1.00  0.00     0.330 A 
HETATM    5  O4  UNL     1      -4.680   1.370  17.444  1.00  0.00    -0.311 OA
HETATM    6  C7  UNL     1      -5.752   1.463  16.652  1.00  0.00     0.237 A 
HETATM    7  C8  UNL     1      -6.410   2.692  16.153  1.00  0.00     0.070 C 
HETATM    8  C9  UNL     1      -6.279   3.394  15.043  1.00  0.00     0.137 C 
HETATM    9  O6  UNL     1      -5.451   3.200  13.947  1.00  0.00    -0.353 OA
ENDROOT
BRANCH   1  10
HETATM   10  C3  UNL     1      -3.755   2.677  12.431  1.00  0.00     0.178 C 
BRANCH  10  11
HETATM   11  C2  UNL     1      -4.233   3.196  11.112  1.00  0.00     0.145 C 
HETATM   12  C1  UNL     1      -3.040   3.798  10.400  1.00  0.00     0.042 C 
BRANCH  11  13
HETATM   13  O1  UNL     1      -4.719   2.164  10.314  1.00  0.00    -0.393 OA
ATOM     14  H1  UNL     1      -3.970   1.699   9.961  1.00  0.00     0.210 HD
ENDBRANCH  11  13
ENDBRANCH  10  11
BRANCH  10  15
HETATM   15  O2  UNL     1      -2.777   1.727  12.209  1.00  0.00    -0.390 OA
ATOM     16  H2  UNL     1      -3.194   0.913  11.951  1.00  0.00     0.210 HD
ENDBRANCH  10  15
ENDBRANCH   1  10
BRANCH   6  17
HETATM   17  O5  UNL     1      -6.407   0.302  16.204  1.00  0.00    -0.358 OA
ATOM     18  H5  UNL     1      -7.048   0.439  15.517  1.00  0.00     0.213 HD
ENDBRANCH   6  17
TORSDOF 5
ENDMDL
MODEL 4
REMARK VINA RESULT: -6.188612164      2.526      3.295
REMARK  5 active torsions:
REMARK  status: ('A' for Active; 'I' for Inactive)
REMARK    1  A    between atoms: C2_2  and  O1_3 
REMARK    2  A    between atoms: C2_2  and  C3_5 
REMARK    3  A    between atoms: C3_5  and  O2_6 
REMARK    4  A    between atoms: C3_5  and  C4_8 
REMARK    5  A    between atoms: C7_13  and  O5_14 
ROOT
HETATM    1  C4  UNL     1      -5.004   2.550  15.856  1.00  0.00     0.182 C 
HETATM    2  C5  UNL     1      -3.684   3.072  15.553  1.00  0.00     0.206 C 
HETATM    3  O3  UNL     1      -3.198   3.237  14.325  1.00  0.00    -0.353 OA
HETATM    4  C6  UNL     1      -3.890   3.661  13.291  1.00  0.00     0.330 A 
HETATM    5  O4  UNL     1      -3.718   4.677  12.420  1.00  0.00    -0.311 OA
HETATM    6  C7  UNL     1      -4.447   5.094  13.459  1.00  0.00     0.237 A 
HETATM    7  C8  UNL     1      -5.891   4.877  13.700  1.00  0.00     0.070 C 
HETATM    8  C9  UNL     1      -6.562   3.959  14.371  1.00  0.00     0.137 C 
HETATM    9  O6  UNL     1      -6.113   2.861  15.090  1.00  0.00    -0.353 OA
ENDROOT
BRANCH   1  10
HETATM   10  C3  UNL     1      -4.994   1.014  15.975  1.00  0.00     0.178 C 
BRANCH  10  11
HETATM   11  C2  UNL     1      -5.897   0.540  17.070  1.00  0.00     0.145 C 
HETATM   12  C1  UNL     1      -5.889   1.596  18.155  1.00  0.00     0.042 C 
BRANCH  11  13
HETATM   13  O1  UNL     1      -7.207   0.413  16.619  1.00  0.00    -0.393 OA
ATOM     14  H1  UNL     1      -7.301   0.965  15.852  1.00  0.00     0.210 HD
ENDBRANCH  11  13
ENDBRANCH  10  11
BRANCH  10  15
HETATM   15  O2  UNL     1      -3.722   0.527  16.204  1.00  0.00    -0.390 OA
ATOM     16  H2  UNL     1      -3.090   1.201  15.979  1.00  0.00     0.210 HD
ENDBRANCH  10  15
ENDBRANCH   1  10
BRANCH   6  17
HETATM   17  O5  UNL     1      -3.854   5.850  14.485  1.00  0.00    -0.358 OA
ATOM     18  H5  UNL     1      -3.328   6.585  14.193  1.00  0.00     0.213 HD
ENDBRANCH   6  17
TORSDOF 5
ENDMDL
MODEL 5
REMARK VINA RESULT: -6.172387331      1.280      2.529
REMARK  5 active torsions:
REMARK  status: ('A' for Active; 'I' for Inactive)
REMARK    1  A    between atoms: C2_2  and  O1_3 
REMARK    2  A    between atoms: C2_2  and  C3_5 
REMARK    3  A    between atoms: C3_5  and  O2_6 
REMARK    4  A    between atoms: C3_5  and  C4_8 
REMARK    5  A    between atoms: C7_13  and  O5_14 
ROOT
HETATM    1  C4  UNL     1      -3.865   1.291  13.893  1.00  0.00     0.182 C 
HETATM    2  C5  UNL     1      -4.111   0.636  12.620  1.00  0.00     0.206 C 
HETATM    3  O3  UNL     1      -4.898   1.116  11.661  1.00  0.00    -0.353 OA
HETATM    4  C6  UNL     1      -4.990   2.383  11.325  1.00  0.00     0.330 A 
HETATM    5  O4  UNL     1      -4.843   3.040  10.154  1.00  0.00    -0.311 OA
HETATM    6  C7  UNL     1      -3.669   2.984  10.790  1.00  0.00     0.237 A 
HETATM    7  C8  UNL     1      -3.200   3.834  11.907  1.00  0.00     0.070 C 
HETATM    8  C9  UNL     1      -3.232   3.692  13.219  1.00  0.00     0.137 C 
HETATM    9  O6  UNL     1      -3.737   2.664  14.002  1.00  0.00    -0.353 OA
ENDROOT
BRANCH   1  10
HETATM   10  C3  UNL     1      -4.905   0.881  14.952  1.00  0.00     0.178 C 
BRANCH  10  11
HETATM   11  C2  UNL     1      -4.696   1.611  16.241  1.00  0.00     0.145 C 
HETATM   12  C1  UNL     1      -5.548   0.931  17.293  1.00  0.00     0.042 C 
BRANCH  11  13
HETATM   13  O1  UNL     1      -3.370   1.526  16.657  1.00  0.00    -0.393 OA
ATOM     14  H1  UNL     1      -3.033   2.411  16.719  1.00  0.00     0.210 HD
ENDBRANCH  11  13
ENDBRANCH  10  11
BRANCH  10  15
HETATM   15  O2  UNL     1      -4.875  -0.478  15.200  1.00  0.00    -0.390 OA
ATOM     16  H2  UNL     1      -5.744  -0.761  15.463  1.00  0.00     0.210 HD
ENDBRANCH  10  15
ENDBRANCH   1  10
BRANCH   6  17
HETATM   17  O5  UNL     1      -2.697   2.044  10.405  1.00  0.00    -0.358 OA
ATOM     18  H5  UNL     1      -2.239   2.244   9.597  1.00  0.00     0.213 HD
ENDBRANCH   6  17
TORSDOF 5
ENDMDL
