MODEL 1
REMARK VINA RESULT: -5.979365431      0.000      0.000
REMARK  5 active torsions:
REMARK  status: ('A' for Active; 'I' for Inactive)
REMARK    1  A    between atoms: C2_2  and  O1_3 
REMARK    2  A    between atoms: O1_3  and  C3_4 
REMARK    3  A    between atoms: C4_5  and  O2_6 
REMARK    4  A    between atoms: C5_8  and  O3_9 
REMARK    5  A    between atoms: C7_13  and  N1_14 
ROOT
HETATM    1  C3  UNL     1      -3.566   1.981  12.329  1.00  0.00     0.209 C 
HETATM    2  C4  UNL     1      -3.598   1.604  10.851  1.00  0.00     0.182 C 
HETATM    3  C5  UNL     1      -3.325   0.106  10.799  1.00  0.00     0.173 C 
HETATM    4  C6  UNL     1      -4.422  -0.572  11.595  1.00  0.00     0.205 C 
HETATM    5  O4  UNL     1      -4.280  -0.162  12.923  1.00  0.00    -0.360 OA
HETATM    6  C7  UNL     1      -4.670   1.195  12.974  1.00  0.00     0.275 C 
ENDROOT
BRANCH   6   7
HETATM    7  N1  UNL     1      -4.928   1.588  14.328  1.00  0.00    -0.272 N 
HETATM    8  C8  UNL     1      -4.469   0.974  15.429  1.00  0.00     0.114 A 
HETATM    9  C9  UNL     1      -4.920   1.630  16.553  1.00  0.00     0.037 A 
HETATM   10  C10 UNL     1      -5.680   2.680  16.088  1.00  0.00     0.108 A 
HETATM   11  N2  UNL     1      -5.652   2.606  14.749  1.00  0.00    -0.308 N 
ATOM     12  H2  UNL     1      -6.132   3.260  14.131  1.00  0.00     0.186 HD
ENDBRANCH   6   7
BRANCH   1  13
HETATM   13  O1  UNL     1      -3.754   3.378  12.443  1.00  0.00    -0.351 OA
BRANCH  13  14
HETATM   14  C2  UNL     1      -2.728   4.123  13.004  1.00  0.00     0.125 C 
HETATM   15  C1  UNL     1      -2.748   4.580  14.236  1.00  0.00     0.037 C 
ENDBRANCH  13  14
ENDBRANCH   1  13
BRANCH   2  16
HETATM   16  O2  UNL     1      -4.878   1.808  10.348  1.00  0.00    -0.390 OA
ATOM     17  H2  UNL     1      -4.857   1.756   9.400  1.00  0.00     0.210 HD
ENDBRANCH   2  16
BRANCH   3  18
HETATM   18  O3  UNL     1      -3.259  -0.367   9.506  1.00  0.00    -0.391 OA
ATOM     19  H3  UNL     1      -2.548  -0.986   9.386  1.00  0.00     0.210 HD
ENDBRANCH   3  18
TORSDOF 5
ENDMDL
MODEL 2
REMARK VINA RESULT: -5.953646515      1.531      3.336
REMARK  5 active torsions:
REMARK  status: ('A' for Active; 'I' for Inactive)
REMARK    1  A    between atoms: C2_2  and  O1_3 
REMARK    2  A    between atoms: O1_3  and  C3_4 
REMARK    3  A    between atoms: C4_5  and  O2_6 
REMARK    4  A    between atoms: C5_8  and  O3_9 
REMARK    5  A    between atoms: C7_13  and  N1_14 
ROOT
HETATM    1  C3  UNL     1      -4.661   1.245  12.446  1.00  0.00     0.209 C 
HETATM    2  C4  UNL     1      -3.818   1.716  11.265  1.00  0.00     0.182 C 
HETATM    3  C5  UNL     1      -4.350   3.095  10.898  1.00  0.00     0.173 C 
HETATM    4  C6  UNL     1      -4.182   3.974  12.120  1.00  0.00     0.205 C 
HETATM    5  O4  UNL     1      -5.007   3.454  13.119  1.00  0.00    -0.360 OA
HETATM    6  C7  UNL     1      -4.420   2.240  13.543  1.00  0.00     0.275 C 
ENDROOT
BRANCH   6   7
HETATM    7  N1  UNL     1      -4.965   1.836  14.804  1.00  0.00    -0.272 N 
HETATM    8  C8  UNL     1      -5.855   2.524  15.536  1.00  0.00     0.114 A 
HETATM    9  C9  UNL     1      -6.151   1.830  16.688  1.00  0.00     0.037 A 
HETATM   10  C10 UNL     1      -5.398   0.678  16.629  1.00  0.00     0.108 A 
HETATM   11  N2  UNL     1      -4.707   0.735  15.480  1.00  0.00    -0.308 N 
ATOM     12  H2  UNL     1      -4.058   0.012  15.168  1.00  0.00     0.186 HD
ENDBRANCH   6   7
BRANCH   1  13
HETATM   13  O1  UNL     1      -4.255  -0.063  12.799  1.00  0.00    -0.351 OA
BRANCH  13  14
HETATM   14  C2  UNL     1      -4.264  -1.032  11.807  1.00  0.00     0.125 C 
HETATM   15  C1  UNL     1      -3.236  -1.803  11.531  1.00  0.00     0.037 C 
ENDBRANCH  13  14
ENDBRANCH   1  13
BRANCH   2  16
HETATM   16  O2  UNL     1      -2.499   1.878  11.673  1.00  0.00    -0.390 OA
ATOM     17  H2  UNL     1      -2.108   2.602  11.200  1.00  0.00     0.210 HD
ENDBRANCH   2  16
BRANCH   3  18
HETATM   18  O3  UNL     1      -3.718   3.621   9.793  1.00  0.00    -0.391 OA
ATOM     19  H3  UNL     1      -4.211   3.477   8.994  1.00  0.00     0.210 HD
ENDBRANCH   3  18
TORSDOF 5
ENDMDL
MODEL 3
REMARK VINA RESULT: -5.917674518      1.398      1.479
REMARK  5 active torsions:
REMARK  status: ('A' for Active; 'I' for Inactive)
REMARK    1  A    between atoms: C2_2  and  O1_3 
REMARK    2  A    between atoms: O1_3  and  C3_4 
REMARK    3  A    between atoms: C4_5  and  O2_6 
REMARK    4  A    between atoms: C5_8  and  O3_9 
REMARK    5  A    between atoms: C7_13  and  N1_14 
ROOT
HETATM    1  C3  UNL     1      -4.646   2.853  13.098  1.00  0.00     0.209 C 
HETATM    2  C4  UNL     1      -4.519   2.503  11.619  1.00  0.00     0.182 C 
HETATM    3  C5  UNL     1      -3.437   1.434  11.536  1.00  0.00     0.173 C 
HETATM    4  C6  UNL     1      -3.908   0.262  12.372  1.00  0.00     0.205 C 
HETATM    5  O4  UNL     1      -3.970   0.700  13.697  1.00  0.00    -0.360 OA
HETATM    6  C7  UNL     1      -5.067   1.586  13.783  1.00  0.00     0.275 C 
ENDROOT
BRANCH   6   7
HETATM    7  N1  UNL     1      -5.445   1.780  15.151  1.00  0.00    -0.272 N 
HETATM    8  C8  UNL     1      -4.903   1.166  16.214  1.00  0.00     0.114 A 
HETATM    9  C9  UNL     1      -5.517   1.599  17.368  1.00  0.00     0.037 A 
HETATM   10  C10 UNL     1      -6.464   2.513  16.962  1.00  0.00     0.108 A 
HETATM   11  N2  UNL     1      -6.378   2.581  15.625  1.00  0.00    -0.308 N 
ATOM     12  H2  UNL     1      -6.964   3.182  15.045  1.00  0.00     0.186 HD
ENDBRANCH   6   7
BRANCH   1  13
HETATM   13  O1  UNL     1      -5.597   3.890  13.238  1.00  0.00    -0.351 OA
BRANCH  13  14
HETATM   14  C2  UNL     1      -5.133   5.150  13.583  1.00  0.00     0.125 C 
HETATM   15  C1  UNL     1      -4.244   5.366  14.527  1.00  0.00     0.037 C 
ENDBRANCH  13  14
ENDBRANCH   1  13
BRANCH   2  16
HETATM   16  O2  UNL     1      -5.704   1.927  11.176  1.00  0.00    -0.390 OA
ATOM     17  H2  UNL     1      -5.516   1.086  10.775  1.00  0.00     0.210 HD
ENDBRANCH   2  16
BRANCH   3  18
HETATM   18  O3  UNL     1      -3.167   1.065  10.236  1.00  0.00    -0.391 OA
ATOM     19  H3  UNL     1      -2.470   1.584   9.852  1.00  0.00     0.210 HD
ENDBRANCH   3  18
TORSDOF 5
ENDMDL
MODEL 4
REMARK VINA RESULT: -5.845110351      2.009      4.044
REMARK  5 active torsions:
REMARK  status: ('A' for Active; 'I' for Inactive)
REMARK    1  A    between atoms: C2_2  and  O1_3 
REMARK    2  A    between atoms: O1_3  and  C3_4 
REMARK    3  A    between atoms: C4_5  and  O2_6 
REMARK    4  A    between atoms: C5_8  and  O3_9 
REMARK    5  A    between atoms: C7_13  and  N1_14 
ROOT
HETATM    1  C3  UNL     1      -4.742   2.509  13.615  1.00  0.00     0.209 C 
HETATM    2  C4  UNL     1      -3.822   3.469  12.867  1.00  0.00     0.182 C 
HETATM    3  C5  UNL     1      -4.484   4.837  12.960  1.00  0.00     0.173 C 
HETATM    4  C6  UNL     1      -4.601   5.173  14.433  1.00  0.00     0.205 C 
HETATM    5  O4  UNL     1      -5.473   4.241  15.001  1.00  0.00    -0.360 OA
HETATM    6  C7  UNL     1      -4.787   3.007  15.030  1.00  0.00     0.275 C 
ENDROOT
BRANCH   6   7
HETATM    7  N1  UNL     1      -5.434   2.099  15.929  1.00  0.00    -0.272 N 
HETATM    8  C8  UNL     1      -6.668   2.238  16.439  1.00  0.00     0.114 A 
HETATM    9  C9  UNL     1      -6.956   1.173  17.265  1.00  0.00     0.037 A 
HETATM   10  C10 UNL     1      -5.837   0.371  17.238  1.00  0.00     0.108 A 
HETATM   11  N2  UNL     1      -4.957   0.974  16.424  1.00  0.00    -0.308 N 
ATOM     12  H2  UNL     1      -4.029   0.605  16.213  1.00  0.00     0.186 HD
ENDBRANCH   6   7
BRANCH   1  13
HETATM   13  O1  UNL     1      -4.212   1.202  13.513  1.00  0.00    -0.351 OA
BRANCH  13  14
HETATM   14  C2  UNL     1      -4.325   0.553  12.294  1.00  0.00     0.125 C 
HETATM   15  C1  UNL     1      -4.092  -0.730  12.127  1.00  0.00     0.037 C 
ENDBRANCH  13  14
ENDBRANCH   1  13
BRANCH   2  16
HETATM   16  O2  UNL     1      -2.604   3.554  13.530  1.00  0.00    -0.390 OA
ATOM     17  H2  UNL     1      -2.148   4.341  13.255  1.00  0.00     0.210 HD
ENDBRANCH   2  16
BRANCH   3  18
HETATM   18  O3  UNL     1      -3.789   5.802  12.265  1.00  0.00    -0.391 OA
ATOM     19  H3  UNL     1      -3.668   5.571  11.351  1.00  0.00     0.210 HD
ENDBRANCH   3  18
TORSDOF 5
ENDMDL
MODEL 5
REMARK VINA RESULT: -5.825376850      1.568      2.906
REMARK  5 active torsions:
REMARK  status: ('A' for Active; 'I' for Inactive)
REMARK    1  A    between atoms: C2_2  and  O1_3 
REMARK    2  A    between atoms: O1_3  and  C3_4 
REMARK    3  A    between atoms: C4_5  and  O2_6 
REMARK    4  A    between atoms: C5_8  and  O3_9 
REMARK    5  A    between atoms: C7_13  and  N1_14 
ROOT
HETATM    1  C3  UNL     1      -4.544   1.252  13.255  1.00  0.00     0.209 C 
HETATM    2  C4  UNL     1      -3.767   0.461  12.208  1.00  0.00     0.182 C 
HETATM    3  C5  UNL     1      -4.561   0.592  10.915  1.00  0.00     0.173 C 
HETATM    4  C6  UNL     1      -4.636   2.070  10.589  1.00  0.00     0.205 C 
HETATM    5  O4  UNL     1      -5.376   2.679  11.605  1.00  0.00    -0.360 OA
HETATM    6  C7  UNL     1      -4.566   2.670  12.762  1.00  0.00     0.275 C 
ENDROOT
BRANCH   6   7
HETATM    7  N1  UNL     1      -5.069   3.598  13.730  1.00  0.00    -0.272 N 
HETATM    8  C8  UNL     1      -4.434   4.691  14.179  1.00  0.00     0.114 A 
HETATM    9  C9  UNL     1      -5.221   5.344  15.103  1.00  0.00     0.037 A 
HETATM   10  C10 UNL     1      -6.373   4.597  15.199  1.00  0.00     0.108 A 
HETATM   11  N2  UNL     1      -6.229   3.563  14.356  1.00  0.00    -0.308 N 
ATOM     12  H2  UNL     1      -6.931   2.837  14.217  1.00  0.00     0.186 HD
ENDBRANCH   6   7
BRANCH   1  13
HETATM   13  O1  UNL     1      -3.887   1.120  14.501  1.00  0.00    -0.351 OA
BRANCH  13  14
HETATM   14  C2  UNL     1      -4.578   0.502  15.532  1.00  0.00     0.125 C 
HETATM   15  C1  UNL     1      -4.983   1.125  16.615  1.00  0.00     0.037 C 
ENDBRANCH  13  14
ENDBRANCH   1  13
BRANCH   2  16
HETATM   16  O2  UNL     1      -2.531   1.060  11.996  1.00  0.00    -0.390 OA
ATOM     17  H2  UNL     1      -2.203   0.814  11.140  1.00  0.00     0.210 HD
ENDBRANCH   2  16
BRANCH   3  18
HETATM   18  O3  UNL     1      -4.006  -0.135   9.885  1.00  0.00    -0.391 OA
ATOM     19  H3  UNL     1      -4.665  -0.503   9.308  1.00  0.00     0.210 HD
ENDBRANCH   3  18
TORSDOF 5
ENDMDL
