MODEL 1
REMARK VINA RESULT: -8.968458136      0.000      0.000
REMARK  13 active torsions:
REMARK  status: ('A' for Active; 'I' for Inactive)
REMARK    1  A    between atoms: C3_9  and  C4_10 
REMARK       I    between atoms: C4_10  and  N3_12 
REMARK    2  A    between atoms: N3_12  and  C5_14 
REMARK    3  A    between atoms: C6_15  and  O2_16 
REMARK    4  A    between atoms: C7_18  and  C8_19 
REMARK    5  A    between atoms: C8_19  and  O3_20 
REMARK    6  A    between atoms: C8_19  and  O4_22 
REMARK    7  A    between atoms: N5_26  and  C9_27 
REMARK    8  A    between atoms: C9_27  and  C10_28 
REMARK    9  A    between atoms: C10_28  and  C11_29 
REMARK   10  A    between atoms: C10_28  and  N6_34 
REMARK   11  A    between atoms: C11_29  and  O5_30 
REMARK   12  A    between atoms: C11_29  and  O6_32 
REMARK   13  A    between atoms: C14_40  and  O9_41 
ROOT
HETATM    1  C5  UNL     1      18.917  48.474 -10.744  1.00  0.00     0.141 A 
HETATM    2  C6  UNL     1      19.967  49.348 -10.920  1.00  0.00     0.127 A 
HETATM    3  C7  UNL     1      19.647  50.655 -11.250  1.00  0.00     0.116 A 
HETATM    4  N4  UNL     1      18.352  50.999 -11.379  1.00  0.00    -0.292 N 
ATOM      5  H4  UNL     1      18.138  51.967 -11.622  1.00  0.00     0.187 HD
HETATM    6  N5  UNL     1      17.341  50.170 -11.211  1.00  0.00    -0.253 N 
HETATM    7  C15 UNL     1      17.619  48.894 -10.891  1.00  0.00     0.291 A 
HETATM    8  O10 UNL     1      16.706  48.037 -10.714  1.00  0.00    -0.264 OA
ENDROOT
BRANCH   6   9
HETATM    9  C9  UNL     1      15.999  50.628 -11.349  1.00  0.00     0.185 C 
BRANCH   9  10
HETATM   10  C10 UNL     1      15.515  51.662 -10.424  1.00  0.00     0.192 C 
BRANCH  10  11
HETATM   11  C11 UNL     1      15.914  53.079 -10.716  1.00  0.00     0.280 C 
BRANCH  11  12
HETATM   12  O5  UNL     1      16.069  53.411 -12.029  1.00  0.00    -0.369 OA
ATOM     13  H5  UNL     1      16.810  53.966 -12.242  1.00  0.00     0.212 HD
ENDBRANCH  11  12
BRANCH  11  14
HETATM   14  O6  UNL     1      14.931  53.934 -10.162  1.00  0.00    -0.369 OA
ATOM     15  H6  UNL     1      14.097  53.726 -10.567  1.00  0.00     0.212 HD
ENDBRANCH  11  14
ENDBRANCH  10  11
BRANCH  10  16
HETATM   16  N6  UNL     1      15.961  51.372  -9.079  1.00  0.00    -0.214 N 
HETATM   17  O7  UNL     1      16.749  52.169  -8.383  1.00  0.00    -0.189 OA
HETATM   18  C12 UNL     1      17.008  51.700  -7.217  1.00  0.00     0.334 A 
HETATM   19  O8  UNL     1      17.729  52.236  -6.328  1.00  0.00    -0.256 OA
HETATM   20  C13 UNL     1      16.361  50.507  -7.096  1.00  0.00     0.175 A 
HETATM   21  N7  UNL     1      16.355  49.637  -5.990  1.00  0.00    -0.091 NA
HETATM   22  C14 UNL     1      15.698  50.329  -8.315  1.00  0.00     0.194 A 
BRANCH  22  23
HETATM   23  O9  UNL     1      14.932  49.192  -8.524  1.00  0.00    -0.343 OA
ATOM     24  H9  UNL     1      15.105  48.270  -8.373  1.00  0.00     0.219 HD
ENDBRANCH  22  23
ENDBRANCH  10  16
ENDBRANCH   9  10
ENDBRANCH   6   9
BRANCH   3  25
HETATM   25  C8  UNL     1      20.754  51.623 -11.446  1.00  0.00     0.309 C 
BRANCH  25  26
HETATM   26  O3  UNL     1      20.309  52.940 -11.384  1.00  0.00    -0.366 OA
ATOM     27  H3  UNL     1      19.845  53.119 -10.574  1.00  0.00     0.213 HD
ENDBRANCH  25  26
BRANCH  25  28
HETATM   28  O4  UNL     1      21.402  51.347 -12.648  1.00  0.00    -0.366 OA
ATOM     29  H4  UNL     1      22.057  52.015 -12.814  1.00  0.00     0.213 HD
ENDBRANCH  25  28
ENDBRANCH   3  25
BRANCH   1  30
HETATM   30  N3  UNL     1      19.258  47.117 -10.402  1.00  0.00    -0.316 N 
HETATM   31  C4  UNL     1      19.343  46.784  -9.063  1.00  0.00     0.261 C 
HETATM   32  O1  UNL     1      19.105  47.737  -8.249  1.00  0.00    -0.267 OA
ATOM     33  H3  UNL     1      19.432  46.422 -11.127  1.00  0.00     0.169 HD
BRANCH  31  34
HETATM   34  C3  UNL     1      19.678  45.453  -8.479  1.00  0.00     0.097 A 
HETATM   35  C1  UNL     1      18.854  44.845  -7.580  1.00  0.00     0.092 A 
HETATM   36  N1  UNL     1      17.705  45.321  -7.123  1.00  0.00    -0.392 N 
HETATM   37  S1  UNL     1      19.374  43.315  -6.995  1.00  0.00    -0.033 SA
ATOM     38  H12 UNL     1      17.088  44.866  -6.449  1.00  0.00     0.156 HD
ATOM     39  H11 UNL     1      17.396  46.230  -7.470  1.00  0.00     0.156 HD
HETATM   40  S2  UNL     1      21.103  43.290  -8.098  1.00  0.00    -0.035 SA
HETATM   41  C2  UNL     1      20.834  44.798  -8.833  1.00  0.00     0.112 A 
HETATM   42  N2  UNL     1      21.808  45.340  -9.788  1.00  0.00    -0.093 NA
ENDBRANCH  31  34
ENDBRANCH   1  30
BRANCH   2  43
HETATM   43  O2  UNL     1      21.308  48.949 -10.777  1.00  0.00    -0.356 OA
ATOM     44  H2  UNL     1      22.015  49.575 -10.672  1.00  0.00     0.218 HD
ENDBRANCH   2  43
TORSDOF 13
ENDMDL
MODEL 2
REMARK VINA RESULT: -8.696620956      2.964      4.571
REMARK  13 active torsions:
REMARK  status: ('A' for Active; 'I' for Inactive)
REMARK    1  A    between atoms: C3_9  and  C4_10 
REMARK       I    between atoms: C4_10  and  N3_12 
REMARK    2  A    between atoms: N3_12  and  C5_14 
REMARK    3  A    between atoms: C6_15  and  O2_16 
REMARK    4  A    between atoms: C7_18  and  C8_19 
REMARK    5  A    between atoms: C8_19  and  O3_20 
REMARK    6  A    between atoms: C8_19  and  O4_22 
REMARK    7  A    between atoms: N5_26  and  C9_27 
REMARK    8  A    between atoms: C9_27  and  C10_28 
REMARK    9  A    between atoms: C10_28  and  C11_29 
REMARK   10  A    between atoms: C10_28  and  N6_34 
REMARK   11  A    between atoms: C11_29  and  O5_30 
REMARK   12  A    between atoms: C11_29  and  O6_32 
REMARK   13  A    between atoms: C14_40  and  O9_41 
ROOT
HETATM    1  C5  UNL     1      17.067  49.852 -10.291  1.00  0.00     0.141 A 
HETATM    2  C6  UNL     1      18.400  49.588 -10.520  1.00  0.00     0.127 A 
HETATM    3  C7  UNL     1      19.107  50.525 -11.258  1.00  0.00     0.116 A 
HETATM    4  N4  UNL     1      18.469  51.623 -11.705  1.00  0.00    -0.292 N 
ATOM      5  H4  UNL     1      19.009  52.299 -12.246  1.00  0.00     0.187 HD
HETATM    6  N5  UNL     1      17.195  51.883 -11.490  1.00  0.00    -0.253 N 
HETATM    7  C15 UNL     1      16.481  50.994 -10.777  1.00  0.00     0.291 A 
HETATM    8  O10 UNL     1      15.254  51.170 -10.528  1.00  0.00    -0.264 OA
ENDROOT
BRANCH   6   9
HETATM    9  C9  UNL     1      16.608  53.083 -11.986  1.00  0.00     0.185 C 
BRANCH   9  10
HETATM   10  C10 UNL     1      16.287  54.151 -11.030  1.00  0.00     0.192 C 
BRANCH  10  11
HETATM   11  C11 UNL     1      14.982  54.868 -11.221  1.00  0.00     0.280 C 
BRANCH  11  12
HETATM   12  O5  UNL     1      14.245  54.512 -12.310  1.00  0.00    -0.369 OA
ATOM     13  H5  UNL     1      13.459  55.021 -12.476  1.00  0.00     0.212 HD
ENDBRANCH  11  12
BRANCH  11  14
HETATM   14  O6  UNL     1      14.190  54.653 -10.067  1.00  0.00    -0.369 OA
ATOM     15  H6  UNL     1      14.176  55.459  -9.565  1.00  0.00     0.212 HD
ENDBRANCH  11  14
ENDBRANCH  10  11
BRANCH  10  16
HETATM   16  N6  UNL     1      17.323  55.161 -11.049  1.00  0.00    -0.214 N 
HETATM   17  O7  UNL     1      17.100  56.432 -11.323  1.00  0.00    -0.189 OA
HETATM   18  C12 UNL     1      18.173  57.135 -11.279  1.00  0.00     0.334 A 
HETATM   19  O8  UNL     1      18.274  58.376 -11.494  1.00  0.00    -0.256 OA
HETATM   20  C13 UNL     1      19.202  56.303 -10.954  1.00  0.00     0.175 A 
HETATM   21  N7  UNL     1      20.560  56.632 -10.791  1.00  0.00    -0.091 NA
HETATM   22  C14 UNL     1      18.616  55.040 -10.813  1.00  0.00     0.194 A 
BRANCH  22  23
HETATM   23  O9  UNL     1      19.403  53.948 -10.478  1.00  0.00    -0.343 OA
ATOM     24  H9  UNL     1      20.340  53.850 -10.356  1.00  0.00     0.219 HD
ENDBRANCH  22  23
ENDBRANCH  10  16
ENDBRANCH   9  10
ENDBRANCH   6   9
BRANCH   3  25
HETATM   25  C8  UNL     1      20.544  50.272 -11.523  1.00  0.00     0.309 C 
BRANCH  25  26
HETATM   26  O3  UNL     1      21.297  50.290 -10.352  1.00  0.00    -0.366 OA
ATOM     27  H3  UNL     1      20.876  50.798  -9.668  1.00  0.00     0.213 HD
ENDBRANCH  25  26
BRANCH  25  28
HETATM   28  O4  UNL     1      21.011  51.190 -12.459  1.00  0.00    -0.366 OA
ATOM     29  H4  UNL     1      21.838  51.552 -12.161  1.00  0.00     0.213 HD
ENDBRANCH  25  28
ENDBRANCH   3  25
BRANCH   1  30
HETATM   30  N3  UNL     1      16.339  48.874  -9.524  1.00  0.00    -0.316 N 
HETATM   31  C4  UNL     1      16.531  48.844  -8.155  1.00  0.00     0.261 C 
HETATM   32  O1  UNL     1      17.354  49.708  -7.703  1.00  0.00    -0.267 OA
ATOM     33  H3  UNL     1      15.700  48.222  -9.979  1.00  0.00     0.169 HD
BRANCH  31  34
HETATM   34  C3  UNL     1      15.891  47.927  -7.169  1.00  0.00     0.097 A 
HETATM   35  C1  UNL     1      14.834  48.328  -6.408  1.00  0.00     0.092 A 
HETATM   36  N1  UNL     1      14.259  49.523  -6.434  1.00  0.00    -0.392 N 
HETATM   37  S1  UNL     1      14.203  47.161  -5.317  1.00  0.00    -0.033 SA
ATOM     38  H12 UNL     1      13.468  49.823  -5.863  1.00  0.00     0.156 HD
ATOM     39  H11 UNL     1      14.634  50.216  -7.082  1.00  0.00     0.156 HD
HETATM   40  S2  UNL     1      15.538  45.696  -5.846  1.00  0.00    -0.035 SA
HETATM   41  C2  UNL     1      16.350  46.642  -7.000  1.00  0.00     0.112 A 
HETATM   42  N2  UNL     1      17.479  46.083  -7.754  1.00  0.00    -0.093 NA
ENDBRANCH  31  34
ENDBRANCH   1  30
BRANCH   2  43
HETATM   43  O2  UNL     1      19.030  48.428 -10.036  1.00  0.00    -0.356 OA
ATOM     44  H2  UNL     1      18.581  47.592  -9.983  1.00  0.00     0.218 HD
ENDBRANCH   2  43
TORSDOF 13
ENDMDL
MODEL 3
REMARK VINA RESULT: -8.669792503      0.123      1.411
REMARK  13 active torsions:
REMARK  status: ('A' for Active; 'I' for Inactive)
REMARK    1  A    between atoms: C3_9  and  C4_10 
REMARK       I    between atoms: C4_10  and  N3_12 
REMARK    2  A    between atoms: N3_12  and  C5_14 
REMARK    3  A    between atoms: C6_15  and  O2_16 
REMARK    4  A    between atoms: C7_18  and  C8_19 
REMARK    5  A    between atoms: C8_19  and  O3_20 
REMARK    6  A    between atoms: C8_19  and  O4_22 
REMARK    7  A    between atoms: N5_26  and  C9_27 
REMARK    8  A    between atoms: C9_27  and  C10_28 
REMARK    9  A    between atoms: C10_28  and  C11_29 
REMARK   10  A    between atoms: C10_28  and  N6_34 
REMARK   11  A    between atoms: C11_29  and  O5_30 
REMARK   12  A    between atoms: C11_29  and  O6_32 
REMARK   13  A    between atoms: C14_40  and  O9_41 
ROOT
HETATM    1  C5  UNL     1      18.795  48.465 -10.781  1.00  0.00     0.141 A 
HETATM    2  C6  UNL     1      19.870  49.309 -10.965  1.00  0.00     0.127 A 
HETATM    3  C7  UNL     1      19.585  50.626 -11.286  1.00  0.00     0.116 A 
HETATM    4  N4  UNL     1      18.299  51.009 -11.398  1.00  0.00    -0.292 N 
ATOM      5  H4  UNL     1      18.112  51.984 -11.635  1.00  0.00     0.187 HD
HETATM    6  N5  UNL     1      17.266  50.209 -11.223  1.00  0.00    -0.253 N 
HETATM    7  C15 UNL     1      17.509  48.924 -10.911  1.00  0.00     0.291 A 
HETATM    8  O10 UNL     1      16.573  48.094 -10.728  1.00  0.00    -0.264 OA
ENDROOT
BRANCH   6   9
HETATM    9  C9  UNL     1      15.937  50.707 -11.344  1.00  0.00     0.185 C 
BRANCH   9  10
HETATM   10  C10 UNL     1      15.490  51.743 -10.402  1.00  0.00     0.192 C 
BRANCH  10  11
HETATM   11  C11 UNL     1      15.926  53.153 -10.681  1.00  0.00     0.280 C 
BRANCH  11  12
HETATM   12  O5  UNL     1      16.124  53.481 -11.990  1.00  0.00    -0.369 OA
ATOM     13  H5  UNL     1      15.779  54.319 -12.274  1.00  0.00     0.212 HD
ENDBRANCH  11  12
BRANCH  11  14
HETATM   14  O6  UNL     1      14.946  54.027 -10.154  1.00  0.00    -0.369 OA
ATOM     15  H6  UNL     1      15.390  54.695  -9.645  1.00  0.00     0.212 HD
ENDBRANCH  11  14
ENDBRANCH  10  11
BRANCH  10  16
HETATM   16  N6  UNL     1      15.941  51.426  -9.065  1.00  0.00    -0.214 N 
HETATM   17  O7  UNL     1      16.750  52.198  -8.364  1.00  0.00    -0.189 OA
HETATM   18  C12 UNL     1      17.009  51.707  -7.207  1.00  0.00     0.334 A 
HETATM   19  O8  UNL     1      17.747  52.216  -6.317  1.00  0.00    -0.256 OA
HETATM   20  C13 UNL     1      16.340  50.525  -7.097  1.00  0.00     0.175 A 
HETATM   21  N7  UNL     1      16.325  49.639  -6.004  1.00  0.00    -0.091 NA
HETATM   22  C14 UNL     1      15.663  50.377  -8.313  1.00  0.00     0.194 A 
BRANCH  22  23
HETATM   23  O9  UNL     1      14.874  49.258  -8.533  1.00  0.00    -0.343 OA
ATOM     24  H9  UNL     1      14.917  48.371  -8.195  1.00  0.00     0.219 HD
ENDBRANCH  22  23
ENDBRANCH  10  16
ENDBRANCH   9  10
ENDBRANCH   6   9
BRANCH   3  25
HETATM   25  C8  UNL     1      20.718  51.561 -11.490  1.00  0.00     0.309 C 
BRANCH  25  26
HETATM   26  O3  UNL     1      20.325  52.890 -11.354  1.00  0.00    -0.366 OA
ATOM     27  H3  UNL     1      20.585  53.414 -12.102  1.00  0.00     0.213 HD
ENDBRANCH  25  26
BRANCH  25  28
HETATM   28  O4  UNL     1      21.304  51.315 -12.729  1.00  0.00    -0.366 OA
ATOM     29  H4  UNL     1      20.810  51.763 -13.407  1.00  0.00     0.213 HD
ENDBRANCH  25  28
ENDBRANCH   3  25
BRANCH   1  30
HETATM   30  N3  UNL     1      19.100  47.097 -10.449  1.00  0.00    -0.316 N 
HETATM   31  C4  UNL     1      19.440  46.803  -9.142  1.00  0.00     0.261 C 
HETATM   32  O1  UNL     1      19.449  47.800  -8.345  1.00  0.00    -0.267 OA
ATOM     33  H3  UNL     1      19.066  46.366 -11.159  1.00  0.00     0.169 HD
BRANCH  31  34
HETATM   34  C3  UNL     1      19.791  45.470  -8.573  1.00  0.00     0.097 A 
HETATM   35  C1  UNL     1      20.955  44.842  -8.904  1.00  0.00     0.092 A 
HETATM   36  N1  UNL     1      21.886  45.300  -9.730  1.00  0.00    -0.392 N 
HETATM   37  S1  UNL     1      21.221  43.311  -8.169  1.00  0.00    -0.033 SA
ATOM     38  H12 UNL     1      22.756  44.829  -9.978  1.00  0.00     0.156 HD
ATOM     39  H11 UNL     1      21.727  46.208 -10.166  1.00  0.00     0.156 HD
HETATM   40  S2  UNL     1      19.460  43.319  -7.117  1.00  0.00    -0.035 SA
HETATM   41  C2  UNL     1      18.948  44.834  -7.694  1.00  0.00     0.112 A 
HETATM   42  N2  UNL     1      17.665  45.397  -7.255  1.00  0.00    -0.093 NA
ENDBRANCH  31  34
ENDBRANCH   1  30
BRANCH   2  43
HETATM   43  O2  UNL     1      21.200  48.869 -10.839  1.00  0.00    -0.356 OA
ATOM     44  H2  UNL     1      21.743  49.107 -10.097  1.00  0.00     0.218 HD
ENDBRANCH   2  43
TORSDOF 13
ENDMDL
MODEL 4
REMARK VINA RESULT: -8.485871487      2.977      5.205
REMARK  13 active torsions:
REMARK  status: ('A' for Active; 'I' for Inactive)
REMARK    1  A    between atoms: C3_9  and  C4_10 
REMARK       I    between atoms: C4_10  and  N3_12 
REMARK    2  A    between atoms: N3_12  and  C5_14 
REMARK    3  A    between atoms: C6_15  and  O2_16 
REMARK    4  A    between atoms: C7_18  and  C8_19 
REMARK    5  A    between atoms: C8_19  and  O3_20 
REMARK    6  A    between atoms: C8_19  and  O4_22 
REMARK    7  A    between atoms: N5_26  and  C9_27 
REMARK    8  A    between atoms: C9_27  and  C10_28 
REMARK    9  A    between atoms: C10_28  and  C11_29 
REMARK   10  A    between atoms: C10_28  and  N6_34 
REMARK   11  A    between atoms: C11_29  and  O5_30 
REMARK   12  A    between atoms: C11_29  and  O6_32 
REMARK   13  A    between atoms: C14_40  and  O9_41 
ROOT
HETATM    1  C5  UNL     1      20.459  45.529  -7.922  1.00  0.00     0.141 A 
HETATM    2  C6  UNL     1      21.056  45.112  -9.092  1.00  0.00     0.127 A 
HETATM    3  C7  UNL     1      20.626  45.713 -10.265  1.00  0.00     0.116 A 
HETATM    4  N4  UNL     1      19.666  46.655 -10.204  1.00  0.00    -0.292 N 
ATOM      5  H4  UNL     1      19.365  47.084 -11.079  1.00  0.00     0.187 HD
HETATM    6  N5  UNL     1      19.091  47.060  -9.089  1.00  0.00    -0.253 N 
HETATM    7  C15 UNL     1      19.486  46.496  -7.934  1.00  0.00     0.291 A 
HETATM    8  O10 UNL     1      18.983  46.829  -6.823  1.00  0.00    -0.264 OA
ENDROOT
BRANCH   6   9
HETATM    9  C9  UNL     1      18.095  48.079  -9.118  1.00  0.00     0.185 C 
BRANCH   9  10
HETATM   10  C10 UNL     1      18.483  49.446  -8.745  1.00  0.00     0.192 C 
BRANCH  10  11
HETATM   11  C11 UNL     1      17.430  50.304  -8.106  1.00  0.00     0.280 C 
BRANCH  11  12
HETATM   12  O5  UNL     1      17.733  51.624  -7.946  1.00  0.00    -0.369 OA
ATOM     13  H5  UNL     1      17.536  52.006  -7.099  1.00  0.00     0.212 HD
ENDBRANCH  11  12
BRANCH  11  14
HETATM   14  O6  UNL     1      16.256  50.217  -8.892  1.00  0.00    -0.369 OA
ATOM     15  H6  UNL     1      15.719  50.977  -8.704  1.00  0.00     0.212 HD
ENDBRANCH  11  14
ENDBRANCH  10  11
BRANCH  10  16
HETATM   16  N6  UNL     1      18.953  50.164  -9.910  1.00  0.00    -0.214 N 
HETATM   17  O7  UNL     1      18.184  50.939 -10.651  1.00  0.00    -0.189 OA
HETATM   18  C12 UNL     1      18.824  51.468 -11.629  1.00  0.00     0.334 A 
HETATM   19  O8  UNL     1      18.358  52.252 -12.503  1.00  0.00    -0.256 OA
HETATM   20  C13 UNL     1      20.115  51.035 -11.563  1.00  0.00     0.175 A 
HETATM   21  N7  UNL     1      21.178  51.355 -12.428  1.00  0.00    -0.091 NA
HETATM   22  C14 UNL     1      20.160  50.197 -10.444  1.00  0.00     0.194 A 
BRANCH  22  23
HETATM   23  O9  UNL     1      21.351  49.582 -10.089  1.00  0.00    -0.343 OA
ATOM     24  H9  UNL     1      21.883  48.925 -10.523  1.00  0.00     0.219 HD
ENDBRANCH  22  23
ENDBRANCH  10  16
ENDBRANCH   9  10
ENDBRANCH   6   9
BRANCH   3  25
HETATM   25  C8  UNL     1      21.248  45.287 -11.542  1.00  0.00     0.309 C 
BRANCH  25  26
HETATM   26  O3  UNL     1      21.013  46.204 -12.563  1.00  0.00    -0.366 OA
ATOM     27  H3  UNL     1      20.087  46.395 -12.661  1.00  0.00     0.213 HD
ENDBRANCH  25  26
BRANCH  25  28
HETATM   28  O4  UNL     1      20.800  44.011 -11.873  1.00  0.00    -0.366 OA
ATOM     29  H4  UNL     1      20.064  44.079 -12.470  1.00  0.00     0.213 HD
ENDBRANCH  25  28
ENDBRANCH   3  25
BRANCH   1  30
HETATM   30  N3  UNL     1      20.911  44.899  -6.708  1.00  0.00    -0.316 N 
HETATM   31  C4  UNL     1      20.469  43.619  -6.434  1.00  0.00     0.261 C 
HETATM   32  O1  UNL     1      19.686  43.115  -7.307  1.00  0.00    -0.267 OA
ATOM     33  H3  UNL     1      21.540  45.385  -6.069  1.00  0.00     0.169 HD
BRANCH  31  34
HETATM   34  C3  UNL     1      20.803  42.778  -5.248  1.00  0.00     0.097 A 
HETATM   35  C1  UNL     1      21.687  41.745  -5.337  1.00  0.00     0.092 A 
HETATM   36  N1  UNL     1      22.339  41.362  -6.427  1.00  0.00    -0.392 N 
HETATM   37  S1  UNL     1      21.971  40.867  -3.887  1.00  0.00    -0.033 SA
ATOM     38  H12 UNL     1      23.000  40.589  -6.493  1.00  0.00     0.156 HD
ATOM     39  H11 UNL     1      22.170  41.883  -7.288  1.00  0.00     0.156 HD
HETATM   40  S2  UNL     1      20.687  41.995  -2.753  1.00  0.00    -0.035 SA
HETATM   41  C2  UNL     1      20.226  43.023  -4.025  1.00  0.00     0.112 A 
HETATM   42  N2  UNL     1      19.258  44.102  -3.791  1.00  0.00    -0.093 NA
ENDBRANCH  31  34
ENDBRANCH   1  30
BRANCH   2  43
HETATM   43  O2  UNL     1      22.056  44.123  -9.114  1.00  0.00    -0.356 OA
ATOM     44  H2  UNL     1      22.909  44.274  -9.502  1.00  0.00     0.218 HD
ENDBRANCH   2  43
TORSDOF 13
ENDMDL
MODEL 5
REMARK VINA RESULT: -8.475682868      2.925      5.081
REMARK  13 active torsions:
REMARK  status: ('A' for Active; 'I' for Inactive)
REMARK    1  A    between atoms: C3_9  and  C4_10 
REMARK       I    between atoms: C4_10  and  N3_12 
REMARK    2  A    between atoms: N3_12  and  C5_14 
REMARK    3  A    between atoms: C6_15  and  O2_16 
REMARK    4  A    between atoms: C7_18  and  C8_19 
REMARK    5  A    between atoms: C8_19  and  O3_20 
REMARK    6  A    between atoms: C8_19  and  O4_22 
REMARK    7  A    between atoms: N5_26  and  C9_27 
REMARK    8  A    between atoms: C9_27  and  C10_28 
REMARK    9  A    between atoms: C10_28  and  C11_29 
REMARK   10  A    between atoms: C10_28  and  N6_34 
REMARK   11  A    between atoms: C11_29  and  O5_30 
REMARK   12  A    between atoms: C11_29  and  O6_32 
REMARK   13  A    between atoms: C14_40  and  O9_41 
ROOT
HETATM    1  C5  UNL     1      19.717  45.079  -8.242  1.00  0.00     0.141 A 
HETATM    2  C6  UNL     1      20.570  44.729  -9.267  1.00  0.00     0.127 A 
HETATM    3  C7  UNL     1      20.528  45.508 -10.411  1.00  0.00     0.116 A 
HETATM    4  N4  UNL     1      19.675  46.548 -10.464  1.00  0.00    -0.292 N 
ATOM      5  H4  UNL     1      19.660  47.109 -11.317  1.00  0.00     0.187 HD
HETATM    6  N5  UNL     1      18.856  46.890  -9.489  1.00  0.00    -0.253 N 
HETATM    7  C15 UNL     1      18.873  46.154  -8.365  1.00  0.00     0.291 A 
HETATM    8  O10 UNL     1      18.118  46.416  -7.384  1.00  0.00    -0.264 OA
ENDROOT
BRANCH   6   9
HETATM    9  C9  UNL     1      18.000  48.020  -9.626  1.00  0.00     0.185 C 
BRANCH   9  10
HETATM   10  C10 UNL     1      18.459  49.314  -9.101  1.00  0.00     0.192 C 
BRANCH  10  11
HETATM   11  C11 UNL     1      17.448  50.154  -8.376  1.00  0.00     0.280 C 
BRANCH  11  12
HETATM   12  O5  UNL     1      17.822  51.428  -8.069  1.00  0.00    -0.369 OA
ATOM     13  H5  UNL     1      17.394  51.828  -7.322  1.00  0.00     0.212 HD
ENDBRANCH  11  12
BRANCH  11  14
HETATM   14  O6  UNL     1      16.280  50.221  -9.173  1.00  0.00    -0.369 OA
ATOM     15  H6  UNL     1      15.901  51.086  -9.069  1.00  0.00     0.212 HD
ENDBRANCH  11  14
ENDBRANCH  10  11
BRANCH  10  16
HETATM   16  N6  UNL     1      18.981  50.128 -10.177  1.00  0.00    -0.214 N 
HETATM   17  O7  UNL     1      18.279  51.056 -10.799  1.00  0.00    -0.189 OA
HETATM   18  C12 UNL     1      18.956  51.645 -11.716  1.00  0.00     0.334 A 
HETATM   19  O8  UNL     1      18.554  52.572 -12.476  1.00  0.00    -0.256 OA
HETATM   20  C13 UNL     1      20.202  51.095 -11.732  1.00  0.00     0.175 A 
HETATM   21  N7  UNL     1      21.282  51.427 -12.570  1.00  0.00    -0.091 NA
HETATM   22  C14 UNL     1      20.181  50.122 -10.726  1.00  0.00     0.194 A 
BRANCH  22  23
HETATM   23  O9  UNL     1      21.315  49.364 -10.476  1.00  0.00    -0.343 OA
ATOM     24  H9  UNL     1      21.781  48.721 -10.999  1.00  0.00     0.219 HD
ENDBRANCH  22  23
ENDBRANCH  10  16
ENDBRANCH   9  10
ENDBRANCH   6   9
BRANCH   3  25
HETATM   25  C8  UNL     1      21.433  45.159 -11.534  1.00  0.00     0.309 C 
BRANCH  25  26
HETATM   26  O3  UNL     1      21.405  46.120 -12.540  1.00  0.00    -0.366 OA
ATOM     27  H3  UNL     1      22.205  46.120 -13.052  1.00  0.00     0.213 HD
ENDBRANCH  25  26
BRANCH  25  28
HETATM   28  O4  UNL     1      21.110  43.892 -12.012  1.00  0.00    -0.366 OA
ATOM     29  H4  UNL     1      21.693  43.250 -11.625  1.00  0.00     0.213 HD
ENDBRANCH  25  28
ENDBRANCH   3  25
BRANCH   1  30
HETATM   30  N3  UNL     1      19.766  44.263  -7.056  1.00  0.00    -0.316 N 
HETATM   31  C4  UNL     1      20.581  44.671  -6.017  1.00  0.00     0.261 C 
HETATM   32  O1  UNL     1      21.222  45.756  -6.222  1.00  0.00    -0.267 OA
ATOM     33  H3  UNL     1      19.214  43.408  -6.985  1.00  0.00     0.169 HD
BRANCH  31  34
HETATM   34  C3  UNL     1      20.788  43.992  -4.706  1.00  0.00     0.097 A 
HETATM   35  C1  UNL     1      20.748  44.685  -3.533  1.00  0.00     0.092 A 
HETATM   36  N1  UNL     1      20.532  45.986  -3.398  1.00  0.00    -0.392 N 
HETATM   37  S1  UNL     1      21.005  43.766  -2.104  1.00  0.00    -0.033 SA
ATOM     38  H12 UNL     1      20.502  46.505  -2.521  1.00  0.00     0.156 HD
ATOM     39  H11 UNL     1      20.379  46.532  -4.247  1.00  0.00     0.156 HD
HETATM   40  S2  UNL     1      21.247  41.983  -3.090  1.00  0.00    -0.035 SA
HETATM   41  C2  UNL     1      21.027  42.640  -4.642  1.00  0.00     0.112 A 
HETATM   42  N2  UNL     1      21.096  41.775  -5.827  1.00  0.00    -0.093 NA
ENDBRANCH  31  34
ENDBRANCH   1  30
BRANCH   2  43
HETATM   43  O2  UNL     1      21.447  43.634  -9.172  1.00  0.00    -0.356 OA
ATOM     44  H2  UNL     1      21.217  42.771  -9.496  1.00  0.00     0.218 HD
ENDBRANCH   2  43
TORSDOF 13
ENDMDL
