MODEL 1
REMARK VINA RESULT: -8.515991256      0.000      0.000
REMARK  18 active torsions:
REMARK  status: ('A' for Active; 'I' for Inactive)
REMARK    1  A    between atoms: O1_2  and  N1_3 
REMARK    2  A    between atoms: C2_4  and  C3_5 
REMARK    3  A    between atoms: C3_5  and  C4_6 
REMARK    4  A    between atoms: C4_6  and  O2_7 
REMARK    5  A    between atoms: C4_6  and  O3_9 
REMARK    6  A    between atoms: C5_11  and  O4_12 
REMARK    7  A    between atoms: N2_14  and  C6_15 
REMARK    8  A    between atoms: C6_15  and  O5_16 
REMARK    9  A    between atoms: C6_15  and  C7_18 
REMARK   10  A    between atoms: C7_18  and  O6_19 
REMARK   11  A    between atoms: O6_19  and  C8_20 
REMARK   12  A    between atoms: C8_20  and  N4_24 
REMARK   13  A    between atoms: N4_24  and  S1_26 
REMARK   14  A    between atoms: S1_26  and  N5_27 
REMARK   15  A    between atoms: C11_31  and  O8_32 
REMARK   16  A    between atoms: C12_34  and  O9_35 
REMARK   17  A    between atoms: C13_37  and  O10_38 
REMARK   18  A    between atoms: C14_40  and  O11_41 
ROOT
HETATM    1  C8  UNL     1      21.060  46.836  -8.630  1.00  0.00     0.224 C 
HETATM    2  N3  UNL     1      21.108  47.066  -7.338  1.00  0.00    -0.365 N 
ATOM      3  H31 UNL     1      20.751  46.304  -6.761  1.00  0.00     0.159 HD
ATOM      4  H32 UNL     1      21.479  47.949  -6.987  1.00  0.00     0.159 HD
ENDROOT
BRANCH   1   5
HETATM    5  O6  UNL     1      21.545  47.870  -9.412  1.00  0.00    -0.318 OA
BRANCH   5   6
HETATM    6  C7  UNL     1      20.769  49.075  -9.594  1.00  0.00     0.233 C 
BRANCH   6   7
HETATM    7  C6  UNL     1      20.305  49.086 -11.021  1.00  0.00     0.256 C 
BRANCH   7   8
HETATM    8  N2  UNL     1      19.486  50.225 -11.274  1.00  0.00    -0.246 N 
HETATM    9  C5  UNL     1      18.181  50.328 -11.045  1.00  0.00     0.174 A 
HETATM   10  C2  UNL     1      17.797  51.591 -11.448  1.00  0.00     0.101 A 
HETATM   11  N1  UNL     1      18.905  52.194 -11.906  1.00  0.00    -0.170 N 
HETATM   12  C17 UNL     1      19.956  51.390 -11.813  1.00  0.00     0.357 A 
HETATM   13  O13 UNL     1      21.157  51.579 -12.132  1.00  0.00    -0.244 OA
BRANCH   9  14
HETATM   14  O4  UNL     1      17.318  49.380 -10.508  1.00  0.00    -0.344 OA
ATOM     15  H4  UNL     1      17.250  49.180  -9.581  1.00  0.00     0.219 HD
ENDBRANCH   9  14
BRANCH  10  16
HETATM   16  C3  UNL     1      16.441  52.186 -11.398  1.00  0.00     0.124 C 
BRANCH  16  17
HETATM   17  C4  UNL     1      16.130  52.617  -9.962  1.00  0.00     0.259 C 
BRANCH  17  18
HETATM   18  O2  UNL     1      15.532  51.546  -9.299  1.00  0.00    -0.371 OA
ATOM     19  H2  UNL     1      16.211  50.931  -9.046  1.00  0.00     0.212 HD
ENDBRANCH  17  18
BRANCH  17  20
HETATM   20  O3  UNL     1      15.219  53.686 -10.044  1.00  0.00    -0.371 OA
ATOM     21  H3  UNL     1      14.420  53.340 -10.425  1.00  0.00     0.212 HD
ENDBRANCH  17  20
ENDBRANCH  16  17
ENDBRANCH  10  16
BRANCH  11  22
HETATM   22  O1  UNL     1      18.957  53.474 -12.404  1.00  0.00    -0.274 OA
HETATM   23  C1  UNL     1      19.034  54.546 -11.473  1.00  0.00     0.238 C 
ENDBRANCH  11  22
ENDBRANCH   7   8
BRANCH   7  24
HETATM   24  O5  UNL     1      19.575  47.928 -11.328  1.00  0.00    -0.374 OA
ATOM     25  H5  UNL     1      20.153  47.176 -11.266  1.00  0.00     0.212 HD
ENDBRANCH   7  24
ENDBRANCH   6   7
ENDBRANCH   5   6
ENDBRANCH   1   5
BRANCH   1  26
HETATM   26  N4  UNL     1      20.545  45.612  -9.116  1.00  0.00    -0.278 N 
ATOM     27  H4  UNL     1      20.730  45.343 -10.082  1.00  0.00     0.179 HD
BRANCH  26  28
HETATM   28  S1  UNL     1      19.595  44.542  -8.095  1.00  0.00     0.083 SA
BRANCH  28  29
HETATM   29  N5  UNL     1      18.209  45.443  -7.457  1.00  0.00    -0.196 N 
HETATM   30  C9  UNL     1      17.564  45.198  -6.192  1.00  0.00     0.276 A 
HETATM   31  O7  UNL     1      17.952  44.295  -5.407  1.00  0.00    -0.266 OA
HETATM   32  C10 UNL     1      16.464  46.143  -6.040  1.00  0.00     0.088 A 
HETATM   33  C11 UNL     1      15.538  46.343  -5.036  1.00  0.00     0.118 A 
HETATM   34  C15 UNL     1      16.403  46.962  -7.159  1.00  0.00     0.088 A 
HETATM   35  C12 UNL     1      14.569  47.343  -5.146  1.00  0.00     0.136 A 
HETATM   36  C13 UNL     1      14.516  48.150  -6.258  1.00  0.00     0.136 A 
HETATM   37  C14 UNL     1      15.438  47.956  -7.266  1.00  0.00     0.118 A 
HETATM   38  C16 UNL     1      17.491  46.518  -8.030  1.00  0.00     0.276 A 
HETATM   39  O12 UNL     1      17.752  47.031  -9.148  1.00  0.00    -0.266 OA
BRANCH  33  40
HETATM   40  O8  UNL     1      15.566  45.553  -3.915  1.00  0.00    -0.357 OA
ATOM     41  H8  UNL     1      14.796  45.491  -3.361  1.00  0.00     0.217 HD
ENDBRANCH  33  40
BRANCH  35  42
HETATM   42  O9  UNL     1      13.637  47.531  -4.108  1.00  0.00    -0.356 OA
ATOM     43  H9  UNL     1      12.750  47.208  -4.207  1.00  0.00     0.218 HD
ENDBRANCH  35  42
BRANCH  36  44
HETATM   44  O10 UNL     1      13.535  49.144  -6.344  1.00  0.00    -0.356 OA
ATOM     45  H10 UNL     1      13.429  49.762  -5.629  1.00  0.00     0.218 HD
ENDBRANCH  36  44
BRANCH  37  46
HETATM   46  O11 UNL     1      15.397  48.750  -8.374  1.00  0.00    -0.357 OA
ATOM     47  H11 UNL     1      14.791  48.542  -9.075  1.00  0.00     0.217 HD
ENDBRANCH  37  46
ENDBRANCH  28  29
ENDBRANCH  26  28
ENDBRANCH   1  26
TORSDOF 18
ENDMDL
MODEL 2
REMARK VINA RESULT: -8.424609221      0.409      2.149
REMARK  18 active torsions:
REMARK  status: ('A' for Active; 'I' for Inactive)
REMARK    1  A    between atoms: O1_2  and  N1_3 
REMARK    2  A    between atoms: C2_4  and  C3_5 
REMARK    3  A    between atoms: C3_5  and  C4_6 
REMARK    4  A    between atoms: C4_6  and  O2_7 
REMARK    5  A    between atoms: C4_6  and  O3_9 
REMARK    6  A    between atoms: C5_11  and  O4_12 
REMARK    7  A    between atoms: N2_14  and  C6_15 
REMARK    8  A    between atoms: C6_15  and  O5_16 
REMARK    9  A    between atoms: C6_15  and  C7_18 
REMARK   10  A    between atoms: C7_18  and  O6_19 
REMARK   11  A    between atoms: O6_19  and  C8_20 
REMARK   12  A    between atoms: C8_20  and  N4_24 
REMARK   13  A    between atoms: N4_24  and  S1_26 
REMARK   14  A    between atoms: S1_26  and  N5_27 
REMARK   15  A    between atoms: C11_31  and  O8_32 
REMARK   16  A    between atoms: C12_34  and  O9_35 
REMARK   17  A    between atoms: C13_37  and  O10_38 
REMARK   18  A    between atoms: C14_40  and  O11_41 
ROOT
HETATM    1  C8  UNL     1      21.462  46.581  -9.174  1.00  0.00     0.224 C 
HETATM    2  N3  UNL     1      21.537  45.714 -10.158  1.00  0.00    -0.365 N 
ATOM      3  H31 UNL     1      21.314  44.755  -9.891  1.00  0.00     0.159 HD
ATOM      4  H32 UNL     1      21.802  46.021 -11.093  1.00  0.00     0.159 HD
ENDROOT
BRANCH   1   5
HETATM    5  O6  UNL     1      21.765  47.883  -9.536  1.00  0.00    -0.318 OA
BRANCH   5   6
HETATM    6  C7  UNL     1      20.722  48.880  -9.618  1.00  0.00     0.233 C 
BRANCH   6   7
HETATM    7  C6  UNL     1      20.311  48.966 -11.059  1.00  0.00     0.256 C 
BRANCH   7   8
HETATM    8  N2  UNL     1      19.503  50.119 -11.281  1.00  0.00    -0.246 N 
HETATM    9  C5  UNL     1      18.197  50.226 -11.060  1.00  0.00     0.174 A 
HETATM   10  C2  UNL     1      17.827  51.505 -11.425  1.00  0.00     0.101 A 
HETATM   11  N1  UNL     1      18.943  52.112 -11.855  1.00  0.00    -0.170 N 
HETATM   12  C17 UNL     1      19.987  51.296 -11.780  1.00  0.00     0.357 A 
HETATM   13  O13 UNL     1      21.192  51.485 -12.083  1.00  0.00    -0.244 OA
BRANCH   9  14
HETATM   14  O4  UNL     1      17.322  49.269 -10.559  1.00  0.00    -0.344 OA
ATOM     15  H4  UNL     1      16.599  49.457  -9.971  1.00  0.00     0.219 HD
ENDBRANCH   9  14
BRANCH  10  16
HETATM   16  C3  UNL     1      16.475  52.109 -11.367  1.00  0.00     0.124 C 
BRANCH  16  17
HETATM   17  C4  UNL     1      16.140  52.460  -9.915  1.00  0.00     0.259 C 
BRANCH  17  18
HETATM   18  O2  UNL     1      15.454  51.386  -9.348  1.00  0.00    -0.371 OA
ATOM     19  H2  UNL     1      15.967  50.597  -9.481  1.00  0.00     0.212 HD
ENDBRANCH  17  18
BRANCH  17  20
HETATM   20  O3  UNL     1      15.299  53.588  -9.950  1.00  0.00    -0.371 OA
ATOM     21  H3  UNL     1      15.594  54.173  -9.262  1.00  0.00     0.212 HD
ENDBRANCH  17  20
ENDBRANCH  16  17
ENDBRANCH  10  16
BRANCH  11  22
HETATM   22  O1  UNL     1      19.009  53.406 -12.313  1.00  0.00    -0.274 OA
HETATM   23  C1  UNL     1      19.169  54.443 -11.352  1.00  0.00     0.238 C 
ENDBRANCH  11  22
ENDBRANCH   7   8
BRANCH   7  24
HETATM   24  O5  UNL     1      19.590  47.828 -11.451  1.00  0.00    -0.374 OA
ATOM     25  H5  UNL     1      19.362  47.327 -10.676  1.00  0.00     0.212 HD
ENDBRANCH   7  24
ENDBRANCH   6   7
ENDBRANCH   5   6
ENDBRANCH   1   5
BRANCH   1  26
HETATM   26  N4  UNL     1      21.095  46.155  -7.877  1.00  0.00    -0.278 N 
ATOM     27  H4  UNL     1      21.545  46.582  -7.067  1.00  0.00     0.179 HD
BRANCH  26  28
HETATM   28  S1  UNL     1      19.883  44.908  -7.625  1.00  0.00     0.083 SA
BRANCH  28  29
HETATM   29  N5  UNL     1      18.389  45.669  -7.050  1.00  0.00    -0.196 N 
HETATM   30  C9  UNL     1      17.639  46.677  -7.756  1.00  0.00     0.276 A 
HETATM   31  O7  UNL     1      17.995  47.108  -8.883  1.00  0.00    -0.266 OA
HETATM   32  C10 UNL     1      16.485  47.049  -6.947  1.00  0.00     0.088 A 
HETATM   33  C11 UNL     1      15.459  47.950  -7.146  1.00  0.00     0.118 A 
HETATM   34  C15 UNL     1      16.491  46.314  -5.771  1.00  0.00     0.088 A 
HETATM   35  C12 UNL     1      14.455  48.114  -6.189  1.00  0.00     0.136 A 
HETATM   36  C13 UNL     1      14.468  47.380  -5.025  1.00  0.00     0.136 A 
HETATM   37  C14 UNL     1      15.492  46.477  -4.819  1.00  0.00     0.118 A 
HETATM   38  C16 UNL     1      17.677  45.460  -5.846  1.00  0.00     0.276 A 
HETATM   39  O12 UNL     1      18.018  44.645  -4.952  1.00  0.00    -0.266 OA
BRANCH  33  40
HETATM   40  O8  UNL     1      15.419  48.697  -8.297  1.00  0.00    -0.357 OA
ATOM     41  H8  UNL     1      14.713  48.567  -8.920  1.00  0.00     0.217 HD
ENDBRANCH  33  40
BRANCH  35  42
HETATM   42  O9  UNL     1      13.417  49.036  -6.414  1.00  0.00    -0.356 OA
ATOM     43  H9  UNL     1      12.788  48.880  -7.108  1.00  0.00     0.218 HD
ENDBRANCH  35  42
BRANCH  36  44
HETATM   44  O10 UNL     1      13.452  47.563  -4.081  1.00  0.00    -0.356 OA
ATOM     45  H10 UNL     1      13.659  47.946  -3.236  1.00  0.00     0.218 HD
ENDBRANCH  36  44
BRANCH  37  46
HETATM   46  O11 UNL     1      15.516  45.743  -3.671  1.00  0.00    -0.357 OA
ATOM     47  H11 UNL     1      15.772  44.829  -3.706  1.00  0.00     0.217 HD
ENDBRANCH  37  46
ENDBRANCH  28  29
ENDBRANCH  26  28
ENDBRANCH   1  26
TORSDOF 18
ENDMDL
MODEL 3
REMARK VINA RESULT: -8.339118061      2.743      3.014
REMARK  18 active torsions:
REMARK  status: ('A' for Active; 'I' for Inactive)
REMARK    1  A    between atoms: O1_2  and  N1_3 
REMARK    2  A    between atoms: C2_4  and  C3_5 
REMARK    3  A    between atoms: C3_5  and  C4_6 
REMARK    4  A    between atoms: C4_6  and  O2_7 
REMARK    5  A    between atoms: C4_6  and  O3_9 
REMARK    6  A    between atoms: C5_11  and  O4_12 
REMARK    7  A    between atoms: N2_14  and  C6_15 
REMARK    8  A    between atoms: C6_15  and  O5_16 
REMARK    9  A    between atoms: C6_15  and  C7_18 
REMARK   10  A    between atoms: C7_18  and  O6_19 
REMARK   11  A    between atoms: O6_19  and  C8_20 
REMARK   12  A    between atoms: C8_20  and  N4_24 
REMARK   13  A    between atoms: N4_24  and  S1_26 
REMARK   14  A    between atoms: S1_26  and  N5_27 
REMARK   15  A    between atoms: C11_31  and  O8_32 
REMARK   16  A    between atoms: C12_34  and  O9_35 
REMARK   17  A    between atoms: C13_37  and  O10_38 
REMARK   18  A    between atoms: C14_40  and  O11_41 
ROOT
HETATM    1  C8  UNL     1      20.146  47.260  -8.439  1.00  0.00     0.224 C 
HETATM    2  N3  UNL     1      20.663  47.008  -7.258  1.00  0.00    -0.365 N 
ATOM      3  H31 UNL     1      20.002  46.624  -6.582  1.00  0.00     0.159 HD
ATOM      4  H32 UNL     1      21.649  47.198  -7.078  1.00  0.00     0.159 HD
ENDROOT
BRANCH   1   5
HETATM    5  O6  UNL     1      21.044  47.781  -9.356  1.00  0.00    -0.318 OA
BRANCH   5   6
HETATM    6  C7  UNL     1      20.932  49.155  -9.788  1.00  0.00     0.233 C 
BRANCH   6   7
HETATM    7  C6  UNL     1      20.375  49.131 -11.182  1.00  0.00     0.256 C 
BRANCH   7   8
HETATM    8  N2  UNL     1      19.509  50.243 -11.395  1.00  0.00    -0.246 N 
HETATM    9  C5  UNL     1      18.196  50.275 -11.188  1.00  0.00     0.174 A 
HETATM   10  C2  UNL     1      17.762  51.539 -11.537  1.00  0.00     0.101 A 
HETATM   11  N1  UNL     1      18.849  52.213 -11.941  1.00  0.00    -0.170 N 
HETATM   12  C17 UNL     1      19.934  51.453 -11.867  1.00  0.00     0.357 A 
HETATM   13  O13 UNL     1      21.131  51.712 -12.151  1.00  0.00    -0.244 OA
BRANCH   9  14
HETATM   14  O4  UNL     1      17.368  49.263 -10.716  1.00  0.00    -0.344 OA
ATOM     15  H4  UNL     1      17.180  49.109  -9.798  1.00  0.00     0.219 HD
ENDBRANCH   9  14
BRANCH  10  16
HETATM   16  C3  UNL     1      16.379  52.068 -11.486  1.00  0.00     0.124 C 
BRANCH  16  17
HETATM   17  C4  UNL     1      16.127  52.694 -10.111  1.00  0.00     0.259 C 
BRANCH  17  18
HETATM   18  O2  UNL     1      15.679  51.696  -9.247  1.00  0.00    -0.371 OA
ATOM     19  H2  UNL     1      15.171  51.069  -9.749  1.00  0.00     0.212 HD
ENDBRANCH  17  18
BRANCH  17  20
HETATM   20  O3  UNL     1      15.116  53.658 -10.279  1.00  0.00    -0.371 OA
ATOM     21  H3  UNL     1      15.481  54.349 -10.820  1.00  0.00     0.212 HD
ENDBRANCH  17  20
ENDBRANCH  16  17
ENDBRANCH  10  16
BRANCH  11  22
HETATM   22  O1  UNL     1      18.851  53.517 -12.375  1.00  0.00    -0.274 OA
HETATM   23  C1  UNL     1      19.057  54.538 -11.407  1.00  0.00     0.238 C 
ENDBRANCH  11  22
ENDBRANCH   7   8
BRANCH   7  24
HETATM   24  O5  UNL     1      19.659  47.949 -11.424  1.00  0.00    -0.374 OA
ATOM     25  H5  UNL     1      20.133  47.221 -11.038  1.00  0.00     0.212 HD
ENDBRANCH   7  24
ENDBRANCH   6   7
ENDBRANCH   5   6
ENDBRANCH   1   5
BRANCH   1  26
HETATM   26  N4  UNL     1      18.779  46.998  -8.688  1.00  0.00    -0.278 N 
ATOM     27  H4  UNL     1      18.453  46.934  -9.652  1.00  0.00     0.179 HD
BRANCH  26  28
HETATM   28  S1  UNL     1      17.630  46.777  -7.377  1.00  0.00     0.083 SA
BRANCH  28  29
HETATM   29  N5  UNL     1      17.486  48.299  -6.480  1.00  0.00    -0.196 N 
HETATM   30  C9  UNL     1      17.255  48.416  -5.063  1.00  0.00     0.276 A 
HETATM   31  O7  UNL     1      17.138  47.407  -4.319  1.00  0.00    -0.266 OA
HETATM   32  C10 UNL     1      17.192  49.830  -4.716  1.00  0.00     0.088 A 
HETATM   33  C11 UNL     1      16.994  50.490  -3.520  1.00  0.00     0.118 A 
HETATM   34  C15 UNL     1      17.375  50.593  -5.861  1.00  0.00     0.088 A 
HETATM   35  C12 UNL     1      16.981  51.885  -3.467  1.00  0.00     0.136 A 
HETATM   36  C13 UNL     1      17.163  52.634  -4.606  1.00  0.00     0.136 A 
HETATM   37  C14 UNL     1      17.361  51.981  -5.806  1.00  0.00     0.118 A 
HETATM   38  C16 UNL     1      17.558  49.631  -6.949  1.00  0.00     0.276 A 
HETATM   39  O12 UNL     1      17.753  49.953  -8.149  1.00  0.00    -0.266 OA
BRANCH  33  40
HETATM   40  O8  UNL     1      16.808  49.770  -2.367  1.00  0.00    -0.357 OA
ATOM     41  H8  UNL     1      16.581  48.848  -2.416  1.00  0.00     0.217 HD
ENDBRANCH  33  40
BRANCH  35  42
HETATM   42  O9  UNL     1      16.780  52.536  -2.236  1.00  0.00    -0.356 OA
ATOM     43  H9  UNL     1      16.369  52.071  -1.517  1.00  0.00     0.218 HD
ENDBRANCH  35  42
BRANCH  36  44
HETATM   44  O10 UNL     1      17.144  54.030  -4.526  1.00  0.00    -0.356 OA
ATOM     45  H10 UNL     1      17.650  54.468  -3.851  1.00  0.00     0.218 HD
ENDBRANCH  36  44
BRANCH  37  46
HETATM   46  O11 UNL     1      17.545  52.711  -6.943  1.00  0.00    -0.357 OA
ATOM     47  H11 UNL     1      16.947  53.423  -7.143  1.00  0.00     0.217 HD
ENDBRANCH  37  46
ENDBRANCH  28  29
ENDBRANCH  26  28
ENDBRANCH   1  26
TORSDOF 18
ENDMDL
MODEL 4
REMARK VINA RESULT: -8.047104073      2.702      3.663
REMARK  18 active torsions:
REMARK  status: ('A' for Active; 'I' for Inactive)
REMARK    1  A    between atoms: O1_2  and  N1_3 
REMARK    2  A    between atoms: C2_4  and  C3_5 
REMARK    3  A    between atoms: C3_5  and  C4_6 
REMARK    4  A    between atoms: C4_6  and  O2_7 
REMARK    5  A    between atoms: C4_6  and  O3_9 
REMARK    6  A    between atoms: C5_11  and  O4_12 
REMARK    7  A    between atoms: N2_14  and  C6_15 
REMARK    8  A    between atoms: C6_15  and  O5_16 
REMARK    9  A    between atoms: C6_15  and  C7_18 
REMARK   10  A    between atoms: C7_18  and  O6_19 
REMARK   11  A    between atoms: O6_19  and  C8_20 
REMARK   12  A    between atoms: C8_20  and  N4_24 
REMARK   13  A    between atoms: N4_24  and  S1_26 
REMARK   14  A    between atoms: S1_26  and  N5_27 
REMARK   15  A    between atoms: C11_31  and  O8_32 
REMARK   16  A    between atoms: C12_34  and  O9_35 
REMARK   17  A    between atoms: C13_37  and  O10_38 
REMARK   18  A    between atoms: C14_40  and  O11_41 
ROOT
HETATM    1  C8  UNL     1      19.471  47.052  -8.306  1.00  0.00     0.224 C 
HETATM    2  N3  UNL     1      20.735  46.930  -7.971  1.00  0.00    -0.365 N 
ATOM      3  H31 UNL     1      20.918  46.216  -7.266  1.00  0.00     0.159 HD
ATOM      4  H32 UNL     1      21.441  47.524  -8.407  1.00  0.00     0.159 HD
ENDROOT
BRANCH   1   5
HETATM    5  O6  UNL     1      19.225  48.021  -9.264  1.00  0.00    -0.318 OA
BRANCH   5   6
HETATM    6  C7  UNL     1      20.179  49.082  -9.492  1.00  0.00     0.233 C 
BRANCH   6   7
HETATM    7  C6  UNL     1      20.217  49.324 -10.973  1.00  0.00     0.256 C 
BRANCH   7   8
HETATM    8  N2  UNL     1      19.398  50.437 -11.320  1.00  0.00    -0.246 N 
HETATM    9  C5  UNL     1      18.070  50.482 -11.293  1.00  0.00     0.174 A 
HETATM   10  C2  UNL     1      17.698  51.741 -11.719  1.00  0.00     0.101 A 
HETATM   11  N1  UNL     1      18.835  52.400 -11.986  1.00  0.00    -0.170 N 
HETATM   12  C17 UNL     1      19.894  51.635 -11.752  1.00  0.00     0.357 A 
HETATM   13  O13 UNL     1      21.120  51.881 -11.877  1.00  0.00    -0.244 OA
BRANCH   9  14
HETATM   14  O4  UNL     1      17.177  49.484 -10.919  1.00  0.00    -0.344 OA
ATOM     15  H4  UNL     1      17.300  48.559 -11.098  1.00  0.00     0.219 HD
ENDBRANCH   9  14
BRANCH  10  16
HETATM   16  C3  UNL     1      16.325  52.281 -11.864  1.00  0.00     0.124 C 
BRANCH  16  17
HETATM   17  C4  UNL     1      15.895  52.930 -10.546  1.00  0.00     0.259 C 
BRANCH  17  18
HETATM   18  O2  UNL     1      15.492  51.924  -9.669  1.00  0.00    -0.371 OA
ATOM     19  H2  UNL     1      15.691  52.200  -8.782  1.00  0.00     0.212 HD
ENDBRANCH  17  18
BRANCH  17  20
HETATM   20  O3  UNL     1      14.800  53.764 -10.839  1.00  0.00    -0.371 OA
ATOM     21  H3  UNL     1      15.121  54.448 -11.416  1.00  0.00     0.212 HD
ENDBRANCH  17  20
ENDBRANCH  16  17
ENDBRANCH  10  16
BRANCH  11  22
HETATM   22  O1  UNL     1      18.907  53.696 -12.439  1.00  0.00    -0.274 OA
HETATM   23  C1  UNL     1      18.970  54.735 -11.470  1.00  0.00     0.238 C 
ENDBRANCH  11  22
ENDBRANCH   7   8
BRANCH   7  24
HETATM   24  O5  UNL     1      19.775  48.198 -11.685  1.00  0.00    -0.374 OA
ATOM     25  H5  UNL     1      20.467  47.917 -12.272  1.00  0.00     0.212 HD
ENDBRANCH   7  24
ENDBRANCH   6   7
ENDBRANCH   5   6
ENDBRANCH   1   5
BRANCH   1  26
HETATM   26  N4  UNL     1      18.493  46.229  -7.701  1.00  0.00    -0.278 N 
ATOM     27  H4  UNL     1      18.756  45.297  -7.381  1.00  0.00     0.179 HD
BRANCH  26  28
HETATM   28  S1  UNL     1      16.836  46.774  -7.486  1.00  0.00     0.083 SA
BRANCH  28  29
HETATM   29  N5  UNL     1      16.843  48.253  -6.508  1.00  0.00    -0.196 N 
HETATM   30  C9  UNL     1      16.782  49.596  -7.025  1.00  0.00     0.276 A 
HETATM   31  O7  UNL     1      16.709  49.836  -8.258  1.00  0.00    -0.266 OA
HETATM   32  C10 UNL     1      16.819  50.528  -5.904  1.00  0.00     0.088 A 
HETATM   33  C11 UNL     1      16.788  51.906  -5.835  1.00  0.00     0.118 A 
HETATM   34  C15 UNL     1      16.901  49.815  -4.716  1.00  0.00     0.088 A 
HETATM   35  C12 UNL     1      16.836  52.561  -4.603  1.00  0.00     0.136 A 
HETATM   36  C13 UNL     1      16.917  51.847  -3.430  1.00  0.00     0.136 A 
HETATM   37  C14 UNL     1      16.949  50.469  -3.491  1.00  0.00     0.118 A 
HETATM   38  C16 UNL     1      16.914  48.404  -5.104  1.00  0.00     0.276 A 
HETATM   39  O12 UNL     1      16.981  47.449  -4.289  1.00  0.00    -0.266 OA
BRANCH  33  40
HETATM   40  O8  UNL     1      16.708  52.645  -6.988  1.00  0.00    -0.357 OA
ATOM     41  H8  UNL     1      17.434  52.643  -7.603  1.00  0.00     0.217 HD
ENDBRANCH  33  40
BRANCH  35  42
HETATM   42  O9  UNL     1      16.800  53.967  -4.556  1.00  0.00    -0.356 OA
ATOM     43  H9  UNL     1      16.747  54.411  -3.719  1.00  0.00     0.218 HD
ENDBRANCH  35  42
BRANCH  36  44
HETATM   44  O10 UNL     1      16.966  52.528  -2.209  1.00  0.00    -0.356 OA
ATOM     45  H10 UNL     1      16.238  52.454  -1.601  1.00  0.00     0.218 HD
ENDBRANCH  36  44
BRANCH  37  46
HETATM   46  O11 UNL     1      17.028  49.749  -2.336  1.00  0.00    -0.357 OA
ATOM     47  H11 UNL     1      17.848  49.329  -2.103  1.00  0.00     0.217 HD
ENDBRANCH  37  46
ENDBRANCH  28  29
ENDBRANCH  26  28
ENDBRANCH   1  26
TORSDOF 18
ENDMDL
MODEL 5
REMARK VINA RESULT: -8.010536848      2.404      6.079
REMARK  18 active torsions:
REMARK  status: ('A' for Active; 'I' for Inactive)
REMARK    1  A    between atoms: O1_2  and  N1_3 
REMARK    2  A    between atoms: C2_4  and  C3_5 
REMARK    3  A    between atoms: C3_5  and  C4_6 
REMARK    4  A    between atoms: C4_6  and  O2_7 
REMARK    5  A    between atoms: C4_6  and  O3_9 
REMARK    6  A    between atoms: C5_11  and  O4_12 
REMARK    7  A    between atoms: N2_14  and  C6_15 
REMARK    8  A    between atoms: C6_15  and  O5_16 
REMARK    9  A    between atoms: C6_15  and  C7_18 
REMARK   10  A    between atoms: C7_18  and  O6_19 
REMARK   11  A    between atoms: O6_19  and  C8_20 
REMARK   12  A    between atoms: C8_20  and  N4_24 
REMARK   13  A    between atoms: N4_24  and  S1_26 
REMARK   14  A    between atoms: S1_26  and  N5_27 
REMARK   15  A    between atoms: C11_31  and  O8_32 
REMARK   16  A    between atoms: C12_34  and  O9_35 
REMARK   17  A    between atoms: C13_37  and  O10_38 
REMARK   18  A    between atoms: C14_40  and  O11_41 
ROOT
HETATM    1  C8  UNL     1      16.857  48.498  -6.308  1.00  0.00     0.224 C 
HETATM    2  N3  UNL     1      15.751  48.754  -5.648  1.00  0.00    -0.365 N 
ATOM      3  H31 UNL     1      15.496  48.043  -4.962  1.00  0.00     0.159 HD
ATOM      4  H32 UNL     1      15.223  49.605  -5.841  1.00  0.00     0.159 HD
ENDROOT
BRANCH   1   5
HETATM    5  O6  UNL     1      17.202  49.464  -7.239  1.00  0.00    -0.318 OA
BRANCH   5   6
HETATM    6  C7  UNL     1      16.209  50.388  -7.736  1.00  0.00     0.233 C 
BRANCH   6   7
HETATM    7  C6  UNL     1      15.948  50.021  -9.168  1.00  0.00     0.256 C 
BRANCH   7   8
HETATM    8  N2  UNL     1      16.673  50.880 -10.045  1.00  0.00    -0.246 N 
HETATM    9  C5  UNL     1      17.727  50.550 -10.784  1.00  0.00     0.174 A 
HETATM   10  C2  UNL     1      18.116  51.686 -11.465  1.00  0.00     0.101 A 
HETATM   11  N1  UNL     1      17.267  52.656 -11.097  1.00  0.00    -0.170 N 
HETATM   12  C17 UNL     1      16.370  52.200 -10.232  1.00  0.00     0.357 A 
HETATM   13  O13 UNL     1      15.418  52.788  -9.659  1.00  0.00    -0.244 OA
BRANCH   9  14
HETATM   14  O4  UNL     1      18.359  49.316 -10.889  1.00  0.00    -0.344 OA
ATOM     15  H4  UNL     1      19.296  49.201 -11.001  1.00  0.00     0.219 HD
ENDBRANCH   9  14
BRANCH  10  16
HETATM   16  C3  UNL     1      19.244  51.831 -12.415  1.00  0.00     0.124 C 
BRANCH  16  17
HETATM   17  C4  UNL     1      20.550  51.447 -11.714  1.00  0.00     0.259 C 
BRANCH  17  18
HETATM   18  O2  UNL     1      20.825  52.403 -10.738  1.00  0.00    -0.371 OA
ATOM     19  H2  UNL     1      20.409  52.135  -9.927  1.00  0.00     0.212 HD
ENDBRANCH  17  18
BRANCH  17  20
HETATM   20  O3  UNL     1      21.561  51.469 -12.692  1.00  0.00    -0.371 OA
ATOM     21  H3  UNL     1      22.380  51.632 -12.238  1.00  0.00     0.212 HD
ENDBRANCH  17  20
ENDBRANCH  16  17
ENDBRANCH  10  16
BRANCH  11  22
HETATM   22  O1  UNL     1      17.307  53.953 -11.551  1.00  0.00    -0.274 OA
HETATM   23  C1  UNL     1      18.097  54.886 -10.823  1.00  0.00     0.238 C 
ENDBRANCH  11  22
ENDBRANCH   7   8
BRANCH   7  24
HETATM   24  O5  UNL     1      14.582  50.112  -9.476  1.00  0.00    -0.374 OA
ATOM     25  H5  UNL     1      14.415  49.619 -10.272  1.00  0.00     0.212 HD
ENDBRANCH   7  24
ENDBRANCH   6   7
ENDBRANCH   5   6
ENDBRANCH   1   5
BRANCH   1  26
HETATM   26  N4  UNL     1      17.588  47.318  -6.041  1.00  0.00    -0.278 N 
ATOM     27  H4  UNL     1      17.091  46.431  -5.965  1.00  0.00     0.179 HD
BRANCH  26  28
HETATM   28  S1  UNL     1      19.334  47.342  -5.837  1.00  0.00     0.083 SA
BRANCH  28  29
HETATM   29  N5  UNL     1      20.092  46.772  -7.334  1.00  0.00    -0.196 N 
HETATM   30  C9  UNL     1      20.203  47.528  -8.556  1.00  0.00     0.276 A 
HETATM   31  O7  UNL     1      19.758  48.700  -8.659  1.00  0.00    -0.266 OA
HETATM   32  C10 UNL     1      20.881  46.707  -9.552  1.00  0.00     0.088 A 
HETATM   33  C11 UNL     1      21.238  46.938 -10.864  1.00  0.00     0.118 A 
HETATM   34  C15 UNL     1      21.195  45.475  -8.996  1.00  0.00     0.088 A 
HETATM   35  C12 UNL     1      21.898  45.958 -11.609  1.00  0.00     0.136 A 
HETATM   36  C13 UNL     1      22.205  44.739 -11.050  1.00  0.00     0.136 A 
HETATM   37  C14 UNL     1      21.850  44.501  -9.738  1.00  0.00     0.118 A 
HETATM   38  C16 UNL     1      20.701  45.528  -7.619  1.00  0.00     0.276 A 
HETATM   39  O12 UNL     1      20.806  44.583  -6.796  1.00  0.00    -0.266 OA
BRANCH  33  40
HETATM   40  O8  UNL     1      20.944  48.144 -11.449  1.00  0.00    -0.357 OA
ATOM     41  H8  UNL     1      20.425  48.169 -12.245  1.00  0.00     0.217 HD
ENDBRANCH  33  40
BRANCH  35  42
HETATM   42  O9  UNL     1      22.255  46.216 -12.945  1.00  0.00    -0.356 OA
ATOM     43  H9  UNL     1      22.625  45.523 -13.478  1.00  0.00     0.218 HD
ENDBRANCH  35  42
BRANCH  36  44
HETATM   44  O10 UNL     1      22.865  43.773 -11.818  1.00  0.00    -0.356 OA
ATOM     45  H10 UNL     1      22.911  42.877 -11.506  1.00  0.00     0.218 HD
ENDBRANCH  36  44
BRANCH  37  46
HETATM   46  O11 UNL     1      22.150  43.297  -9.171  1.00  0.00    -0.357 OA
ATOM     47  H11 UNL     1      21.714  42.513  -9.483  1.00  0.00     0.217 HD
ENDBRANCH  37  46
ENDBRANCH  28  29
ENDBRANCH  26  28
ENDBRANCH   1  26
TORSDOF 18
ENDMDL
