MODEL 1
REMARK VINA RESULT: -9.648530023      0.000      0.000
REMARK  13 active torsions:
REMARK  status: ('A' for Active; 'I' for Inactive)
REMARK    1  A    between atoms: C2_2  and  O1_3 
REMARK    2  A    between atoms: O1_3  and  C3_4 
REMARK    3  A    between atoms: C3_4  and  C4_6 
REMARK    4  A    between atoms: C5_7  and  C6_8 
REMARK    5  A    between atoms: C7_12  and  C8_13 
REMARK    6  A    between atoms: C8_13  and  O6_14 
REMARK    7  A    between atoms: C8_13  and  O7_16 
REMARK    8  A    between atoms: N1_20  and  C11_22 
REMARK    9  A    between atoms: C11_22  and  O8_23 
REMARK   10  A    between atoms: C11_22  and  N2_25 
REMARK   11  A    between atoms: N2_25  and  C12_28 
REMARK   12  A    between atoms: N3_29  and  C13_30 
REMARK   13  A    between atoms: C19_43  and  N7_44 
ROOT
HETATM    1  N2  UNL     1      16.118  48.664  -8.617  1.00  0.00     0.011 N 
ATOM      2  H21 UNL     1      15.348  49.314  -8.458  1.00  0.00     0.287 HD
ATOM      3  H22 UNL     1      16.908  49.304  -8.539  1.00  0.00     0.287 HD
ENDROOT
BRANCH   1   4
HETATM    4  C11 UNL     1      16.043  48.110  -9.974  1.00  0.00     0.431 C 
BRANCH   4   5
HETATM    5  N1  UNL     1      17.251  47.567 -10.402  1.00  0.00    -0.341 N 
HETATM    6  C10 UNL     1      18.391  47.889 -10.769  1.00  0.00     0.053 A 
HETATM    7  C4  UNL     1      18.901  49.169 -10.885  1.00  0.00     0.106 A 
HETATM    8  C9  UNL     1      19.318  46.864 -11.106  1.00  0.00     0.068 A 
HETATM    9  C5  UNL     1      20.226  49.375 -11.302  1.00  0.00     0.170 A 
HETATM   10  O5  UNL     1      21.003  48.340 -11.591  1.00  0.00    -0.302 OA
HETATM   11  C7  UNL     1      20.586  47.114 -11.504  1.00  0.00     0.110 A 
ATOM     12  H1  UNL     1      17.170  46.550 -10.419  1.00  0.00     0.164 HD
BRANCH   7  13
HETATM   13  C3  UNL     1      18.133  50.371 -10.595  1.00  0.00     0.298 C 
HETATM   14  O2  UNL     1      18.014  50.720  -9.393  1.00  0.00    -0.259 OA
BRANCH  13  15
HETATM   15  O1  UNL     1      17.531  51.156 -11.541  1.00  0.00    -0.318 OA
BRANCH  15  16
HETATM   16  C2  UNL     1      17.400  52.542 -11.554  1.00  0.00     0.174 C 
HETATM   17  C1  UNL     1      18.434  53.298 -12.316  1.00  0.00     0.034 C 
ENDBRANCH  15  16
ENDBRANCH  13  15
ENDBRANCH   7  13
BRANCH   9  18
HETATM   18  C6  UNL     1      20.816  50.682 -11.440  1.00  0.00     0.235 C 
HETATM   19  O3  UNL     1      21.022  51.422 -10.465  1.00  0.00    -0.642 OA
HETATM   20  O4  UNL     1      21.180  51.162 -12.683  1.00  0.00    -0.642 OA
ENDBRANCH   9  18
BRANCH  11  21
HETATM   21  C8  UNL     1      21.539  46.012 -11.852  1.00  0.00     0.312 C 
BRANCH  21  22
HETATM   22  O6  UNL     1      22.332  45.735 -10.738  1.00  0.00    -0.365 OA
ATOM     23  H6  UNL     1      23.231  45.622 -11.024  1.00  0.00     0.213 HD
ENDBRANCH  21  22
BRANCH  21  24
HETATM   24  O7  UNL     1      22.331  46.408 -12.927  1.00  0.00    -0.365 OA
ATOM     25  H7  UNL     1      22.579  45.644 -13.434  1.00  0.00     0.213 HD
ENDBRANCH  21  24
ENDBRANCH  11  21
ENDBRANCH   4   5
BRANCH   4  26
HETATM   26  O8  UNL     1      15.774  49.226 -10.827  1.00  0.00    -0.354 OA
ATOM     27  H8  UNL     1      15.726  49.991 -10.265  1.00  0.00     0.214 HD
ENDBRANCH   4  26
ENDBRANCH   1   4
BRANCH   1  28
HETATM   28  C12 UNL     1      16.166  47.695  -7.580  1.00  0.00     0.453 C 
HETATM   29  N3  UNL     1      17.535  47.705  -7.020  1.00  0.00    -0.219 N 
HETATM   30  N4  UNL     1      17.942  48.740  -6.174  1.00  0.00    -0.001 NA
HETATM   31  N5  UNL     1      16.864  49.434  -5.616  1.00  0.00    -0.114 N 
HETATM   32  C18 UNL     1      15.622  48.750  -5.517  1.00  0.00     0.730 A 
ATOM     33  H5  UNL     1      16.966  50.396  -5.292  1.00  0.00     0.203 HD
HETATM   34  N6  UNL     1      14.651  48.781  -4.581  1.00  0.00    -0.019 N 
HETATM   35  N9  UNL     1      15.250  47.870  -6.495  1.00  0.00    -0.056 N 
HETATM   36  C19 UNL     1      13.686  47.922  -4.984  1.00  0.00     0.705 A 
ATOM     37  H6  UNL     1      14.645  49.345  -3.731  1.00  0.00     0.203 HD
HETATM   38  N8  UNL     1      14.086  47.390  -6.148  1.00  0.00    -0.112 N 
ATOM     39  H8  UNL     1      13.555  46.705  -6.687  1.00  0.00     0.206 HD
BRANCH  29  40
HETATM   40  C13 UNL     1      18.458  46.690  -7.315  1.00  0.00     0.128 A 
HETATM   41  C14 UNL     1      18.152  45.346  -7.268  1.00  0.00     0.039 A 
HETATM   42  C15 UNL     1      19.094  44.379  -7.566  1.00  0.00     0.027 A 
HETATM   43  C16 UNL     1      20.350  44.816  -7.912  1.00  0.00     0.146 A 
HETATM   44  O9  UNL     1      20.651  46.103  -7.959  1.00  0.00    -0.286 OA
HETATM   45  C17 UNL     1      19.742  47.029  -7.671  1.00  0.00     0.315 A 
HETATM   46  O10 UNL     1      20.144  48.221  -7.750  1.00  0.00    -0.257 OA
ENDBRANCH  29  40
BRANCH  36  47
HETATM   47  N7  UNL     1      12.609  47.715  -4.309  1.00  0.00    -0.233 N 
ATOM     48  H72 UNL     1      11.691  48.151  -4.392  1.00  0.00     0.174 HD
ATOM     49  H71 UNL     1      12.553  47.033  -3.552  1.00  0.00     0.174 HD
ENDBRANCH  36  47
ENDBRANCH   1  28
TORSDOF 13
ENDMDL
MODEL 2
REMARK VINA RESULT: -9.548420952      3.167      6.316
REMARK  13 active torsions:
REMARK  status: ('A' for Active; 'I' for Inactive)
REMARK    1  A    between atoms: C2_2  and  O1_3 
REMARK    2  A    between atoms: O1_3  and  C3_4 
REMARK    3  A    between atoms: C3_4  and  C4_6 
REMARK    4  A    between atoms: C5_7  and  C6_8 
REMARK    5  A    between atoms: C7_12  and  C8_13 
REMARK    6  A    between atoms: C8_13  and  O6_14 
REMARK    7  A    between atoms: C8_13  and  O7_16 
REMARK    8  A    between atoms: N1_20  and  C11_22 
REMARK    9  A    between atoms: C11_22  and  O8_23 
REMARK   10  A    between atoms: C11_22  and  N2_25 
REMARK   11  A    between atoms: N2_25  and  C12_28 
REMARK   12  A    between atoms: N3_29  and  C13_30 
REMARK   13  A    between atoms: C19_43  and  N7_44 
ROOT
HETATM    1  N2  UNL     1      18.726  46.539 -10.877  1.00  0.00     0.011 N 
ATOM      2  H21 UNL     1      18.744  46.012 -11.751  1.00  0.00     0.287 HD
ATOM      3  H22 UNL     1      18.038  45.994 -10.357  1.00  0.00     0.287 HD
ENDROOT
BRANCH   1   4
HETATM    4  C11 UNL     1      18.226  47.898 -11.113  1.00  0.00     0.431 C 
BRANCH   4   5
HETATM    5  N1  UNL     1      17.817  48.532  -9.944  1.00  0.00    -0.341 N 
HETATM    6  C10 UNL     1      17.386  49.615  -9.519  1.00  0.00     0.053 A 
HETATM    7  C4  UNL     1      17.131  50.758 -10.254  1.00  0.00     0.106 A 
HETATM    8  C9  UNL     1      17.091  49.740  -8.133  1.00  0.00     0.068 A 
HETATM    9  C5  UNL     1      16.625  51.910  -9.630  1.00  0.00     0.170 A 
HETATM   10  O5  UNL     1      16.387  51.912  -8.325  1.00  0.00    -0.302 OA
HETATM   11  C7  UNL     1      16.605  50.873  -7.579  1.00  0.00     0.110 A 
ATOM     12  H1  UNL     1      17.902  47.879  -9.164  1.00  0.00     0.164 HD
BRANCH   7  13
HETATM   13  C3  UNL     1      17.359  50.862 -11.687  1.00  0.00     0.298 C 
HETATM   14  O2  UNL     1      16.463  50.439 -12.460  1.00  0.00    -0.259 OA
BRANCH  13  15
HETATM   15  O1  UNL     1      18.483  51.393 -12.259  1.00  0.00    -0.318 OA
BRANCH  15  16
HETATM   16  C2  UNL     1      19.681  51.744 -11.640  1.00  0.00     0.174 C 
HETATM   17  C1  UNL     1      20.603  50.622 -11.301  1.00  0.00     0.034 C 
ENDBRANCH  15  16
ENDBRANCH  13  15
ENDBRANCH   7  13
BRANCH   9  18
HETATM   18  C6  UNL     1      16.338  53.131 -10.338  1.00  0.00     0.235 C 
HETATM   19  O3  UNL     1      15.221  53.365 -10.827  1.00  0.00    -0.642 OA
HETATM   20  O4  UNL     1      17.311  54.098 -10.500  1.00  0.00    -0.642 OA
ENDBRANCH   9  18
BRANCH  11  21
HETATM   21  C8  UNL     1      16.304  50.973  -6.114  1.00  0.00     0.312 C 
BRANCH  21  22
HETATM   22  O6  UNL     1      15.076  50.360  -5.865  1.00  0.00    -0.365 OA
ATOM     23  H6  UNL     1      15.107  49.950  -5.008  1.00  0.00     0.213 HD
ENDBRANCH  21  22
BRANCH  21  24
HETATM   24  O7  UNL     1      16.262  52.314  -5.742  1.00  0.00    -0.365 OA
ATOM     25  H7  UNL     1      16.501  52.394  -4.826  1.00  0.00     0.213 HD
ENDBRANCH  21  24
ENDBRANCH  11  21
ENDBRANCH   4   5
BRANCH   4  26
HETATM   26  O8  UNL     1      17.056  47.739 -11.920  1.00  0.00    -0.354 OA
ATOM     27  H8  UNL     1      17.007  48.506 -12.478  1.00  0.00     0.214 HD
ENDBRANCH   4  26
ENDBRANCH   1   4
BRANCH   1  28
HETATM   28  C12 UNL     1      19.992  46.473 -10.236  1.00  0.00     0.453 C 
HETATM   29  N3  UNL     1      19.843  45.624  -9.035  1.00  0.00    -0.219 N 
HETATM   30  N4  UNL     1      19.751  44.234  -9.162  1.00  0.00    -0.001 NA
HETATM   31  N5  UNL     1      20.233  43.773 -10.390  1.00  0.00    -0.114 N 
HETATM   32  C18 UNL     1      21.178  44.585 -11.073  1.00  0.00     0.730 A 
ATOM     33  H5  UNL     1      19.918  42.885 -10.782  1.00  0.00     0.203 HD
HETATM   34  N6  UNL     1      22.250  44.274 -11.829  1.00  0.00    -0.019 N 
HETATM   35  N9  UNL     1      21.076  45.948 -11.010  1.00  0.00    -0.056 N 
HETATM   36  C19 UNL     1      22.805  45.443 -12.229  1.00  0.00     0.705 A 
ATOM     37  H6  UNL     1      22.581  43.336 -12.057  1.00  0.00     0.203 HD
HETATM   38  N8  UNL     1      22.064  46.434 -11.712  1.00  0.00    -0.112 N 
ATOM     39  H8  UNL     1      22.247  47.428 -11.848  1.00  0.00     0.206 HD
BRANCH  29  40
HETATM   40  C13 UNL     1      19.790  46.174  -7.746  1.00  0.00     0.128 A 
HETATM   41  C14 UNL     1      20.910  46.435  -6.984  1.00  0.00     0.039 A 
HETATM   42  C15 UNL     1      20.812  46.979  -5.717  1.00  0.00     0.027 A 
HETATM   43  C16 UNL     1      19.548  47.250  -5.249  1.00  0.00     0.146 A 
HETATM   44  O9  UNL     1      18.470  47.003  -5.974  1.00  0.00    -0.286 OA
HETATM   45  C17 UNL     1      18.570  46.479  -7.192  1.00  0.00     0.315 A 
HETATM   46  O10 UNL     1      17.475  46.288  -7.787  1.00  0.00    -0.257 OA
ENDBRANCH  29  40
BRANCH  36  47
HETATM   47  N7  UNL     1      23.855  45.499 -12.973  1.00  0.00    -0.233 N 
ATOM     48  H72 UNL     1      24.426  44.746 -13.355  1.00  0.00     0.174 HD
ATOM     49  H71 UNL     1      24.264  46.380 -13.287  1.00  0.00     0.174 HD
ENDBRANCH  36  47
ENDBRANCH   1  28
TORSDOF 13
ENDMDL
MODEL 3
REMARK VINA RESULT: -9.252442980      2.334      4.475
REMARK  13 active torsions:
REMARK  status: ('A' for Active; 'I' for Inactive)
REMARK    1  A    between atoms: C2_2  and  O1_3 
REMARK    2  A    between atoms: O1_3  and  C3_4 
REMARK    3  A    between atoms: C3_4  and  C4_6 
REMARK    4  A    between atoms: C5_7  and  C6_8 
REMARK    5  A    between atoms: C7_12  and  C8_13 
REMARK    6  A    between atoms: C8_13  and  O6_14 
REMARK    7  A    between atoms: C8_13  and  O7_16 
REMARK    8  A    between atoms: N1_20  and  C11_22 
REMARK    9  A    between atoms: C11_22  and  O8_23 
REMARK   10  A    between atoms: C11_22  and  N2_25 
REMARK   11  A    between atoms: N2_25  and  C12_28 
REMARK   12  A    between atoms: N3_29  and  C13_30 
REMARK   13  A    between atoms: C19_43  and  N7_44 
ROOT
HETATM    1  N2  UNL     1      17.487  47.480  -6.958  1.00  0.00     0.011 N 
ATOM      2  H21 UNL     1      17.101  48.247  -6.407  1.00  0.00     0.287 HD
ATOM      3  H22 UNL     1      18.426  47.841  -7.129  1.00  0.00     0.287 HD
ENDROOT
BRANCH   1   4
HETATM    4  C11 UNL     1      16.755  47.345  -8.223  1.00  0.00     0.431 C 
BRANCH   4   5
HETATM    5  N1  UNL     1      16.464  48.571  -8.812  1.00  0.00    -0.341 N 
HETATM    6  C10 UNL     1      16.984  49.492  -9.460  1.00  0.00     0.053 A 
HETATM    7  C4  UNL     1      18.300  49.580  -9.877  1.00  0.00     0.106 A 
HETATM    8  C9  UNL     1      16.177  50.594  -9.855  1.00  0.00     0.068 A 
HETATM    9  C5  UNL     1      18.740  50.685 -10.624  1.00  0.00     0.170 A 
HETATM   10  O5  UNL     1      17.895  51.658 -10.935  1.00  0.00    -0.302 OA
HETATM   11  C7  UNL     1      16.649  51.637 -10.575  1.00  0.00     0.110 A 
ATOM     12  H1  UNL     1      15.480  48.790  -8.655  1.00  0.00     0.164 HD
BRANCH   7  13
HETATM   13  C3  UNL     1      19.306  48.569  -9.587  1.00  0.00     0.298 C 
HETATM   14  O2  UNL     1      19.858  48.594  -8.458  1.00  0.00    -0.259 OA
BRANCH  13  15
HETATM   15  O1  UNL     1      19.695  47.587 -10.457  1.00  0.00    -0.318 OA
BRANCH  15  16
HETATM   16  C2  UNL     1      20.988  47.163 -10.754  1.00  0.00     0.174 C 
HETATM   17  C1  UNL     1      21.117  46.146 -11.837  1.00  0.00     0.034 C 
ENDBRANCH  15  16
ENDBRANCH  13  15
ENDBRANCH   7  13
BRANCH   9  18
HETATM   18  C6  UNL     1      20.095  50.835 -11.089  1.00  0.00     0.235 C 
HETATM   19  O3  UNL     1      20.491  50.328 -12.151  1.00  0.00    -0.642 OA
HETATM   20  O4  UNL     1      21.015  51.560 -10.356  1.00  0.00    -0.642 OA
ENDBRANCH   9  18
BRANCH  11  21
HETATM   21  C8  UNL     1      15.772  52.784 -10.976  1.00  0.00     0.312 C 
BRANCH  21  22
HETATM   22  O6  UNL     1      16.494  53.629 -11.819  1.00  0.00    -0.365 OA
ATOM     23  H6  UNL     1      17.398  53.649 -11.530  1.00  0.00     0.213 HD
ENDBRANCH  21  22
BRANCH  21  24
HETATM   24  O7  UNL     1      15.360  53.471  -9.836  1.00  0.00    -0.365 OA
ATOM     25  H7  UNL     1      16.086  53.980  -9.496  1.00  0.00     0.213 HD
ENDBRANCH  21  24
ENDBRANCH  11  21
ENDBRANCH   4   5
BRANCH   4  26
HETATM   26  O8  UNL     1      15.501  46.752  -7.876  1.00  0.00    -0.354 OA
ATOM     27  H8  UNL     1      15.266  47.095  -7.022  1.00  0.00     0.214 HD
ENDBRANCH   4  26
ENDBRANCH   1   4
BRANCH   1  28
HETATM   28  C12 UNL     1      17.550  46.296  -6.177  1.00  0.00     0.453 C 
HETATM   29  N3  UNL     1      18.914  45.741  -6.311  1.00  0.00    -0.219 N 
HETATM   30  N4  UNL     1      19.984  46.335  -5.634  1.00  0.00    -0.001 NA
HETATM   31  N5  UNL     1      19.568  47.139  -4.568  1.00  0.00    -0.114 N 
HETATM   32  C18 UNL     1      18.301  46.859  -3.989  1.00  0.00     0.730 A 
ATOM     33  H5  UNL     1      20.153  47.899  -4.220  1.00  0.00     0.203 HD
HETATM   34  N6  UNL     1      17.862  46.921  -2.715  1.00  0.00    -0.019 N 
HETATM   35  N9  UNL     1      17.270  46.433  -4.780  1.00  0.00    -0.056 N 
HETATM   36  C19 UNL     1      16.564  46.535  -2.725  1.00  0.00     0.705 A 
ATOM     37  H6  UNL     1      18.405  47.206  -1.899  1.00  0.00     0.203 HD
HETATM   38  N8  UNL     1      16.243  46.248  -3.994  1.00  0.00    -0.112 N 
ATOM     39  H8  UNL     1      15.324  45.929  -4.303  1.00  0.00     0.206 HD
BRANCH  29  40
HETATM   40  C13 UNL     1      19.177  44.619  -7.109  1.00  0.00     0.128 A 
HETATM   41  C14 UNL     1      19.657  44.698  -8.399  1.00  0.00     0.039 A 
HETATM   42  C15 UNL     1      19.903  43.565  -9.151  1.00  0.00     0.027 A 
HETATM   43  C16 UNL     1      19.648  42.352  -8.556  1.00  0.00     0.146 A 
HETATM   44  O9  UNL     1      19.188  42.268  -7.318  1.00  0.00    -0.286 OA
HETATM   45  C17 UNL     1      18.953  43.362  -6.600  1.00  0.00     0.315 A 
HETATM   46  O10 UNL     1      18.516  43.156  -5.435  1.00  0.00    -0.257 OA
ENDBRANCH  29  40
BRANCH  36  47
HETATM   47  N7  UNL     1      15.843  46.484  -1.659  1.00  0.00    -0.233 N 
ATOM     48  H72 UNL     1      15.369  47.232  -1.153  1.00  0.00     0.174 HD
ATOM     49  H71 UNL     1      15.652  45.614  -1.162  1.00  0.00     0.174 HD
ENDBRANCH  36  47
ENDBRANCH   1  28
TORSDOF 13
ENDMDL
MODEL 4
REMARK VINA RESULT: -9.244872359      3.258      6.402
REMARK  13 active torsions:
REMARK  status: ('A' for Active; 'I' for Inactive)
REMARK    1  A    between atoms: C2_2  and  O1_3 
REMARK    2  A    between atoms: O1_3  and  C3_4 
REMARK    3  A    between atoms: C3_4  and  C4_6 
REMARK    4  A    between atoms: C5_7  and  C6_8 
REMARK    5  A    between atoms: C7_12  and  C8_13 
REMARK    6  A    between atoms: C8_13  and  O6_14 
REMARK    7  A    between atoms: C8_13  and  O7_16 
REMARK    8  A    between atoms: N1_20  and  C11_22 
REMARK    9  A    between atoms: C11_22  and  O8_23 
REMARK   10  A    between atoms: C11_22  and  N2_25 
REMARK   11  A    between atoms: N2_25  and  C12_28 
REMARK   12  A    between atoms: N3_29  and  C13_30 
REMARK   13  A    between atoms: C19_43  and  N7_44 
ROOT
HETATM    1  N2  UNL     1      19.777  45.733  -8.508  1.00  0.00     0.011 N 
ATOM      2  H21 UNL     1      19.304  45.874  -9.401  1.00  0.00     0.287 HD
ATOM      3  H22 UNL     1      19.064  45.197  -8.013  1.00  0.00     0.287 HD
ENDROOT
BRANCH   1   4
HETATM    4  C11 UNL     1      19.999  47.022  -7.842  1.00  0.00     0.431 C 
BRANCH   4   5
HETATM    5  N1  UNL     1      20.147  48.075  -8.740  1.00  0.00    -0.341 N 
HETATM    6  C10 UNL     1      19.505  48.966  -9.314  1.00  0.00     0.053 A 
HETATM    7  C4  UNL     1      18.151  49.227  -9.198  1.00  0.00     0.106 A 
HETATM    8  C9  UNL     1      20.192  49.854 -10.186  1.00  0.00     0.068 A 
HETATM    9  C5  UNL     1      17.565  50.290  -9.905  1.00  0.00     0.170 A 
HETATM   10  O5  UNL     1      18.307  51.056 -10.693  1.00  0.00    -0.302 OA
HETATM   11  C7  UNL     1      19.582  50.865 -10.846  1.00  0.00     0.110 A 
ATOM     12  H1  UNL     1      21.125  48.133  -9.025  1.00  0.00     0.164 HD
BRANCH   7  13
HETATM   13  C3  UNL     1      17.249  48.447  -8.364  1.00  0.00     0.298 C 
HETATM   14  O2  UNL     1      16.898  47.312  -8.775  1.00  0.00    -0.259 OA
BRANCH  13  15
HETATM   15  O1  UNL     1      16.755  48.859  -7.157  1.00  0.00    -0.318 OA
BRANCH  15  16
HETATM   16  C2  UNL     1      15.580  48.459  -6.524  1.00  0.00     0.174 C 
HETATM   17  C1  UNL     1      14.328  49.138  -6.964  1.00  0.00     0.034 C 
ENDBRANCH  15  16
ENDBRANCH  13  15
ENDBRANCH   7  13
BRANCH   9  18
HETATM   18  C6  UNL     1      16.164  50.613  -9.827  1.00  0.00     0.235 C 
HETATM   19  O3  UNL     1      15.298  49.954 -10.425  1.00  0.00    -0.642 OA
HETATM   20  O4  UNL     1      15.729  51.684  -9.071  1.00  0.00    -0.642 OA
ENDBRANCH   9  18
BRANCH  11  21
HETATM   21  C8  UNL     1      20.335  51.784 -11.758  1.00  0.00     0.312 C 
BRANCH  21  22
HETATM   22  O6  UNL     1      19.424  52.456 -12.572  1.00  0.00    -0.365 OA
ATOM     23  H6  UNL     1      18.989  53.125 -12.057  1.00  0.00     0.213 HD
ENDBRANCH  21  22
BRANCH  21  24
HETATM   24  O7  UNL     1      21.223  51.041 -12.533  1.00  0.00    -0.365 OA
ATOM     25  H7  UNL     1      20.778  50.735 -13.314  1.00  0.00     0.213 HD
ENDBRANCH  21  24
ENDBRANCH  11  21
ENDBRANCH   4   5
BRANCH   4  26
HETATM   26  O8  UNL     1      21.251  46.888  -7.162  1.00  0.00    -0.354 OA
ATOM     27  H8  UNL     1      21.049  46.815  -6.237  1.00  0.00     0.214 HD
ENDBRANCH   4  26
ENDBRANCH   1   4
BRANCH   1  28
HETATM   28  C12 UNL     1      20.946  44.947  -8.689  1.00  0.00     0.453 C 
HETATM   29  N3  UNL     1      20.595  43.544  -8.379  1.00  0.00    -0.219 N 
HETATM   30  N4  UNL     1      19.853  42.786  -9.290  1.00  0.00    -0.001 NA
HETATM   31  N5  UNL     1      19.885  43.316 -10.583  1.00  0.00    -0.114 N 
HETATM   32  C18 UNL     1      20.990  44.141 -10.929  1.00  0.00     0.730 A 
ATOM     33  H5  UNL     1      19.142  43.118 -11.254  1.00  0.00     0.203 HD
HETATM   34  N6  UNL     1      21.675  44.288 -12.081  1.00  0.00    -0.019 N 
HETATM   35  N9  UNL     1      21.540  44.971  -9.991  1.00  0.00    -0.056 N 
HETATM   36  C19 UNL     1      22.643  45.206 -11.850  1.00  0.00     0.705 A 
ATOM     37  H6  UNL     1      21.498  43.801 -12.960  1.00  0.00     0.203 HD
HETATM   38  N8  UNL     1      22.528  45.596 -10.573  1.00  0.00    -0.112 N 
ATOM     39  H8  UNL     1      23.129  46.284 -10.118  1.00  0.00     0.206 HD
BRANCH  29  40
HETATM   40  C13 UNL     1      20.989  42.935  -7.178  1.00  0.00     0.128 A 
HETATM   41  C14 UNL     1      22.134  42.177  -7.050  1.00  0.00     0.039 A 
HETATM   42  C15 UNL     1      22.485  41.594  -5.847  1.00  0.00     0.027 A 
HETATM   43  C16 UNL     1      21.642  41.803  -4.781  1.00  0.00     0.146 A 
HETATM   44  O9  UNL     1      20.542  42.529  -4.897  1.00  0.00    -0.286 OA
HETATM   45  C17 UNL     1      20.210  43.087  -6.057  1.00  0.00     0.315 A 
HETATM   46  O10 UNL     1      19.140  43.755  -6.045  1.00  0.00    -0.257 OA
ENDBRANCH  29  40
BRANCH  36  47
HETATM   47  N7  UNL     1      23.481  45.580 -12.755  1.00  0.00    -0.233 N 
ATOM     48  H72 UNL     1      23.334  45.760 -13.748  1.00  0.00     0.174 HD
ATOM     49  H71 UNL     1      24.467  45.750 -12.559  1.00  0.00     0.174 HD
ENDBRANCH  36  47
ENDBRANCH   1  28
TORSDOF 13
ENDMDL
MODEL 5
REMARK VINA RESULT: -9.233784049      3.380      6.576
REMARK  13 active torsions:
REMARK  status: ('A' for Active; 'I' for Inactive)
REMARK    1  A    between atoms: C2_2  and  O1_3 
REMARK    2  A    between atoms: O1_3  and  C3_4 
REMARK    3  A    between atoms: C3_4  and  C4_6 
REMARK    4  A    between atoms: C5_7  and  C6_8 
REMARK    5  A    between atoms: C7_12  and  C8_13 
REMARK    6  A    between atoms: C8_13  and  O6_14 
REMARK    7  A    between atoms: C8_13  and  O7_16 
REMARK    8  A    between atoms: N1_20  and  C11_22 
REMARK    9  A    between atoms: C11_22  and  O8_23 
REMARK   10  A    between atoms: C11_22  and  N2_25 
REMARK   11  A    between atoms: N2_25  and  C12_28 
REMARK   12  A    between atoms: N3_29  and  C13_30 
REMARK   13  A    between atoms: C19_43  and  N7_44 
ROOT
HETATM    1  N2  UNL     1      15.611  49.664  -9.475  1.00  0.00     0.011 N 
ATOM      2  H21 UNL     1      14.704  50.014  -9.783  1.00  0.00     0.287 HD
ATOM      3  H22 UNL     1      15.702  48.849 -10.083  1.00  0.00     0.287 HD
ENDROOT
BRANCH   1   4
HETATM    4  C11 UNL     1      15.545  49.245  -8.070  1.00  0.00     0.431 C 
BRANCH   4   5
HETATM    5  N1  UNL     1      16.179  48.028  -7.840  1.00  0.00    -0.341 N 
HETATM    6  C10 UNL     1      16.478  47.239  -6.931  1.00  0.00     0.053 A 
HETATM    7  C4  UNL     1      16.205  47.377  -5.582  1.00  0.00     0.106 A 
HETATM    8  C9  UNL     1      17.166  46.040  -7.262  1.00  0.00     0.068 A 
HETATM    9  C5  UNL     1      16.597  46.385  -4.668  1.00  0.00     0.170 A 
HETATM   10  O5  UNL     1      17.236  45.303  -5.093  1.00  0.00    -0.302 OA
HETATM   11  C7  UNL     1      17.523  45.112  -6.344  1.00  0.00     0.110 A 
ATOM     12  H1  UNL     1      16.513  47.654  -8.728  1.00  0.00     0.164 HD
BRANCH   7  13
HETATM   13  C3  UNL     1      15.514  48.525  -5.013  1.00  0.00     0.298 C 
HETATM   14  O2  UNL     1      14.257  48.518  -5.018  1.00  0.00    -0.259 OA
BRANCH  13  15
HETATM   15  O1  UNL     1      16.135  49.614  -4.466  1.00  0.00    -0.318 OA
BRANCH  15  16
HETATM   16  C2  UNL     1      17.267  50.282  -4.927  1.00  0.00     0.174 C 
HETATM   17  C1  UNL     1      17.033  51.583  -5.615  1.00  0.00     0.034 C 
ENDBRANCH  15  16
ENDBRANCH  13  15
ENDBRANCH   7  13
BRANCH   9  18
HETATM   18  C6  UNL     1      16.342  46.468  -3.253  1.00  0.00     0.235 C 
HETATM   19  O3  UNL     1      15.365  45.915  -2.723  1.00  0.00    -0.642 OA
HETATM   20  O4  UNL     1      17.190  47.177  -2.425  1.00  0.00    -0.642 OA
ENDBRANCH   9  18
BRANCH  11  21
HETATM   21  C8  UNL     1      18.247  43.858  -6.726  1.00  0.00     0.312 C 
BRANCH  21  22
HETATM   22  O6  UNL     1      18.065  42.909  -5.720  1.00  0.00    -0.365 OA
ATOM     23  H6  UNL     1      17.975  42.053  -6.119  1.00  0.00     0.213 HD
ENDBRANCH  21  22
BRANCH  21  24
HETATM   24  O7  UNL     1      19.601  44.138  -6.890  1.00  0.00    -0.365 OA
ATOM     25  H7  UNL     1      19.731  44.598  -7.711  1.00  0.00     0.213 HD
ENDBRANCH  21  24
ENDBRANCH  11  21
ENDBRANCH   4   5
BRANCH   4  26
HETATM   26  O8  UNL     1      14.156  49.038  -7.800  1.00  0.00    -0.354 OA
ATOM     27  H8  UNL     1      13.681  49.685  -8.309  1.00  0.00     0.214 HD
ENDBRANCH   4  26
ENDBRANCH   1   4
BRANCH   1  28
HETATM   28  C12 UNL     1      16.630  50.610  -9.767  1.00  0.00     0.453 C 
HETATM   29  N3  UNL     1      17.563  49.984 -10.728  1.00  0.00    -0.219 N 
HETATM   30  N4  UNL     1      17.201  49.846 -12.072  1.00  0.00    -0.001 NA
HETATM   31  N5  UNL     1      16.158  50.701 -12.439  1.00  0.00    -0.114 N 
HETATM   32  C18 UNL     1      15.973  51.882 -11.670  1.00  0.00     0.730 A 
ATOM     33  H5  UNL     1      15.551  50.485 -13.230  1.00  0.00     0.203 HD
HETATM   34  N6  UNL     1      15.593  53.129 -12.014  1.00  0.00    -0.019 N 
HETATM   35  N9  UNL     1      16.204  51.859 -10.322  1.00  0.00    -0.056 N 
HETATM   36  C19 UNL     1      15.590  53.869 -10.880  1.00  0.00     0.705 A 
ATOM     37  H6  UNL     1      15.352  53.453 -12.951  1.00  0.00     0.203 HD
HETATM   38  N8  UNL     1      15.967  53.064  -9.877  1.00  0.00    -0.112 N 
ATOM     39  H8  UNL     1      16.055  53.352  -8.902  1.00  0.00     0.206 HD
BRANCH  29  40
HETATM   40  C13 UNL     1      18.823  49.514 -10.331  1.00  0.00     0.128 A 
HETATM   41  C14 UNL     1      19.031  48.265  -9.784  1.00  0.00     0.039 A 
HETATM   42  C15 UNL     1      20.292  47.842  -9.406  1.00  0.00     0.027 A 
HETATM   43  C16 UNL     1      21.331  48.721  -9.600  1.00  0.00     0.146 A 
HETATM   44  O9  UNL     1      21.138  49.921 -10.125  1.00  0.00    -0.286 OA
HETATM   45  C17 UNL     1      19.924  50.322 -10.486  1.00  0.00     0.315 A 
HETATM   46  O10 UNL     1      19.864  51.484 -10.973  1.00  0.00    -0.257 OA
ENDBRANCH  29  40
BRANCH  36  47
HETATM   47  N7  UNL     1      15.270  55.117 -10.862  1.00  0.00    -0.233 N 
ATOM     48  H72 UNL     1      14.414  55.577 -11.172  1.00  0.00     0.174 HD
ATOM     49  H71 UNL     1      15.892  55.842 -10.505  1.00  0.00     0.174 HD
ENDBRANCH  36  47
ENDBRANCH   1  28
TORSDOF 13
ENDMDL
