MODEL 1
REMARK VINA RESULT: -9.212030012      0.000      0.000
REMARK  15 active torsions:
REMARK  status: ('A' for Active; 'I' for Inactive)
REMARK    1  A    between atoms: N1_1  and  C1_4 
REMARK    2  A    between atoms: C2_10  and  C3_11 
REMARK    3  A    between atoms: C3_11  and  C4_13 
REMARK    4  A    between atoms: C5_15  and  C6_16 
REMARK    5  A    between atoms: C6_16  and  O4_17 
REMARK    6  A    between atoms: C6_16  and  O5_19 
REMARK    7  A    between atoms: C6_16  and  N4_21 
REMARK    8  A    between atoms: N4_21  and  C7_23 
REMARK    9  A    between atoms: C12_31  and  C13_32 
REMARK   10  A    between atoms: C13_32  and  O9_33 
REMARK   11  A    between atoms: C14_35  and  O10_36 
REMARK   12  A    between atoms: C16_40  and  N5_41 
REMARK   13  A    between atoms: N5_41  and  C17_43 
REMARK   14  A    between atoms: C17_43  and  O12_44 
REMARK   15  A    between atoms: C19_49  and  O13_50 
ROOT
HETATM    1  N4  UNL     1      14.852  46.598  -6.246  1.00  0.00    -0.316 N 
ATOM      2  H4  UNL     1      14.443  45.678  -6.085  1.00  0.00     0.167 HD
ENDROOT
BRANCH   1   3
HETATM    3  C6  UNL     1      14.172  47.741  -5.750  1.00  0.00     0.299 C 
BRANCH   3   4
HETATM    4  C5  UNL     1      15.079  48.539  -4.868  1.00  0.00     0.141 A 
HETATM    5  O3  UNL     1      15.550  49.720  -5.179  1.00  0.00    -0.300 OA
HETATM    6  C4  UNL     1      16.323  50.207  -4.234  1.00  0.00     0.161 A 
HETATM    7  C19 UNL     1      16.353  49.268  -3.233  1.00  0.00     0.106 A 
HETATM    8  C18 UNL     1      15.561  48.194  -3.624  1.00  0.00     0.080 A 
BRANCH   6   9
HETATM    9  C3  UNL     1      16.971  51.495  -4.318  1.00  0.00     0.240 C 
HETATM   10  O2  UNL     1      17.305  52.078  -3.259  1.00  0.00    -0.283 OA
BRANCH   9  11
HETATM   11  C2  UNL     1      17.264  52.168  -5.574  1.00  0.00     0.154 A 
HETATM   12  C1  UNL     1      17.396  53.509  -5.856  1.00  0.00     0.154 A 
HETATM   13  N2  UNL     1      17.689  53.616  -7.170  1.00  0.00    -0.224 N 
HETATM   14  O1  UNL     1      17.736  52.434  -7.671  1.00  0.00    -0.155 OA
ATOM     15  H2  UNL     1      17.845  54.486  -7.679  1.00  0.00     0.198 HD
HETATM   16  N3  UNL     1      17.492  51.536  -6.773  1.00  0.00    -0.234 N 
ATOM     17  H3  UNL     1      17.472  50.527  -6.928  1.00  0.00     0.197 HD
BRANCH  12  18
HETATM   18  N1  UNL     1      17.252  54.494  -5.025  1.00  0.00    -0.382 N 
ATOM     19  H12 UNL     1      17.831  55.331  -4.965  1.00  0.00     0.157 HD
ATOM     20  H11 UNL     1      16.540  54.566  -4.298  1.00  0.00     0.157 HD
ENDBRANCH  12  18
ENDBRANCH   9  11
ENDBRANCH   6   9
BRANCH   7  21
HETATM   21  O13 UNL     1      17.042  49.361  -2.045  1.00  0.00    -0.358 OA
ATOM     22  H13 UNL     1      17.867  48.937  -1.837  1.00  0.00     0.217 HD
ENDBRANCH   7  21
ENDBRANCH   3   4
BRANCH   3  23
HETATM   23  O4  UNL     1      13.067  47.353  -4.994  1.00  0.00    -0.343 OA
ATOM     24  H4  UNL     1      12.306  47.357  -5.562  1.00  0.00     0.215 HD
ENDBRANCH   3  23
BRANCH   3  25
HETATM   25  O5  UNL     1      13.827  48.587  -6.810  1.00  0.00    -0.343 OA
ATOM     26  H5  UNL     1      13.050  48.207  -7.203  1.00  0.00     0.215 HD
ENDBRANCH   3  25
ENDBRANCH   1   3
BRANCH   1  27
HETATM   27  C7  UNL     1      16.092  46.682  -6.966  1.00  0.00     0.113 A 
HETATM   28  C8  UNL     1      17.056  45.716  -6.759  1.00  0.00     0.131 A 
HETATM   29  C9  UNL     1      18.225  45.881  -7.492  1.00  0.00     0.293 A 
HETATM   30  O6  UNL     1      19.116  45.008  -7.314  1.00  0.00    -0.260 OA
HETATM   31  O7  UNL     1      18.330  46.885  -8.285  1.00  0.00    -0.255 OA
HETATM   32  C10 UNL     1      17.477  47.828  -8.534  1.00  0.00     0.189 A 
HETATM   33  C11 UNL     1      17.621  48.946  -9.431  1.00  0.00     0.157 A 
HETATM   34  N6  UNL     1      16.304  47.691  -7.819  1.00  0.00    -0.320 N 
HETATM   35  O8  UNL     1      16.614  49.810  -9.478  1.00  0.00    -0.303 OA
HETATM   36  C16 UNL     1      18.704  49.170 -10.215  1.00  0.00     0.122 A 
HETATM   37  C12 UNL     1      16.614  50.857 -10.231  1.00  0.00     0.114 A 
HETATM   38  C14 UNL     1      17.666  51.157 -11.051  1.00  0.00     0.150 A 
HETATM   39  C15 UNL     1      18.759  50.286 -11.052  1.00  0.00     0.236 A 
HETATM   40  O11 UNL     1      19.695  50.586 -11.805  1.00  0.00    -0.283 OA
ATOM     41  H6  UNL     1      15.570  48.388  -7.945  1.00  0.00     0.169 HD
BRANCH  37  42
HETATM   42  C13 UNL     1      15.451  51.777 -10.227  1.00  0.00     0.232 C 
BRANCH  42  43
HETATM   43  O9  UNL     1      15.751  52.885  -9.448  1.00  0.00    -0.394 OA
ATOM     44  H9  UNL     1      16.055  53.587 -10.010  1.00  0.00     0.209 HD
ENDBRANCH  42  43
ENDBRANCH  37  42
BRANCH  38  45
HETATM   45  O10 UNL     1      17.659  52.280 -11.856  1.00  0.00    -0.355 OA
ATOM     46  H10 UNL     1      17.803  52.221 -12.793  1.00  0.00     0.218 HD
ENDBRANCH  38  45
BRANCH  36  47
HETATM   47  N5  UNL     1      19.800  48.271 -10.273  1.00  0.00    -0.363 N 
ATOM     48  H5  UNL     1      19.686  47.438 -10.851  1.00  0.00     0.162 HD
BRANCH  47  49
HETATM   49  C17 UNL     1      21.062  48.427  -9.589  1.00  0.00     0.287 C 
BRANCH  49  50
HETATM   50  O12 UNL     1      21.038  47.972  -8.278  1.00  0.00    -0.382 OA
ATOM     51  H12 UNL     1      20.834  48.653  -7.647  1.00  0.00     0.211 HD
ENDBRANCH  49  50
ENDBRANCH  47  49
ENDBRANCH  36  47
ENDBRANCH   1  27
TORSDOF 15
ENDMDL
MODEL 2
REMARK VINA RESULT: -8.638699776      2.407      6.267
REMARK  15 active torsions:
REMARK  status: ('A' for Active; 'I' for Inactive)
REMARK    1  A    between atoms: N1_1  and  C1_4 
REMARK    2  A    between atoms: C2_10  and  C3_11 
REMARK    3  A    between atoms: C3_11  and  C4_13 
REMARK    4  A    between atoms: C5_15  and  C6_16 
REMARK    5  A    between atoms: C6_16  and  O4_17 
REMARK    6  A    between atoms: C6_16  and  O5_19 
REMARK    7  A    between atoms: C6_16  and  N4_21 
REMARK    8  A    between atoms: N4_21  and  C7_23 
REMARK    9  A    between atoms: C12_31  and  C13_32 
REMARK   10  A    between atoms: C13_32  and  O9_33 
REMARK   11  A    between atoms: C14_35  and  O10_36 
REMARK   12  A    between atoms: C16_40  and  N5_41 
REMARK   13  A    between atoms: N5_41  and  C17_43 
REMARK   14  A    between atoms: C17_43  and  O12_44 
REMARK   15  A    between atoms: C19_49  and  O13_50 
ROOT
HETATM    1  N4  UNL     1      18.658  46.892  -9.261  1.00  0.00    -0.316 N 
ATOM      2  H4  UNL     1      19.528  46.470  -9.585  1.00  0.00     0.167 HD
ENDROOT
BRANCH   1   3
HETATM    3  C6  UNL     1      17.864  47.615 -10.190  1.00  0.00     0.299 C 
BRANCH   3   4
HETATM    4  C5  UNL     1      18.540  48.897 -10.559  1.00  0.00     0.141 A 
HETATM    5  O3  UNL     1      17.918  49.935 -11.057  1.00  0.00    -0.300 OA
HETATM    6  C4  UNL     1      18.738  50.934 -11.296  1.00  0.00     0.161 A 
HETATM    7  C19 UNL     1      19.989  50.508 -10.921  1.00  0.00     0.106 A 
HETATM    8  C18 UNL     1      19.878  49.205 -10.448  1.00  0.00     0.080 A 
BRANCH   6   9
HETATM    9  C3  UNL     1      18.315  52.201 -11.844  1.00  0.00     0.240 C 
HETATM   10  O2  UNL     1      19.003  52.734 -12.747  1.00  0.00    -0.283 OA
BRANCH   9  11
HETATM   11  C2  UNL     1      17.122  52.910 -11.405  1.00  0.00     0.154 A 
HETATM   12  C1  UNL     1      16.963  54.211 -10.985  1.00  0.00     0.154 A 
HETATM   13  N2  UNL     1      15.653  54.385 -10.705  1.00  0.00    -0.224 N 
HETATM   14  O1  UNL     1      15.042  53.278 -10.932  1.00  0.00    -0.155 OA
ATOM     15  H2  UNL     1      15.223  55.247 -10.371  1.00  0.00     0.198 HD
HETATM   16  N3  UNL     1      15.860  52.367 -11.348  1.00  0.00    -0.234 N 
ATOM     17  H3  UNL     1      15.612  51.409 -11.593  1.00  0.00     0.197 HD
BRANCH  12  18
HETATM   18  N1  UNL     1      17.894  55.105 -10.864  1.00  0.00    -0.382 N 
ATOM     19  H12 UNL     1      17.935  55.851 -10.170  1.00  0.00     0.157 HD
ATOM     20  H11 UNL     1      18.717  55.198 -11.457  1.00  0.00     0.157 HD
ENDBRANCH  12  18
ENDBRANCH   9  11
ENDBRANCH   6   9
BRANCH   7  21
HETATM   21  O13 UNL     1      21.156  51.233 -10.997  1.00  0.00    -0.358 OA
ATOM     22  H13 UNL     1      21.914  51.028 -11.531  1.00  0.00     0.217 HD
ENDBRANCH   7  21
ENDBRANCH   3   4
BRANCH   3  23
HETATM   23  O4  UNL     1      16.628  47.926  -9.626  1.00  0.00    -0.343 OA
ATOM     24  H4  UNL     1      16.685  47.773  -8.690  1.00  0.00     0.215 HD
ENDBRANCH   3  23
BRANCH   3  25
HETATM   25  O5  UNL     1      17.744  46.888 -11.380  1.00  0.00    -0.343 OA
ATOM     26  H5  UNL     1      18.505  47.116 -11.902  1.00  0.00     0.215 HD
ENDBRANCH   3  25
ENDBRANCH   1   3
BRANCH   1  27
HETATM   27  C7  UNL     1      18.286  46.727  -7.883  1.00  0.00     0.113 A 
HETATM   28  C8  UNL     1      18.206  45.454  -7.357  1.00  0.00     0.131 A 
HETATM   29  C9  UNL     1      17.833  45.390  -6.019  1.00  0.00     0.293 A 
HETATM   30  O6  UNL     1      17.754  44.235  -5.523  1.00  0.00    -0.260 OA
HETATM   31  O7  UNL     1      17.597  46.480  -5.383  1.00  0.00    -0.255 OA
HETATM   32  C10 UNL     1      17.650  47.705  -5.802  1.00  0.00     0.189 A 
HETATM   33  C11 UNL     1      17.378  48.913  -5.065  1.00  0.00     0.157 A 
HETATM   34  N6  UNL     1      18.017  47.800  -7.130  1.00  0.00    -0.320 N 
HETATM   35  O8  UNL     1      17.458  50.055  -5.737  1.00  0.00    -0.303 OA
HETATM   36  C16 UNL     1      17.047  48.954  -3.751  1.00  0.00     0.122 A 
HETATM   37  C12 UNL     1      17.235  51.207  -5.202  1.00  0.00     0.114 A 
HETATM   38  C14 UNL     1      16.894  51.338  -3.884  1.00  0.00     0.150 A 
HETATM   39  C15 UNL     1      16.795  50.173  -3.119  1.00  0.00     0.236 A 
HETATM   40  O11 UNL     1      16.487  50.326  -1.930  1.00  0.00    -0.283 OA
ATOM     41  H6  UNL     1      18.086  48.725  -7.553  1.00  0.00     0.169 HD
BRANCH  37  42
HETATM   42  C13 UNL     1      17.343  52.440  -6.018  1.00  0.00     0.232 C 
BRANCH  42  43
HETATM   43  O9  UNL     1      16.150  53.144  -5.938  1.00  0.00    -0.394 OA
ATOM     44  H9  UNL     1      16.192  53.894  -6.518  1.00  0.00     0.209 HD
ENDBRANCH  42  43
ENDBRANCH  37  42
BRANCH  38  45
HETATM   45  O10 UNL     1      16.657  52.576  -3.318  1.00  0.00    -0.355 OA
ATOM     46  H10 UNL     1      17.144  52.879  -2.561  1.00  0.00     0.218 HD
ENDBRANCH  38  45
BRANCH  36  47
HETATM   47  N5  UNL     1      16.995  47.790  -2.942  1.00  0.00    -0.363 N 
ATOM     48  H5  UNL     1      17.863  47.497  -2.494  1.00  0.00     0.162 HD
BRANCH  47  49
HETATM   49  C17 UNL     1      15.825  46.981  -2.695  1.00  0.00     0.287 C 
BRANCH  49  50
HETATM   50  O12 UNL     1      15.966  45.666  -3.114  1.00  0.00    -0.382 OA
ATOM     51  H12 UNL     1      15.334  45.075  -2.722  1.00  0.00     0.211 HD
ENDBRANCH  49  50
ENDBRANCH  47  49
ENDBRANCH  36  47
ENDBRANCH   1  27
TORSDOF 15
ENDMDL
MODEL 3
REMARK VINA RESULT: -8.398697379      2.121      5.792
REMARK  15 active torsions:
REMARK  status: ('A' for Active; 'I' for Inactive)
REMARK    1  A    between atoms: N1_1  and  C1_4 
REMARK    2  A    between atoms: C2_10  and  C3_11 
REMARK    3  A    between atoms: C3_11  and  C4_13 
REMARK    4  A    between atoms: C5_15  and  C6_16 
REMARK    5  A    between atoms: C6_16  and  O4_17 
REMARK    6  A    between atoms: C6_16  and  O5_19 
REMARK    7  A    between atoms: C6_16  and  N4_21 
REMARK    8  A    between atoms: N4_21  and  C7_23 
REMARK    9  A    between atoms: C12_31  and  C13_32 
REMARK   10  A    between atoms: C13_32  and  O9_33 
REMARK   11  A    between atoms: C14_35  and  O10_36 
REMARK   12  A    between atoms: C16_40  and  N5_41 
REMARK   13  A    between atoms: N5_41  and  C17_43 
REMARK   14  A    between atoms: C17_43  and  O12_44 
REMARK   15  A    between atoms: C19_49  and  O13_50 
ROOT
HETATM    1  N4  UNL     1      20.234  47.877  -8.862  1.00  0.00    -0.316 N 
ATOM      2  H4  UNL     1      21.134  48.303  -9.081  1.00  0.00     0.167 HD
ENDROOT
BRANCH   1   3
HETATM    3  C6  UNL     1      19.261  47.775  -9.891  1.00  0.00     0.299 C 
BRANCH   3   4
HETATM    4  C5  UNL     1      18.105  48.678  -9.600  1.00  0.00     0.141 A 
HETATM    5  O3  UNL     1      18.191  49.770  -8.883  1.00  0.00    -0.300 OA
HETATM    6  C4  UNL     1      17.033  50.383  -8.777  1.00  0.00     0.161 A 
HETATM    7  C19 UNL     1      16.127  49.628  -9.482  1.00  0.00     0.106 A 
HETATM    8  C18 UNL     1      16.799  48.533 -10.015  1.00  0.00     0.080 A 
BRANCH   6   9
HETATM    9  C3  UNL     1      16.845  51.612  -8.043  1.00  0.00     0.240 C 
HETATM   10  O2  UNL     1      16.623  52.671  -8.677  1.00  0.00    -0.283 OA
BRANCH   9  11
HETATM   11  C2  UNL     1      16.899  51.699  -6.592  1.00  0.00     0.154 A 
HETATM   12  C1  UNL     1      17.250  52.751  -5.775  1.00  0.00     0.154 A 
HETATM   13  N2  UNL     1      17.118  52.329  -4.499  1.00  0.00    -0.224 N 
HETATM   14  O1  UNL     1      16.717  51.109  -4.517  1.00  0.00    -0.155 OA
ATOM     15  H2  UNL     1      17.305  52.884  -3.664  1.00  0.00     0.198 HD
HETATM   16  N3  UNL     1      16.570  50.682  -5.729  1.00  0.00    -0.234 N 
ATOM     17  H3  UNL     1      16.262  49.747  -5.999  1.00  0.00     0.197 HD
BRANCH  12  18
HETATM   18  N1  UNL     1      17.648  53.925  -6.153  1.00  0.00    -0.382 N 
ATOM     19  H12 UNL     1      17.854  54.722  -5.551  1.00  0.00     0.157 HD
ATOM     20  H11 UNL     1      17.803  54.226  -7.115  1.00  0.00     0.157 HD
ENDBRANCH  12  18
ENDBRANCH   9  11
ENDBRANCH   6   9
BRANCH   7  21
HETATM   21  O13 UNL     1      14.787  49.898  -9.641  1.00  0.00    -0.358 OA
ATOM     22  H13 UNL     1      14.080  49.589  -9.086  1.00  0.00     0.217 HD
ENDBRANCH   7  21
ENDBRANCH   3   4
BRANCH   3  23
HETATM   23  O4  UNL     1      18.779  46.470  -9.969  1.00  0.00    -0.343 OA
ATOM     24  H4  UNL     1      18.979  46.134 -10.836  1.00  0.00     0.215 HD
ENDBRANCH   3  23
BRANCH   3  25
HETATM   25  O5  UNL     1      19.801  48.222 -11.103  1.00  0.00    -0.343 OA
ATOM     26  H5  UNL     1      20.739  48.280 -10.963  1.00  0.00     0.215 HD
ENDBRANCH   3  25
ENDBRANCH   1   3
BRANCH   1  27
HETATM   27  C7  UNL     1      20.005  47.403  -7.525  1.00  0.00     0.113 A 
HETATM   28  C8  UNL     1      21.063  46.890  -6.804  1.00  0.00     0.131 A 
HETATM   29  C9  UNL     1      20.748  46.450  -5.524  1.00  0.00     0.293 A 
HETATM   30  O6  UNL     1      21.703  45.977  -4.852  1.00  0.00    -0.260 OA
HETATM   31  O7  UNL     1      19.537  46.546  -5.110  1.00  0.00    -0.255 OA
HETATM   32  C10 UNL     1      18.494  47.013  -5.721  1.00  0.00     0.189 A 
HETATM   33  C11 UNL     1      17.142  47.109  -5.232  1.00  0.00     0.157 A 
HETATM   34  N6  UNL     1      18.777  47.458  -6.997  1.00  0.00    -0.320 N 
HETATM   35  O8  UNL     1      16.233  47.587  -6.074  1.00  0.00    -0.303 OA
HETATM   36  C16 UNL     1      16.746  46.743  -3.989  1.00  0.00     0.122 A 
HETATM   37  C12 UNL     1      14.988  47.721  -5.768  1.00  0.00     0.114 A 
HETATM   38  C14 UNL     1      14.504  47.375  -4.537  1.00  0.00     0.150 A 
HETATM   39  C15 UNL     1      15.410  46.866  -3.602  1.00  0.00     0.236 A 
HETATM   40  O11 UNL     1      14.942  46.564  -2.497  1.00  0.00    -0.283 OA
ATOM     41  H6  UNL     1      18.018  47.842  -7.561  1.00  0.00     0.169 HD
BRANCH  37  42
HETATM   42  C13 UNL     1      14.031  48.261  -6.763  1.00  0.00     0.232 C 
BRANCH  42  43
HETATM   43  O9  UNL     1      13.974  49.641  -6.636  1.00  0.00    -0.394 OA
ATOM     44  H9  UNL     1      13.393  49.992  -7.300  1.00  0.00     0.209 HD
ENDBRANCH  42  43
ENDBRANCH  37  42
BRANCH  38  45
HETATM   45  O10 UNL     1      13.168  47.521  -4.217  1.00  0.00    -0.355 OA
ATOM     46  H10 UNL     1      12.815  47.200  -3.395  1.00  0.00     0.218 HD
ENDBRANCH  38  45
BRANCH  36  47
HETATM   47  N5  UNL     1      17.657  46.277  -3.006  1.00  0.00    -0.363 N 
ATOM     48  H5  UNL     1      17.908  45.289  -3.038  1.00  0.00     0.162 HD
BRANCH  47  49
HETATM   49  C17 UNL     1      18.261  47.073  -1.964  1.00  0.00     0.287 C 
BRANCH  49  50
HETATM   50  O12 UNL     1      19.133  48.039  -2.445  1.00  0.00    -0.382 OA
ATOM     51  H12 UNL     1      19.976  48.039  -2.006  1.00  0.00     0.211 HD
ENDBRANCH  49  50
ENDBRANCH  47  49
ENDBRANCH  36  47
ENDBRANCH   1  27
TORSDOF 15
ENDMDL
MODEL 4
REMARK VINA RESULT: -8.258719089      2.446      3.321
REMARK  15 active torsions:
REMARK  status: ('A' for Active; 'I' for Inactive)
REMARK    1  A    between atoms: N1_1  and  C1_4 
REMARK    2  A    between atoms: C2_10  and  C3_11 
REMARK    3  A    between atoms: C3_11  and  C4_13 
REMARK    4  A    between atoms: C5_15  and  C6_16 
REMARK    5  A    between atoms: C6_16  and  O4_17 
REMARK    6  A    between atoms: C6_16  and  O5_19 
REMARK    7  A    between atoms: C6_16  and  N4_21 
REMARK    8  A    between atoms: N4_21  and  C7_23 
REMARK    9  A    between atoms: C12_31  and  C13_32 
REMARK   10  A    between atoms: C13_32  and  O9_33 
REMARK   11  A    between atoms: C14_35  and  O10_36 
REMARK   12  A    between atoms: C16_40  and  N5_41 
REMARK   13  A    between atoms: N5_41  and  C17_43 
REMARK   14  A    between atoms: C17_43  and  O12_44 
REMARK   15  A    between atoms: C19_49  and  O13_50 
ROOT
HETATM    1  N4  UNL     1      14.729  47.733  -7.230  1.00  0.00    -0.316 N 
ATOM      2  H4  UNL     1      14.049  47.046  -7.554  1.00  0.00     0.167 HD
ENDROOT
BRANCH   1   3
HETATM    3  C6  UNL     1      14.379  48.579  -6.146  1.00  0.00     0.299 C 
BRANCH   3   4
HETATM    4  C5  UNL     1      15.084  48.144  -4.901  1.00  0.00     0.141 A 
HETATM    5  O3  UNL     1      16.365  48.313  -4.688  1.00  0.00    -0.300 OA
HETATM    6  C4  UNL     1      16.736  47.842  -3.519  1.00  0.00     0.161 A 
HETATM    7  C19 UNL     1      15.607  47.330  -2.929  1.00  0.00     0.106 A 
HETATM    8  C18 UNL     1      14.541  47.516  -3.802  1.00  0.00     0.080 A 
BRANCH   6   9
HETATM    9  C3  UNL     1      18.094  47.900  -3.030  1.00  0.00     0.240 C 
HETATM   10  O2  UNL     1      18.318  48.440  -1.920  1.00  0.00    -0.283 OA
BRANCH   9  11
HETATM   11  C2  UNL     1      19.235  47.365  -3.757  1.00  0.00     0.154 A 
HETATM   12  C1  UNL     1      20.310  46.630  -3.311  1.00  0.00     0.154 A 
HETATM   13  N2  UNL     1      21.086  46.362  -4.383  1.00  0.00    -0.224 N 
HETATM   14  O1  UNL     1      20.539  46.889  -5.418  1.00  0.00    -0.155 OA
ATOM     15  H2  UNL     1      21.957  45.832  -4.373  1.00  0.00     0.198 HD
HETATM   16  N3  UNL     1      19.440  47.497  -5.109  1.00  0.00    -0.234 N 
ATOM     17  H3  UNL     1      18.828  47.991  -5.759  1.00  0.00     0.197 HD
BRANCH  12  18
HETATM   18  N1  UNL     1      20.549  46.271  -2.088  1.00  0.00    -0.382 N 
ATOM     19  H12 UNL     1      21.197  45.546  -1.781  1.00  0.00     0.157 HD
ATOM     20  H11 UNL     1      20.109  46.656  -1.252  1.00  0.00     0.157 HD
ENDBRANCH  12  18
ENDBRANCH   9  11
ENDBRANCH   6   9
BRANCH   7  21
HETATM   21  O13 UNL     1      15.530  46.735  -1.690  1.00  0.00    -0.358 OA
ATOM     22  H13 UNL     1      14.807  46.797  -1.078  1.00  0.00     0.217 HD
ENDBRANCH   7  21
ENDBRANCH   3   4
BRANCH   3  23
HETATM   23  O4  UNL     1      13.006  48.513  -5.909  1.00  0.00    -0.343 OA
ATOM     24  H4  UNL     1      12.562  48.539  -6.749  1.00  0.00     0.215 HD
ENDBRANCH   3  23
BRANCH   3  25
HETATM   25  O5  UNL     1      14.818  49.884  -6.399  1.00  0.00    -0.343 OA
ATOM     26  H5  UNL     1      14.856  50.314  -5.552  1.00  0.00     0.215 HD
ENDBRANCH   3  25
ENDBRANCH   1   3
BRANCH   1  27
HETATM   27  C7  UNL     1      16.003  47.803  -7.891  1.00  0.00     0.113 A 
HETATM   28  C8  UNL     1      16.929  46.804  -7.672  1.00  0.00     0.131 A 
HETATM   29  C9  UNL     1      18.135  46.957  -8.346  1.00  0.00     0.293 A 
HETATM   30  O6  UNL     1      18.992  46.054  -8.157  1.00  0.00    -0.260 OA
HETATM   31  O7  UNL     1      18.303  47.981  -9.102  1.00  0.00    -0.255 OA
HETATM   32  C10 UNL     1      17.488  48.955  -9.359  1.00  0.00     0.189 A 
HETATM   33  C11 UNL     1      17.704  50.095 -10.214  1.00  0.00     0.157 A 
HETATM   34  N6  UNL     1      16.281  48.830  -8.702  1.00  0.00    -0.320 N 
HETATM   35  O8  UNL     1      16.724  50.989 -10.278  1.00  0.00    -0.303 OA
HETATM   36  C16 UNL     1      18.827  50.311 -10.941  1.00  0.00     0.122 A 
HETATM   37  C12 UNL     1      16.786  52.057 -10.998  1.00  0.00     0.114 A 
HETATM   38  C14 UNL     1      17.883  52.351 -11.760  1.00  0.00     0.150 A 
HETATM   39  C15 UNL     1      18.951  51.450 -11.739  1.00  0.00     0.236 A 
HETATM   40  O11 UNL     1      19.927  51.745 -12.440  1.00  0.00    -0.283 OA
ATOM     41  H6  UNL     1      15.572  49.551  -8.839  1.00  0.00     0.169 HD
BRANCH  37  42
HETATM   42  C13 UNL     1      15.651  53.009 -11.017  1.00  0.00     0.232 C 
BRANCH  42  43
HETATM   43  O9  UNL     1      15.449  53.502  -9.736  1.00  0.00    -0.394 OA
ATOM     44  H9  UNL     1      14.517  53.610  -9.587  1.00  0.00     0.209 HD
ENDBRANCH  42  43
ENDBRANCH  37  42
BRANCH  38  45
HETATM   45  O10 UNL     1      17.943  53.498 -12.529  1.00  0.00    -0.355 OA
ATOM     46  H10 UNL     1      18.620  53.623 -13.183  1.00  0.00     0.218 HD
ENDBRANCH  38  45
BRANCH  36  47
HETATM   47  N5  UNL     1      19.900  49.383 -10.978  1.00  0.00    -0.363 N 
ATOM     48  H5  UNL     1      19.807  48.594 -11.617  1.00  0.00     0.162 HD
BRANCH  47  49
HETATM   49  C17 UNL     1      21.110  49.454 -10.194  1.00  0.00     0.287 C 
BRANCH  49  50
HETATM   50  O12 UNL     1      21.111  48.595  -9.104  1.00  0.00    -0.382 OA
ATOM     51  H12 UNL     1      20.272  48.550  -8.659  1.00  0.00     0.211 HD
ENDBRANCH  49  50
ENDBRANCH  47  49
ENDBRANCH  36  47
ENDBRANCH   1  27
TORSDOF 15
ENDMDL
MODEL 5
REMARK VINA RESULT: -8.244204839      2.223      3.611
REMARK  15 active torsions:
REMARK  status: ('A' for Active; 'I' for Inactive)
REMARK    1  A    between atoms: N1_1  and  C1_4 
REMARK    2  A    between atoms: C2_10  and  C3_11 
REMARK    3  A    between atoms: C3_11  and  C4_13 
REMARK    4  A    between atoms: C5_15  and  C6_16 
REMARK    5  A    between atoms: C6_16  and  O4_17 
REMARK    6  A    between atoms: C6_16  and  O5_19 
REMARK    7  A    between atoms: C6_16  and  N4_21 
REMARK    8  A    between atoms: N4_21  and  C7_23 
REMARK    9  A    between atoms: C12_31  and  C13_32 
REMARK   10  A    between atoms: C13_32  and  O9_33 
REMARK   11  A    between atoms: C14_35  and  O10_36 
REMARK   12  A    between atoms: C16_40  and  N5_41 
REMARK   13  A    between atoms: N5_41  and  C17_43 
REMARK   14  A    between atoms: C17_43  and  O12_44 
REMARK   15  A    between atoms: C19_49  and  O13_50 
ROOT
HETATM    1  N4  UNL     1      14.791  47.582  -7.248  1.00  0.00    -0.316 N 
ATOM      2  H4  UNL     1      14.184  46.791  -7.459  1.00  0.00     0.167 HD
ENDROOT
BRANCH   1   3
HETATM    3  C6  UNL     1      14.345  48.550  -6.310  1.00  0.00     0.299 C 
BRANCH   3   4
HETATM    4  C5  UNL     1      15.468  48.951  -5.407  1.00  0.00     0.141 A 
HETATM    5  O3  UNL     1      16.139  48.114  -4.657  1.00  0.00    -0.300 OA
HETATM    6  C4  UNL     1      17.074  48.719  -3.958  1.00  0.00     0.161 A 
HETATM    7  C19 UNL     1      17.002  50.051  -4.283  1.00  0.00     0.106 A 
HETATM    8  C18 UNL     1      15.979  50.215  -5.210  1.00  0.00     0.080 A 
BRANCH   6   9
HETATM    9  C3  UNL     1      17.962  48.031  -3.050  1.00  0.00     0.240 C 
HETATM   10  O2  UNL     1      18.367  48.630  -2.025  1.00  0.00    -0.283 OA
BRANCH   9  11
HETATM   11  C2  UNL     1      18.424  46.667  -3.255  1.00  0.00     0.154 A 
HETATM   12  C1  UNL     1      19.407  45.953  -2.608  1.00  0.00     0.154 A 
HETATM   13  N2  UNL     1      19.437  44.720  -3.158  1.00  0.00    -0.224 N 
HETATM   14  O1  UNL     1      18.542  44.668  -4.078  1.00  0.00    -0.155 OA
ATOM     15  H2  UNL     1      20.062  43.961  -2.890  1.00  0.00     0.198 HD
HETATM   16  N3  UNL     1      17.910  45.792  -4.181  1.00  0.00    -0.234 N 
ATOM     17  H3  UNL     1      17.157  45.995  -4.840  1.00  0.00     0.197 HD
BRANCH  12  18
HETATM   18  N1  UNL     1      20.177  46.382  -1.657  1.00  0.00    -0.382 N 
ATOM     19  H12 UNL     1      20.800  45.820  -1.076  1.00  0.00     0.157 HD
ATOM     20  H11 UNL     1      20.261  47.349  -1.343  1.00  0.00     0.157 HD
ENDBRANCH  12  18
ENDBRANCH   9  11
ENDBRANCH   6   9
BRANCH   7  21
HETATM   21  O13 UNL     1      17.799  51.057  -3.786  1.00  0.00    -0.358 OA
ATOM     22  H13 UNL     1      18.448  51.554  -4.270  1.00  0.00     0.217 HD
ENDBRANCH   7  21
ENDBRANCH   3   4
BRANCH   3  23
HETATM   23  O4  UNL     1      13.326  48.021  -5.520  1.00  0.00    -0.343 OA
ATOM     24  H4  UNL     1      13.628  47.192  -5.167  1.00  0.00     0.215 HD
ENDBRANCH   3  23
BRANCH   3  25
HETATM   25  O5  UNL     1      13.956  49.717  -6.978  1.00  0.00    -0.343 OA
ATOM     26  H5  UNL     1      13.750  49.450  -7.867  1.00  0.00     0.215 HD
ENDBRANCH   3  25
ENDBRANCH   1   3
BRANCH   1  27
HETATM   27  C7  UNL     1      16.062  47.670  -7.912  1.00  0.00     0.113 A 
HETATM   28  C8  UNL     1      16.996  46.675  -7.708  1.00  0.00     0.131 A 
HETATM   29  C9  UNL     1      18.198  46.846  -8.385  1.00  0.00     0.293 A 
HETATM   30  O6  UNL     1      19.063  45.947  -8.210  1.00  0.00    -0.260 OA
HETATM   31  O7  UNL     1      18.356  47.880  -9.128  1.00  0.00    -0.255 OA
HETATM   32  C10 UNL     1      17.533  48.852  -9.370  1.00  0.00     0.189 A 
HETATM   33  C11 UNL     1      17.737  50.005 -10.211  1.00  0.00     0.157 A 
HETATM   34  N6  UNL     1      16.329  48.710  -8.710  1.00  0.00    -0.320 N 
HETATM   35  O8  UNL     1      16.750  50.891 -10.260  1.00  0.00    -0.303 OA
HETATM   36  C16 UNL     1      18.856  50.238 -10.939  1.00  0.00     0.122 A 
HETATM   37  C12 UNL     1      16.802  51.969 -10.967  1.00  0.00     0.114 A 
HETATM   38  C14 UNL     1      17.894  52.281 -11.729  1.00  0.00     0.150 A 
HETATM   39  C15 UNL     1      18.969  51.388 -11.723  1.00  0.00     0.236 A 
HETATM   40  O11 UNL     1      19.940  51.699 -12.423  1.00  0.00    -0.283 OA
ATOM     41  H6  UNL     1      15.615  49.427  -8.836  1.00  0.00     0.169 HD
BRANCH  37  42
HETATM   42  C13 UNL     1      15.660  52.913 -10.970  1.00  0.00     0.232 C 
BRANCH  42  43
HETATM   43  O9  UNL     1      15.491  53.428  -9.693  1.00  0.00    -0.394 OA
ATOM     44  H9  UNL     1      15.977  54.240  -9.618  1.00  0.00     0.209 HD
ENDBRANCH  42  43
ENDBRANCH  37  42
BRANCH  38  45
HETATM   45  O10 UNL     1      17.943  53.438 -12.483  1.00  0.00    -0.355 OA
ATOM     46  H10 UNL     1      18.761  53.768 -12.835  1.00  0.00     0.218 HD
ENDBRANCH  38  45
BRANCH  36  47
HETATM   47  N5  UNL     1      19.936  49.319 -10.992  1.00  0.00    -0.363 N 
ATOM     48  H5  UNL     1      19.846  48.536 -11.639  1.00  0.00     0.162 HD
BRANCH  47  49
HETATM   49  C17 UNL     1      21.149  49.389 -10.212  1.00  0.00     0.287 C 
BRANCH  49  50
HETATM   50  O12 UNL     1      21.138  48.559  -9.101  1.00  0.00    -0.382 OA
ATOM     51  H12 UNL     1      21.870  48.706  -8.513  1.00  0.00     0.211 HD
ENDBRANCH  49  50
ENDBRANCH  47  49
ENDBRANCH  36  47
ENDBRANCH   1  27
TORSDOF 15
ENDMDL
