MODEL 1
REMARK VINA RESULT: -9.965280760      0.000      0.000
REMARK  5 active torsions:
REMARK  status: ('A' for Active; 'I' for Inactive)
REMARK    1  A    between atoms: C3_4  and  C4_5 
REMARK       I    between atoms: C4_5  and  N2_7 
REMARK    2  A    between atoms: C10_15  and  C11_16 
REMARK    3  A    between atoms: C11_16  and  C12_17 
REMARK       I    between atoms: C12_17  and  N3_19 
REMARK    4  A    between atoms: N3_19  and  C13_21 
REMARK    5  A    between atoms: C13_21  and  C14_22 
ROOT
HETATM    1  C1  UNL     1      21.754   2.014 -24.189  1.00  0.00     0.152 C 
HETATM    2  N1  UNL     1      20.468   2.450 -23.834  1.00  0.00    -0.355 N 
HETATM    3  C2  UNL     1      19.725   3.457 -24.560  1.00  0.00     0.139 C 
HETATM    4  C3  UNL     1      18.783   4.047 -23.496  1.00  0.00     0.097 C 
HETATM    5  C9  UNL     1      17.692   3.075 -23.241  1.00  0.00     0.030 C 
HETATM    6  C10 UNL     1      18.293   1.739 -22.758  1.00  0.00     0.087 C 
HETATM    7  C24 UNL     1      19.780   1.915 -22.682  1.00  0.00     0.224 C 
HETATM    8  O4  UNL     1      20.396   1.609 -21.648  1.00  0.00    -0.273 OA
ENDROOT
BRANCH   6   9
HETATM    9  C11 UNL     1      17.913   0.655 -23.704  1.00  0.00     0.117 C 
BRANCH   9  10
HETATM   10  C12 UNL     1      18.834  -0.528 -23.538  1.00  0.00     0.222 C 
HETATM   11  O3  UNL     1      19.517  -0.840 -24.521  1.00  0.00    -0.273 OA
HETATM   12  N3  UNL     1      18.818  -1.154 -22.283  1.00  0.00    -0.340 N 
ATOM     13  H3  UNL     1      18.198  -0.740 -21.588  1.00  0.00     0.167 HD
BRANCH  12  14
HETATM   14  C13 UNL     1      19.539  -2.265 -21.864  1.00  0.00     0.073 C 
BRANCH  14  15
HETATM   15  C14 UNL     1      20.792  -2.107 -21.092  1.00  0.00    -0.007 C 
HETATM   16  C15 UNL     1      21.339  -3.504 -20.762  1.00  0.00     0.019 C 
HETATM   17  C16 UNL     1      22.498  -3.371 -19.838  1.00  0.00    -0.013 C 
HETATM   18  C17 UNL     1      22.031  -2.745 -18.535  1.00  0.00     0.009 C 
HETATM   19  C21 UNL     1      23.594  -2.509 -20.385  1.00  0.00     0.009 C 
HETATM   20  C18 UNL     1      21.486  -1.375 -18.806  1.00  0.00    -0.013 C 
HETATM   21  C19 UNL     1      22.525  -0.444 -19.434  1.00  0.00     0.009 C 
HETATM   22  C23 UNL     1      20.352  -1.451 -19.764  1.00  0.00     0.019 C 
HETATM   23  C20 UNL     1      23.028  -1.137 -20.653  1.00  0.00    -0.013 C 
HETATM   24  C22 UNL     1      21.903  -1.327 -21.675  1.00  0.00     0.019 C 
ENDBRANCH  14  15
ENDBRANCH  12  14
ENDBRANCH   9  10
ENDBRANCH   6   9
BRANCH   4  25
HETATM   25  C4  UNL     1      18.327   5.398 -23.821  1.00  0.00     0.225 C 
HETATM   26  O1  UNL     1      17.112   5.643 -24.082  1.00  0.00    -0.273 OA
HETATM   27  N2  UNL     1      19.250   6.476 -23.855  1.00  0.00    -0.347 N 
HETATM   28  C5  UNL     1      18.784   7.833 -24.209  1.00  0.00     0.152 C 
HETATM   29  C8  UNL     1      20.657   6.365 -23.532  1.00  0.00     0.169 C 
HETATM   30  C6  UNL     1      19.752   8.811 -23.639  1.00  0.00     0.189 C 
HETATM   31  O2  UNL     1      21.032   8.683 -24.106  1.00  0.00    -0.372 OA
HETATM   32  C7  UNL     1      21.407   7.375 -24.367  1.00  0.00     0.210 C 
HETATM   33 BR1  UNL     1      21.042   7.018 -26.230  1.00  0.00    -0.060 Br
ENDBRANCH   4  25
TORSDOF 5
ENDMDL
MODEL 2
REMARK VINA RESULT: -9.928560918      1.869      2.731
REMARK  5 active torsions:
REMARK  status: ('A' for Active; 'I' for Inactive)
REMARK    1  A    between atoms: C3_4  and  C4_5 
REMARK       I    between atoms: C4_5  and  N2_7 
REMARK    2  A    between atoms: C10_15  and  C11_16 
REMARK    3  A    between atoms: C11_16  and  C12_17 
REMARK       I    between atoms: C12_17  and  N3_19 
REMARK    4  A    between atoms: N3_19  and  C13_21 
REMARK    5  A    between atoms: C13_21  and  C14_22 
ROOT
HETATM    1  C1  UNL     1      21.505   5.170 -25.268  1.00  0.00     0.152 C 
HETATM    2  N1  UNL     1      20.225   5.030 -24.711  1.00  0.00    -0.355 N 
HETATM    3  C2  UNL     1      19.120   5.923 -24.984  1.00  0.00     0.139 C 
HETATM    4  C3  UNL     1      18.238   5.801 -23.730  1.00  0.00     0.097 C 
HETATM    5  C9  UNL     1      17.522   4.503 -23.782  1.00  0.00     0.030 C 
HETATM    6  C10 UNL     1      18.545   3.351 -23.845  1.00  0.00     0.087 C 
HETATM    7  C24 UNL     1      19.914   3.960 -23.792  1.00  0.00     0.224 C 
HETATM    8  O4  UNL     1      20.752   3.550 -22.973  1.00  0.00    -0.273 OA
ENDROOT
BRANCH   6   9
HETATM    9  C11 UNL     1      18.335   2.571 -25.095  1.00  0.00     0.117 C 
BRANCH   9  10
HETATM   10  C12 UNL     1      19.064   1.253 -25.015  1.00  0.00     0.222 C 
HETATM   11  O3  UNL     1      19.799   0.968 -25.969  1.00  0.00    -0.273 OA
HETATM   12  N3  UNL     1      18.831   0.484 -23.865  1.00  0.00    -0.340 N 
ATOM     13  H3  UNL     1      18.202   0.896 -23.176  1.00  0.00     0.167 HD
BRANCH  12  14
HETATM   14  C13 UNL     1      19.345  -0.766 -23.544  1.00  0.00     0.073 C 
BRANCH  14  15
HETATM   15  C14 UNL     1      20.165  -0.955 -22.326  1.00  0.00    -0.007 C 
HETATM   16  C15 UNL     1      19.774   0.123 -21.304  1.00  0.00     0.019 C 
HETATM   17  C16 UNL     1      20.705   0.061 -20.146  1.00  0.00    -0.013 C 
HETATM   18  C17 UNL     1      22.115   0.372 -20.618  1.00  0.00     0.009 C 
HETATM   19  C21 UNL     1      20.737  -1.281 -19.484  1.00  0.00     0.009 C 
HETATM   20  C18 UNL     1      22.543  -0.656 -21.621  1.00  0.00    -0.013 C 
HETATM   21  C19 UNL     1      22.537  -2.074 -21.046  1.00  0.00     0.009 C 
HETATM   22  C23 UNL     1      21.613  -0.666 -22.780  1.00  0.00     0.019 C 
HETATM   23  C20 UNL     1      21.168  -2.304 -20.507  1.00  0.00    -0.013 C 
HETATM   24  C22 UNL     1      20.125  -2.257 -21.628  1.00  0.00     0.019 C 
ENDBRANCH  14  15
ENDBRANCH  12  14
ENDBRANCH   9  10
ENDBRANCH   6   9
BRANCH   4  25
HETATM   25  C4  UNL     1      17.374   6.962 -23.522  1.00  0.00     0.225 C 
HETATM   26  O1  UNL     1      16.130   6.912 -23.752  1.00  0.00    -0.273 OA
HETATM   27  N2  UNL     1      17.921   8.186 -23.054  1.00  0.00    -0.347 N 
HETATM   28  C5  UNL     1      17.043   9.361 -22.871  1.00  0.00     0.152 C 
HETATM   29  C8  UNL     1      19.310   8.384 -22.699  1.00  0.00     0.169 C 
HETATM   30  C6  UNL     1      17.697  10.270 -21.889  1.00  0.00     0.189 C 
HETATM   31  O2  UNL     1      18.926  10.733 -22.271  1.00  0.00    -0.372 OA
HETATM   32  C7  UNL     1      19.667   9.819 -23.004  1.00  0.00     0.210 C 
HETATM   33 BR1  UNL     1      19.326  10.149 -24.876  1.00  0.00    -0.060 Br
ENDBRANCH   4  25
TORSDOF 5
ENDMDL
MODEL 3
REMARK VINA RESULT: -9.903415643      0.138      1.308
REMARK  5 active torsions:
REMARK  status: ('A' for Active; 'I' for Inactive)
REMARK    1  A    between atoms: C3_4  and  C4_5 
REMARK       I    between atoms: C4_5  and  N2_7 
REMARK    2  A    between atoms: C10_15  and  C11_16 
REMARK    3  A    between atoms: C11_16  and  C12_17 
REMARK       I    between atoms: C12_17  and  N3_19 
REMARK    4  A    between atoms: N3_19  and  C13_21 
REMARK    5  A    between atoms: C13_21  and  C14_22 
ROOT
HETATM    1  C1  UNL     1      21.732   2.001 -24.260  1.00  0.00     0.152 C 
HETATM    2  N1  UNL     1      20.457   2.447 -23.879  1.00  0.00    -0.355 N 
HETATM    3  C2  UNL     1      19.704   3.453 -24.595  1.00  0.00     0.139 C 
HETATM    4  C3  UNL     1      18.790   4.056 -23.514  1.00  0.00     0.097 C 
HETATM    5  C9  UNL     1      17.699   3.093 -23.228  1.00  0.00     0.030 C 
HETATM    6  C10 UNL     1      18.303   1.757 -22.750  1.00  0.00     0.087 C 
HETATM    7  C24 UNL     1      19.792   1.924 -22.708  1.00  0.00     0.224 C 
HETATM    8  O4  UNL     1      20.430   1.621 -21.687  1.00  0.00    -0.273 OA
ENDROOT
BRANCH   6   9
HETATM    9  C11 UNL     1      17.895   0.668 -23.679  1.00  0.00     0.117 C 
BRANCH   9  10
HETATM   10  C12 UNL     1      18.856  -0.490 -23.579  1.00  0.00     0.222 C 
HETATM   11  O3  UNL     1      19.500  -0.766 -24.599  1.00  0.00    -0.273 OA
HETATM   12  N3  UNL     1      18.919  -1.137 -22.336  1.00  0.00    -0.340 N 
ATOM     13  H3  UNL     1      18.322  -0.753 -21.604  1.00  0.00     0.167 HD
BRANCH  12  14
HETATM   14  C13 UNL     1      19.690  -2.234 -21.972  1.00  0.00     0.073 C 
BRANCH  14  15
HETATM   15  C14 UNL     1      20.771  -2.100 -20.970  1.00  0.00    -0.007 C 
HETATM   16  C15 UNL     1      21.930  -1.317 -21.607  1.00  0.00     0.019 C 
HETATM   17  C16 UNL     1      23.094  -1.324 -20.681  1.00  0.00    -0.013 C 
HETATM   18  C17 UNL     1      23.566  -2.754 -20.480  1.00  0.00     0.009 C 
HETATM   19  C21 UNL     1      22.778  -0.760 -19.331  1.00  0.00     0.009 C 
HETATM   20  C18 UNL     1      22.466  -3.560 -19.859  1.00  0.00    -0.013 C 
HETATM   21  C19 UNL     1      22.031  -3.009 -18.500  1.00  0.00     0.009 C 
HETATM   22  C23 UNL     1      21.261  -3.545 -20.728  1.00  0.00     0.019 C 
HETATM   23  C20 UNL     1      21.669  -1.582 -18.721  1.00  0.00    -0.013 C 
HETATM   24  C22 UNL     1      20.473  -1.463 -19.671  1.00  0.00     0.019 C 
ENDBRANCH  14  15
ENDBRANCH  12  14
ENDBRANCH   9  10
ENDBRANCH   6   9
BRANCH   4  25
HETATM   25  C4  UNL     1      18.334   5.407 -23.838  1.00  0.00     0.225 C 
HETATM   26  O1  UNL     1      17.121   5.652 -24.104  1.00  0.00    -0.273 OA
HETATM   27  N2  UNL     1      19.257   6.486 -23.863  1.00  0.00    -0.347 N 
HETATM   28  C5  UNL     1      18.791   7.844 -24.217  1.00  0.00     0.152 C 
HETATM   29  C8  UNL     1      20.661   6.375 -23.534  1.00  0.00     0.169 C 
HETATM   30  C6  UNL     1      19.755   8.822 -23.639  1.00  0.00     0.189 C 
HETATM   31  O2  UNL     1      21.038   8.696 -24.099  1.00  0.00    -0.372 OA
HETATM   32  C7  UNL     1      21.415   7.389 -24.362  1.00  0.00     0.210 C 
HETATM   33 BR1  UNL     1      21.061   7.037 -26.227  1.00  0.00    -0.060 Br
ENDBRANCH   4  25
TORSDOF 5
ENDMDL
MODEL 4
REMARK VINA RESULT: -9.882309990      1.871      2.399
REMARK  5 active torsions:
REMARK  status: ('A' for Active; 'I' for Inactive)
REMARK    1  A    between atoms: C3_4  and  C4_5 
REMARK       I    between atoms: C4_5  and  N2_7 
REMARK    2  A    between atoms: C10_15  and  C11_16 
REMARK    3  A    between atoms: C11_16  and  C12_17 
REMARK       I    between atoms: C12_17  and  N3_19 
REMARK    4  A    between atoms: N3_19  and  C13_21 
REMARK    5  A    between atoms: C13_21  and  C14_22 
ROOT
HETATM    1  C1  UNL     1      21.481   5.196 -25.234  1.00  0.00     0.152 C 
HETATM    2  N1  UNL     1      20.197   5.062 -24.685  1.00  0.00    -0.355 N 
HETATM    3  C2  UNL     1      19.100   5.963 -24.960  1.00  0.00     0.139 C 
HETATM    4  C3  UNL     1      18.210   5.840 -23.711  1.00  0.00     0.097 C 
HETATM    5  C9  UNL     1      17.485   4.548 -23.774  1.00  0.00     0.030 C 
HETATM    6  C10 UNL     1      18.501   3.389 -23.838  1.00  0.00     0.087 C 
HETATM    7  C24 UNL     1      19.873   3.988 -23.773  1.00  0.00     0.224 C 
HETATM    8  O4  UNL     1      20.704   3.568 -22.952  1.00  0.00    -0.273 OA
ENDROOT
BRANCH   6   9
HETATM    9  C11 UNL     1      18.293   2.617 -25.093  1.00  0.00     0.117 C 
BRANCH   9  10
HETATM   10  C12 UNL     1      19.003   1.288 -25.012  1.00  0.00     0.222 C 
HETATM   11  O3  UNL     1      19.736   0.992 -25.963  1.00  0.00    -0.273 OA
HETATM   12  N3  UNL     1      18.755   0.524 -23.862  1.00  0.00    -0.340 N 
ATOM     13  H3  UNL     1      18.131   0.945 -23.174  1.00  0.00     0.167 HD
BRANCH  12  14
HETATM   14  C13 UNL     1      19.251  -0.734 -23.539  1.00  0.00     0.073 C 
BRANCH  14  15
HETATM   15  C14 UNL     1      20.216  -0.904 -22.429  1.00  0.00    -0.007 C 
HETATM   16  C15 UNL     1      19.942  -2.254 -21.750  1.00  0.00     0.019 C 
HETATM   17  C16 UNL     1      20.780  -2.366 -20.526  1.00  0.00    -0.013 C 
HETATM   18  C17 UNL     1      20.384  -1.274 -19.546  1.00  0.00     0.009 C 
HETATM   19  C21 UNL     1      22.245  -2.218 -20.797  1.00  0.00     0.009 C 
HETATM   20  C18 UNL     1      20.634   0.067 -20.166  1.00  0.00    -0.013 C 
HETATM   21  C19 UNL     1      22.102   0.276 -20.541  1.00  0.00     0.009 C 
HETATM   22  C23 UNL     1      19.852   0.210 -21.421  1.00  0.00     0.019 C 
HETATM   23  C20 UNL     1      22.477  -0.865 -21.422  1.00  0.00    -0.013 C 
HETATM   24  C22 UNL     1      21.663  -0.843 -22.719  1.00  0.00     0.019 C 
ENDBRANCH  14  15
ENDBRANCH  12  14
ENDBRANCH   9  10
ENDBRANCH   6   9
BRANCH   4  25
HETATM   25  C4  UNL     1      17.352   7.006 -23.503  1.00  0.00     0.225 C 
HETATM   26  O1  UNL     1      16.110   6.968 -23.748  1.00  0.00    -0.273 OA
HETATM   27  N2  UNL     1      17.902   8.221 -23.016  1.00  0.00    -0.347 N 
HETATM   28  C5  UNL     1      17.032   9.401 -22.832  1.00  0.00     0.152 C 
HETATM   29  C8  UNL     1      19.288   8.405 -22.642  1.00  0.00     0.169 C 
HETATM   30  C6  UNL     1      17.680  10.295 -21.832  1.00  0.00     0.189 C 
HETATM   31  O2  UNL     1      18.917  10.752 -22.195  1.00  0.00    -0.372 OA
HETATM   32  C7  UNL     1      19.661   9.840 -22.928  1.00  0.00     0.210 C 
HETATM   33 BR1  UNL     1      19.344  10.191 -24.800  1.00  0.00    -0.060 Br
ENDBRANCH   4  25
TORSDOF 5
ENDMDL
MODEL 5
REMARK VINA RESULT: -9.549933365      1.033      1.572
REMARK  5 active torsions:
REMARK  status: ('A' for Active; 'I' for Inactive)
REMARK    1  A    between atoms: C3_4  and  C4_5 
REMARK       I    between atoms: C4_5  and  N2_7 
REMARK    2  A    between atoms: C10_15  and  C11_16 
REMARK    3  A    between atoms: C11_16  and  C12_17 
REMARK       I    between atoms: C12_17  and  N3_19 
REMARK    4  A    between atoms: N3_19  and  C13_21 
REMARK    5  A    between atoms: C13_21  and  C14_22 
ROOT
HETATM    1  C1  UNL     1      21.645   1.862 -24.554  1.00  0.00     0.152 C 
HETATM    2  N1  UNL     1      20.425   2.309 -24.024  1.00  0.00    -0.355 N 
HETATM    3  C2  UNL     1      19.586   3.306 -24.652  1.00  0.00     0.139 C 
HETATM    4  C3  UNL     1      18.809   3.918 -23.473  1.00  0.00     0.097 C 
HETATM    5  C9  UNL     1      17.765   2.954 -23.046  1.00  0.00     0.030 C 
HETATM    6  C10 UNL     1      18.428   1.625 -22.633  1.00  0.00     0.087 C 
HETATM    7  C24 UNL     1      19.910   1.796 -22.775  1.00  0.00     0.224 C 
HETATM    8  O4  UNL     1      20.670   1.505 -21.837  1.00  0.00    -0.273 OA
ENDROOT
BRANCH   6   9
HETATM    9  C11 UNL     1      17.913   0.526 -23.494  1.00  0.00     0.117 C 
BRANCH   9  10
HETATM   10  C12 UNL     1      18.889  -0.624 -23.511  1.00  0.00     0.222 C 
HETATM   11  O3  UNL     1      19.383  -0.916 -24.607  1.00  0.00    -0.273 OA
HETATM   12  N3  UNL     1      19.134  -1.247 -22.278  1.00  0.00    -0.340 N 
ATOM     13  H3  UNL     1      18.644  -0.852 -21.476  1.00  0.00     0.167 HD
BRANCH  12  14
HETATM   14  C13 UNL     1      19.959  -2.331 -22.008  1.00  0.00     0.073 C 
BRANCH  14  15
HETATM   15  C14 UNL     1      20.239  -2.740 -20.613  1.00  0.00    -0.007 C 
HETATM   16  C15 UNL     1      21.433  -3.707 -20.619  1.00  0.00     0.019 C 
HETATM   17  C16 UNL     1      21.618  -4.266 -19.254  1.00  0.00    -0.013 C 
HETATM   18  C17 UNL     1      20.386  -5.067 -18.869  1.00  0.00     0.009 C 
HETATM   19  C21 UNL     1      21.817  -3.215 -18.206  1.00  0.00     0.009 C 
HETATM   20  C18 UNL     1      19.190  -4.165 -18.849  1.00  0.00    -0.013 C 
HETATM   21  C19 UNL     1      19.339  -3.015 -17.851  1.00  0.00     0.009 C 
HETATM   22  C23 UNL     1      18.990  -3.542 -20.184  1.00  0.00     0.019 C 
HETATM   23  C20 UNL     1      20.606  -2.316 -18.201  1.00  0.00    -0.013 C 
HETATM   24  C22 UNL     1      20.520  -1.701 -19.602  1.00  0.00     0.019 C 
ENDBRANCH  14  15
ENDBRANCH  12  14
ENDBRANCH   9  10
ENDBRANCH   6   9
BRANCH   4  25
HETATM   25  C4  UNL     1      18.312   5.264 -23.752  1.00  0.00     0.225 C 
HETATM   26  O1  UNL     1      17.086   5.486 -23.977  1.00  0.00    -0.273 OA
HETATM   27  N2  UNL     1      19.208   6.366 -23.779  1.00  0.00    -0.347 N 
HETATM   28  C5  UNL     1      18.700   7.719 -24.086  1.00  0.00     0.152 C 
HETATM   29  C8  UNL     1      20.624   6.282 -23.493  1.00  0.00     0.169 C 
HETATM   30  C6  UNL     1      19.657   8.707 -23.514  1.00  0.00     0.189 C 
HETATM   31  O2  UNL     1      20.928   8.623 -24.014  1.00  0.00    -0.372 OA
HETATM   32  C7  UNL     1      21.328   7.331 -24.319  1.00  0.00     0.210 C 
HETATM   33 BR1  UNL     1      20.928   7.013 -26.181  1.00  0.00    -0.060 Br
ENDBRANCH   4  25
TORSDOF 5
ENDMDL
