MODEL 1
REMARK VINA RESULT: -6.502568903      0.000      0.000
REMARK  5 active torsions:
REMARK  status: ('A' for Active; 'I' for Inactive)
REMARK    1  A    between atoms: N2_15  and  C13_16 
REMARK    2  A    between atoms: C13_16  and  C14_17 
REMARK    3  A    between atoms: C16_21  and  C17_22 
REMARK    4  A    between atoms: C17_22  and  C18_23 
REMARK    5  A    between atoms: C18_23  and  C19_24 
REMARK       I    between atoms: C19_24  and  N3_26 
ROOT
HETATM    1  C1  UNL     1      15.335  10.330 -18.239  1.00  0.00     0.152 C 
HETATM    2  N1  UNL     1      16.616  10.180 -18.901  1.00  0.00    -0.356 N 
HETATM    3  C2  UNL     1      17.636  11.201 -18.793  1.00  0.00     0.125 C 
HETATM    4  C3  UNL     1      17.133  12.461 -18.153  1.00  0.00     0.020 C 
HETATM    5  C4  UNL     1      16.897  13.507 -19.198  1.00  0.00     0.002 C 
HETATM    6  C5  UNL     1      17.864  14.658 -19.124  1.00  0.00     0.000 C 
HETATM    7  C6  UNL     1      19.302  14.227 -19.150  1.00  0.00     0.000 C 
HETATM    8  C7  UNL     1      19.770  13.952 -20.554  1.00  0.00     0.000 C 
HETATM    9  C8  UNL     1      20.916  12.965 -20.574  1.00  0.00     0.000 C 
HETATM   10  C9  UNL     1      21.655  13.075 -21.895  1.00  0.00     0.000 C 
HETATM   11  C10 UNL     1      21.975  11.695 -22.423  1.00  0.00     0.009 C 
HETATM   12  C11 UNL     1      21.824  11.728 -23.924  1.00  0.00     0.103 C 
HETATM   13  C12 UNL     1      22.417  10.574 -24.603  1.00  0.00     0.220 C 
HETATM   14  O1  UNL     1      23.662  10.379 -24.429  1.00  0.00    -0.273 OA
HETATM   15  N2  UNL     1      21.731   9.651 -25.440  1.00  0.00    -0.346 N 
HETATM   16  C15 UNL     1      20.343   9.318 -25.179  1.00  0.00     0.140 C 
HETATM   17  C16 UNL     1      20.186   8.282 -24.091  1.00  0.00     0.096 C 
HETATM   18  C23 UNL     1      18.754   8.044 -23.895  1.00  0.00     0.223 C 
HETATM   19  O3  UNL     1      18.060   7.689 -24.908  1.00  0.00    -0.273 OA
HETATM   20  N4  UNL     1      18.058   8.176 -22.662  1.00  0.00    -0.360 N 
ATOM     21  H4  UNL     1      17.328   7.497 -22.444  1.00  0.00     0.162 HD
HETATM   22  C24 UNL     1      18.330   9.225 -21.695  1.00  0.00     0.132 C 
HETATM   23  C25 UNL     1      18.214   8.730 -20.277  1.00  0.00     0.122 C 
HETATM   24  C26 UNL     1      16.904   9.026 -19.675  1.00  0.00     0.221 C 
HETATM   25  O4  UNL     1      15.971   8.195 -19.860  1.00  0.00    -0.273 OA
ENDROOT
BRANCH  17  26
HETATM   26  C17 UNL     1      20.948   7.022 -24.429  1.00  0.00     0.025 C 
BRANCH  26  27
HETATM   27  C18 UNL     1      20.659   5.969 -23.396  1.00  0.00     0.104 C 
BRANCH  27  28
HETATM   28  C19 UNL     1      20.504   4.668 -24.079  1.00  0.00     0.219 C 
HETATM   29  O2  UNL     1      21.510   4.097 -24.544  1.00  0.00    -0.273 OA
HETATM   30  N3  UNL     1      19.242   4.042 -24.225  1.00  0.00    -0.352 N 
HETATM   31  C20 UNL     1      18.678   2.839 -24.793  1.00  0.00     0.127 C 
HETATM   32  C22 UNL     1      17.904   4.411 -23.819  1.00  0.00     0.127 C 
HETATM   33  C21 UNL     1      17.475   2.979 -23.906  1.00  0.00     0.040 C 
ENDBRANCH  27  28
ENDBRANCH  26  27
ENDBRANCH  17  26
BRANCH  15  34
HETATM   34  C13 UNL     1      22.374   9.011 -26.573  1.00  0.00     0.196 C 
BRANCH  34  35
HETATM   35  C14 UNL     1      21.368   8.610 -27.630  1.00  0.00     0.370 C 
HETATM   36  F1  UNL     1      21.378   7.218 -27.783  1.00  0.00    -0.213 F 
HETATM   37  F2  UNL     1      21.582   9.253 -28.832  1.00  0.00    -0.213 F 
ENDBRANCH  34  35
ENDBRANCH  15  34
TORSDOF 5
ENDMDL
MODEL 2
REMARK VINA RESULT: -6.457908672      1.008      1.277
REMARK  5 active torsions:
REMARK  status: ('A' for Active; 'I' for Inactive)
REMARK    1  A    between atoms: N2_15  and  C13_16 
REMARK    2  A    between atoms: C13_16  and  C14_17 
REMARK    3  A    between atoms: C16_21  and  C17_22 
REMARK    4  A    between atoms: C17_22  and  C18_23 
REMARK    5  A    between atoms: C18_23  and  C19_24 
REMARK       I    between atoms: C19_24  and  N3_26 
ROOT
HETATM    1  C1  UNL     1      15.347  10.355 -18.329  1.00  0.00     0.152 C 
HETATM    2  N1  UNL     1      16.623  10.175 -18.995  1.00  0.00    -0.356 N 
HETATM    3  C2  UNL     1      17.648  11.194 -18.930  1.00  0.00     0.125 C 
HETATM    4  C3  UNL     1      17.157  12.479 -18.330  1.00  0.00     0.020 C 
HETATM    5  C4  UNL     1      16.918  13.489 -19.409  1.00  0.00     0.002 C 
HETATM    6  C5  UNL     1      17.892  14.635 -19.383  1.00  0.00     0.000 C 
HETATM    7  C6  UNL     1      19.328  14.196 -19.405  1.00  0.00     0.000 C 
HETATM    8  C7  UNL     1      19.783  13.870 -20.802  1.00  0.00     0.000 C 
HETATM    9  C8  UNL     1      20.925  12.877 -20.796  1.00  0.00     0.000 C 
HETATM   10  C9  UNL     1      21.653  12.936 -22.125  1.00  0.00     0.000 C 
HETATM   11  C10 UNL     1      21.962  11.537 -22.607  1.00  0.00     0.009 C 
HETATM   12  C11 UNL     1      21.800  11.518 -24.107  1.00  0.00     0.103 C 
HETATM   13  C12 UNL     1      22.382  10.338 -24.750  1.00  0.00     0.220 C 
HETATM   14  O1  UNL     1      23.627  10.143 -24.578  1.00  0.00    -0.273 OA
HETATM   15  N2  UNL     1      21.685   9.390 -25.549  1.00  0.00    -0.346 N 
HETATM   16  C15 UNL     1      20.297   9.074 -25.266  1.00  0.00     0.140 C 
HETATM   17  C16 UNL     1      20.142   8.078 -24.141  1.00  0.00     0.096 C 
HETATM   18  C23 UNL     1      18.711   7.855 -23.927  1.00  0.00     0.223 C 
HETATM   19  O3  UNL     1      18.007   7.469 -24.921  1.00  0.00    -0.273 OA
HETATM   20  N4  UNL     1      18.025   8.033 -22.693  1.00  0.00    -0.360 N 
ATOM     21  H4  UNL     1      17.294   7.366 -22.447  1.00  0.00     0.162 HD
HETATM   22  C24 UNL     1      18.310   9.114 -21.766  1.00  0.00     0.132 C 
HETATM   23  C25 UNL     1      18.202   8.669 -20.331  1.00  0.00     0.122 C 
HETATM   24  C26 UNL     1      16.898   8.993 -19.730  1.00  0.00     0.221 C 
HETATM   25  O4  UNL     1      15.959   8.162 -19.878  1.00  0.00    -0.273 OA
ENDROOT
BRANCH  17  26
HETATM   26  C17 UNL     1      20.896   6.802 -24.441  1.00  0.00     0.025 C 
BRANCH  26  27
HETATM   27  C18 UNL     1      20.667   5.813 -23.331  1.00  0.00     0.104 C 
BRANCH  27  28
HETATM   28  C19 UNL     1      20.330   4.505 -23.928  1.00  0.00     0.219 C 
HETATM   29  O2  UNL     1      19.577   4.460 -24.921  1.00  0.00    -0.273 OA
HETATM   30  N3  UNL     1      20.835   3.289 -23.406  1.00  0.00    -0.352 N 
HETATM   31  C20 UNL     1      20.758   1.871 -23.671  1.00  0.00     0.127 C 
HETATM   32  C22 UNL     1      21.708   2.978 -22.296  1.00  0.00     0.127 C 
HETATM   33  C21 UNL     1      22.039   1.656 -22.917  1.00  0.00     0.040 C 
ENDBRANCH  27  28
ENDBRANCH  26  27
ENDBRANCH  17  26
BRANCH  15  34
HETATM   34  C13 UNL     1      22.315   8.707 -26.663  1.00  0.00     0.196 C 
BRANCH  34  35
HETATM   35  C14 UNL     1      21.299   8.272 -27.696  1.00  0.00     0.370 C 
HETATM   36  F1  UNL     1      21.664   7.025 -28.217  1.00  0.00    -0.213 F 
HETATM   37  F2  UNL     1      21.130   9.208 -28.696  1.00  0.00    -0.213 F 
ENDBRANCH  34  35
ENDBRANCH  15  34
TORSDOF 5
ENDMDL
MODEL 3
REMARK VINA RESULT: -6.302518654      3.685      7.563
REMARK  5 active torsions:
REMARK  status: ('A' for Active; 'I' for Inactive)
REMARK    1  A    between atoms: N2_15  and  C13_16 
REMARK    2  A    between atoms: C13_16  and  C14_17 
REMARK    3  A    between atoms: C16_21  and  C17_22 
REMARK    4  A    between atoms: C17_22  and  C18_23 
REMARK    5  A    between atoms: C18_23  and  C19_24 
REMARK       I    between atoms: C19_24  and  N3_26 
ROOT
HETATM    1  C1  UNL     1      25.131   8.120 -29.552  1.00  0.00     0.152 C 
HETATM    2  N1  UNL     1      23.842   8.437 -28.969  1.00  0.00    -0.356 N 
HETATM    3  C2  UNL     1      23.320   9.785 -29.003  1.00  0.00     0.125 C 
HETATM    4  C3  UNL     1      24.331  10.791 -29.470  1.00  0.00     0.020 C 
HETATM    5  C4  UNL     1      24.868  11.558 -28.302  1.00  0.00     0.002 C 
HETATM    6  C5  UNL     1      24.440  13.001 -28.285  1.00  0.00     0.000 C 
HETATM    7  C6  UNL     1      22.953  13.180 -28.372  1.00  0.00     0.000 C 
HETATM    8  C7  UNL     1      22.295  12.993 -27.031  1.00  0.00     0.000 C 
HETATM    9  C8  UNL     1      20.856  12.549 -27.175  1.00  0.00     0.000 C 
HETATM   10  C9  UNL     1      20.109  12.828 -25.885  1.00  0.00     0.000 C 
HETATM   11  C10 UNL     1      19.228  11.650 -25.534  1.00  0.00     0.009 C 
HETATM   12  C11 UNL     1      19.250  11.487 -24.033  1.00  0.00     0.103 C 
HETATM   13  C12 UNL     1      18.195  10.611 -23.519  1.00  0.00     0.220 C 
HETATM   14  O1  UNL     1      16.994  10.947 -23.769  1.00  0.00    -0.273 OA
HETATM   15  N2  UNL     1      18.388   9.421 -22.765  1.00  0.00    -0.346 N 
HETATM   16  C15 UNL     1      19.550   8.585 -23.002  1.00  0.00     0.140 C 
HETATM   17  C16 UNL     1      19.381   7.673 -24.194  1.00  0.00     0.096 C 
HETATM   18  C23 UNL     1      20.615   6.901 -24.353  1.00  0.00     0.223 C 
HETATM   19  O3  UNL     1      21.024   6.210 -23.359  1.00  0.00    -0.273 OA
HETATM   20  N4  UNL     1      21.411   6.852 -25.532  1.00  0.00    -0.360 N 
ATOM     21  H4  UNL     1      21.830   5.960 -25.794  1.00  0.00     0.162 HD
HETATM   22  C24 UNL     1      21.657   8.003 -26.382  1.00  0.00     0.132 C 
HETATM   23  C25 UNL     1      21.691   7.631 -27.841  1.00  0.00     0.122 C 
HETATM   24  C26 UNL     1      23.058   7.430 -28.347  1.00  0.00     0.221 C 
HETATM   25  O4  UNL     1      23.571   6.283 -28.218  1.00  0.00    -0.273 OA
ENDROOT
BRANCH  17  26
HETATM   26  C17 UNL     1      18.159   6.799 -24.038  1.00  0.00     0.025 C 
BRANCH  26  27
HETATM   27  C18 UNL     1      18.491   5.393 -24.456  1.00  0.00     0.104 C 
BRANCH  27  28
HETATM   28  C19 UNL     1      17.670   4.458 -23.661  1.00  0.00     0.219 C 
HETATM   29  O2  UNL     1      16.523   4.797 -23.309  1.00  0.00    -0.273 OA
HETATM   30  N3  UNL     1      18.145   3.179 -23.280  1.00  0.00    -0.352 N 
HETATM   31  C20 UNL     1      17.694   2.020 -22.545  1.00  0.00     0.127 C 
HETATM   32  C22 UNL     1      19.390   2.480 -23.510  1.00  0.00     0.127 C 
HETATM   33  C21 UNL     1      18.711   1.170 -23.250  1.00  0.00     0.040 C 
ENDBRANCH  27  28
ENDBRANCH  26  27
ENDBRANCH  17  26
BRANCH  15  34
HETATM   34  C13 UNL     1      17.451   8.993 -21.744  1.00  0.00     0.196 C 
BRANCH  34  35
HETATM   35  C14 UNL     1      18.102   8.938 -20.379  1.00  0.00     0.370 C 
HETATM   36  F1  UNL     1      17.152   8.564 -19.421  1.00  0.00    -0.213 F 
HETATM   37  F2  UNL     1      18.721  10.124 -20.041  1.00  0.00    -0.213 F 
ENDBRANCH  34  35
ENDBRANCH  15  34
TORSDOF 5
ENDMDL
MODEL 4
REMARK VINA RESULT: -6.102809592      1.925      2.222
REMARK  5 active torsions:
REMARK  status: ('A' for Active; 'I' for Inactive)
REMARK    1  A    between atoms: N2_15  and  C13_16 
REMARK    2  A    between atoms: C13_16  and  C14_17 
REMARK    3  A    between atoms: C16_21  and  C17_22 
REMARK    4  A    between atoms: C17_22  and  C18_23 
REMARK    5  A    between atoms: C18_23  and  C19_24 
REMARK       I    between atoms: C19_24  and  N3_26 
ROOT
HETATM    1  C1  UNL     1      13.478  11.486 -19.343  1.00  0.00     0.152 C 
HETATM    2  N1  UNL     1      14.816  11.131 -19.773  1.00  0.00    -0.356 N 
HETATM    3  C2  UNL     1      15.846  12.138 -19.913  1.00  0.00     0.125 C 
HETATM    4  C3  UNL     1      15.313  13.536 -19.801  1.00  0.00     0.020 C 
HETATM    5  C4  UNL     1      15.215  14.157 -21.160  1.00  0.00     0.002 C 
HETATM    6  C5  UNL     1      16.200  15.273 -21.382  1.00  0.00     0.000 C 
HETATM    7  C6  UNL     1      17.620  14.875 -21.105  1.00  0.00     0.000 C 
HETATM    8  C7  UNL     1      18.224  14.140 -22.272  1.00  0.00     0.000 C 
HETATM    9  C8  UNL     1      19.339  13.218 -21.831  1.00  0.00     0.000 C 
HETATM   10  C9  UNL     1      20.213  12.876 -23.022  1.00  0.00     0.000 C 
HETATM   11  C10 UNL     1      20.550  11.402 -23.009  1.00  0.00     0.009 C 
HETATM   12  C11 UNL     1      20.556  10.916 -24.438  1.00  0.00     0.103 C 
HETATM   13  C12 UNL     1      21.185   9.605 -24.613  1.00  0.00     0.220 C 
HETATM   14  O1  UNL     1      22.400   9.495 -24.251  1.00  0.00    -0.273 OA
HETATM   15  N2  UNL     1      20.566   8.444 -25.151  1.00  0.00    -0.346 N 
HETATM   16  C15 UNL     1      19.150   8.206 -24.941  1.00  0.00     0.140 C 
HETATM   17  C16 UNL     1      18.853   7.605 -23.588  1.00  0.00     0.096 C 
HETATM   18  C23 UNL     1      17.403   7.434 -23.476  1.00  0.00     0.223 C 
HETATM   19  O3  UNL     1      16.808   6.745 -24.374  1.00  0.00    -0.273 OA
HETATM   20  N4  UNL     1      16.586   7.973 -22.444  1.00  0.00    -0.360 N 
ATOM     21  H4  UNL     1      15.820   7.403 -22.086  1.00  0.00     0.162 HD
HETATM   22  C24 UNL     1      16.784   9.293 -21.872  1.00  0.00     0.132 C 
HETATM   23  C25 UNL     1      16.509   9.314 -20.391  1.00  0.00     0.122 C 
HETATM   24  C26 UNL     1      15.152   9.785 -20.070  1.00  0.00     0.221 C 
HETATM   25  O4  UNL     1      14.221   8.931 -20.058  1.00  0.00    -0.273 OA
ENDROOT
BRANCH  17  26
HETATM   26  C17 UNL     1      19.612   6.314 -23.390  1.00  0.00     0.025 C 
BRANCH  26  27
HETATM   27  C18 UNL     1      19.026   5.247 -24.274  1.00  0.00     0.104 C 
BRANCH  27  28
HETATM   28  C19 UNL     1      18.791   4.037 -23.460  1.00  0.00     0.219 C 
HETATM   29  O2  UNL     1      17.622   3.694 -23.196  1.00  0.00    -0.273 OA
HETATM   30  N3  UNL     1      19.857   3.246 -22.965  1.00  0.00    -0.352 N 
HETATM   31  C20 UNL     1      20.057   2.053 -22.175  1.00  0.00     0.127 C 
HETATM   32  C22 UNL     1      21.296   3.348 -23.077  1.00  0.00     0.127 C 
HETATM   33  C21 UNL     1      21.429   1.889 -22.763  1.00  0.00     0.040 C 
ENDBRANCH  27  28
ENDBRANCH  26  27
ENDBRANCH  17  26
BRANCH  15  34
HETATM   34  C13 UNL     1      21.305   7.460 -25.921  1.00  0.00     0.196 C 
BRANCH  34  35
HETATM   35  C14 UNL     1      21.640   7.973 -27.304  1.00  0.00     0.370 C 
HETATM   36  F1  UNL     1      21.640   6.908 -28.212  1.00  0.00    -0.213 F 
HETATM   37  F2  UNL     1      22.834   8.664 -27.335  1.00  0.00    -0.213 F 
ENDBRANCH  34  35
ENDBRANCH  15  34
TORSDOF 5
ENDMDL
MODEL 5
REMARK VINA RESULT: -6.096434090      1.026      1.099
REMARK  5 active torsions:
REMARK  status: ('A' for Active; 'I' for Inactive)
REMARK    1  A    between atoms: N2_15  and  C13_16 
REMARK    2  A    between atoms: C13_16  and  C14_17 
REMARK    3  A    between atoms: C16_21  and  C17_22 
REMARK    4  A    between atoms: C17_22  and  C18_23 
REMARK    5  A    between atoms: C18_23  and  C19_24 
REMARK       I    between atoms: C19_24  and  N3_26 
ROOT
HETATM    1  C1  UNL     1      15.395  11.015 -17.649  1.00  0.00     0.152 C 
HETATM    2  N1  UNL     1      16.605  10.706 -18.386  1.00  0.00    -0.356 N 
HETATM    3  C2  UNL     1      17.684  11.666 -18.483  1.00  0.00     0.125 C 
HETATM    4  C3  UNL     1      17.306  13.022 -17.965  1.00  0.00     0.020 C 
HETATM    5  C4  UNL     1      17.040  13.951 -19.108  1.00  0.00     0.002 C 
HETATM    6  C5  UNL     1      18.071  15.037 -19.252  1.00  0.00     0.000 C 
HETATM    7  C6  UNL     1      19.476  14.515 -19.337  1.00  0.00     0.000 C 
HETATM    8  C7  UNL     1      19.808  14.047 -20.728  1.00  0.00     0.000 C 
HETATM    9  C8  UNL     1      20.893  12.993 -20.717  1.00  0.00     0.000 C 
HETATM   10  C9  UNL     1      21.521  12.899 -22.094  1.00  0.00     0.000 C 
HETATM   11  C10 UNL     1      21.720  11.449 -22.472  1.00  0.00     0.009 C 
HETATM   12  C11 UNL     1      21.444  11.315 -23.950  1.00  0.00     0.103 C 
HETATM   13  C12 UNL     1      21.913  10.053 -24.527  1.00  0.00     0.220 C 
HETATM   14  O1  UNL     1      23.156   9.801 -24.427  1.00  0.00    -0.273 OA
HETATM   15  N2  UNL     1      21.110   9.084 -25.188  1.00  0.00    -0.346 N 
HETATM   16  C15 UNL     1      19.733   8.874 -24.781  1.00  0.00     0.140 C 
HETATM   17  C16 UNL     1      19.612   7.985 -23.566  1.00  0.00     0.096 C 
HETATM   18  C23 UNL     1      18.191   7.865 -23.232  1.00  0.00     0.223 C 
HETATM   19  O3  UNL     1      17.395   7.439 -24.136  1.00  0.00    -0.273 OA
HETATM   20  N4  UNL     1      17.611   8.185 -21.973  1.00  0.00    -0.360 N 
ATOM     21  H4  UNL     1      16.866   7.585 -21.618  1.00  0.00     0.162 HD
HETATM   22  C24 UNL     1      18.020   9.321 -21.166  1.00  0.00     0.132 C 
HETATM   23  C25 UNL     1      17.998   9.005 -19.693  1.00  0.00     0.122 C 
HETATM   24  C26 UNL     1      16.763   9.453 -19.032  1.00  0.00     0.221 C 
HETATM   25  O4  UNL     1      15.773   8.668 -19.041  1.00  0.00    -0.273 OA
ENDROOT
BRANCH  17  26
HETATM   26  C17 UNL     1      20.273   6.648 -23.805  1.00  0.00     0.025 C 
BRANCH  26  27
HETATM   27  C18 UNL     1      19.229   5.631 -24.173  1.00  0.00     0.104 C 
BRANCH  27  28
HETATM   28  C19 UNL     1      19.565   4.351 -23.519  1.00  0.00     0.219 C 
HETATM   29  O2  UNL     1      20.744   4.126 -23.181  1.00  0.00    -0.273 OA
HETATM   30  N3  UNL     1      18.587   3.360 -23.259  1.00  0.00    -0.352 N 
HETATM   31  C20 UNL     1      18.494   2.042 -22.674  1.00  0.00     0.127 C 
HETATM   32  C22 UNL     1      17.164   3.289 -23.509  1.00  0.00     0.127 C 
HETATM   33  C21 UNL     1      17.023   2.241 -22.448  1.00  0.00     0.040 C 
ENDBRANCH  27  28
ENDBRANCH  26  27
ENDBRANCH  17  26
BRANCH  15  34
HETATM   34  C13 UNL     1      21.618   8.275 -26.280  1.00  0.00     0.196 C 
BRANCH  34  35
HETATM   35  C14 UNL     1      21.753   9.080 -27.554  1.00  0.00     0.370 C 
HETATM   36  F1  UNL     1      23.056   9.582 -27.656  1.00  0.00    -0.213 F 
HETATM   37  F2  UNL     1      20.815  10.089 -27.642  1.00  0.00    -0.213 F 
ENDBRANCH  34  35
ENDBRANCH  15  34
TORSDOF 5
ENDMDL
