MODEL 1
REMARK VINA RESULT: -9.909600335      0.000      0.000
REMARK  7 active torsions:
REMARK  status: ('A' for Active; 'I' for Inactive)
REMARK    1  A    between atoms: C1_2  and  C2_3 
REMARK       I    between atoms: C1_2  and  N3_22 
REMARK       I    between atoms: N1_9  and  C6_10 
REMARK    2  A    between atoms: C6_10  and  C7_12 
REMARK    3  A    between atoms: C7_12  and  N2_13 
REMARK    4  A    between atoms: N2_13  and  C8_16 
REMARK    5  A    between atoms: N4_25  and  C16_26 
REMARK    6  A    between atoms: C16_26  and  O3_27 
REMARK    7  A    between atoms: C16_26  and  C17_29 
ROOT
HETATM    1  O1  UNL     1      21.289   1.967 -24.360  1.00  0.00    -0.271 OA
HETATM    2  C1  UNL     1      20.872   1.921 -23.161  1.00  0.00     0.243 C 
HETATM    3  N3  UNL     1      21.395   0.919 -22.340  1.00  0.00    -0.347 N 
HETATM    4  C14 UNL     1      21.009   0.748 -20.927  1.00  0.00     0.145 C 
HETATM    5  C15 UNL     1      22.079  -0.094 -20.238  1.00  0.00     0.144 C 
HETATM    6  N4  UNL     1      22.144  -1.422 -20.896  1.00  0.00    -0.362 N 
HETATM    7  C27 UNL     1      22.039  -1.424 -22.306  1.00  0.00     0.144 C 
HETATM    8  C28 UNL     1      22.376  -0.019 -22.839  1.00  0.00     0.145 C 
ENDROOT
BRANCH   2   9
HETATM    9  C2  UNL     1      19.879   2.927 -22.743  1.00  0.00     0.185 C 
HETATM   10  C3  UNL     1      18.508   2.378 -22.473  1.00  0.00     0.115 C 
HETATM   11  C4  UNL     1      18.008   2.163 -23.899  1.00  0.00     0.261 C 
HETATM   12  F1  UNL     1      18.353   0.877 -24.333  1.00  0.00    -0.204 F 
HETATM   13  F2  UNL     1      16.630   2.225 -23.974  1.00  0.00    -0.204 F 
HETATM   14  C5  UNL     1      18.695   3.208 -24.725  1.00  0.00     0.205 C 
HETATM   15  N1  UNL     1      19.636   3.837 -23.835  1.00  0.00    -0.331 N 
HETATM   16  C6  UNL     1      20.241   5.128 -23.975  1.00  0.00     0.246 C 
HETATM   17  O2  UNL     1      21.041   5.499 -23.085  1.00  0.00    -0.272 OA
BRANCH  16  18
HETATM   18  C7  UNL     1      19.960   6.023 -25.113  1.00  0.00     0.335 C 
BRANCH  18  19
HETATM   19  N2  UNL     1      20.816   7.167 -25.151  1.00  0.00    -0.063 N 
ATOM     20  H22 UNL     1      20.324   7.992 -24.808  1.00  0.00     0.278 HD
ATOM     21  H21 UNL     1      21.543   7.090 -24.440  1.00  0.00     0.278 HD
BRANCH  19  22
HETATM   22  C8  UNL     1      21.394   7.428 -26.429  1.00  0.00     0.186 C 
HETATM   23  C9  UNL     1      22.296   8.617 -26.437  1.00  0.00     0.033 C 
HETATM   24  C10 UNL     1      22.739   8.935 -27.848  1.00  0.00     0.002 C 
HETATM   25  C11 UNL     1      23.451   7.724 -28.423  1.00  0.00     0.000 C 
HETATM   26  C12 UNL     1      22.421   6.605 -28.470  1.00  0.00     0.002 C 
HETATM   27  C13 UNL     1      22.071   6.222 -27.037  1.00  0.00     0.033 C 
ENDBRANCH  19  22
ENDBRANCH  18  19
ENDBRANCH  16  18
ENDBRANCH   2   9
BRANCH   6  28
HETATM   28  C16 UNL     1      22.280  -2.515 -20.060  1.00  0.00     0.122 C 
BRANCH  28  29
HETATM   29  O3  UNL     1      23.480  -3.027 -19.989  1.00  0.00    -0.349 OA
ATOM     30  H3  UNL     1      24.139  -2.476 -19.584  1.00  0.00     0.219 HD
ENDBRANCH  28  29
BRANCH  28  31
HETATM   31  C17 UNL     1      21.266  -3.183 -19.241  1.00  0.00     0.026 C 
HETATM   32  C18 UNL     1      20.944  -2.409 -18.004  1.00  0.00     0.022 C 
HETATM   33  C19 UNL     1      19.803  -3.085 -17.235  1.00  0.00    -0.013 C 
HETATM   34  C20 UNL     1      18.594  -2.995 -18.139  1.00  0.00     0.009 C 
HETATM   35  C24 UNL     1      20.216  -4.484 -16.915  1.00  0.00     0.009 C 
HETATM   36  C21 UNL     1      18.864  -3.798 -19.378  1.00  0.00    -0.013 C 
HETATM   37  C22 UNL     1      19.236  -5.235 -19.037  1.00  0.00     0.009 C 
HETATM   38  C26 UNL     1      19.995  -3.222 -20.148  1.00  0.00     0.022 C 
HETATM   39  C23 UNL     1      20.463  -5.253 -18.187  1.00  0.00    -0.013 C 
HETATM   40  C25 UNL     1      21.619  -4.597 -18.916  1.00  0.00     0.022 C 
ENDBRANCH  28  31
ENDBRANCH   6  28
TORSDOF 7
ENDMDL
MODEL 2
REMARK VINA RESULT: -9.886417828      0.236      1.268
REMARK  7 active torsions:
REMARK  status: ('A' for Active; 'I' for Inactive)
REMARK    1  A    between atoms: C1_2  and  C2_3 
REMARK       I    between atoms: C1_2  and  N3_22 
REMARK       I    between atoms: N1_9  and  C6_10 
REMARK    2  A    between atoms: C6_10  and  C7_12 
REMARK    3  A    between atoms: C7_12  and  N2_13 
REMARK    4  A    between atoms: N2_13  and  C8_16 
REMARK    5  A    between atoms: N4_25  and  C16_26 
REMARK    6  A    between atoms: C16_26  and  O3_27 
REMARK    7  A    between atoms: C16_26  and  C17_29 
ROOT
HETATM    1  O1  UNL     1      21.214   2.148 -24.473  1.00  0.00    -0.271 OA
HETATM    2  C1  UNL     1      20.821   2.101 -23.266  1.00  0.00     0.243 C 
HETATM    3  N3  UNL     1      21.332   1.077 -22.465  1.00  0.00    -0.347 N 
HETATM    4  C14 UNL     1      20.971   0.902 -21.046  1.00  0.00     0.145 C 
HETATM    5  C15 UNL     1      22.031   0.024 -20.389  1.00  0.00     0.144 C 
HETATM    6  N4  UNL     1      22.046  -1.299 -21.061  1.00  0.00    -0.362 N 
HETATM    7  C27 UNL     1      21.912  -1.284 -22.468  1.00  0.00     0.144 C 
HETATM    8  C28 UNL     1      22.277   0.118 -22.994  1.00  0.00     0.145 C 
ENDROOT
BRANCH   2   9
HETATM    9  C2  UNL     1      19.864   3.130 -22.817  1.00  0.00     0.185 C 
HETATM   10  C3  UNL     1      18.480   2.618 -22.541  1.00  0.00     0.115 C 
HETATM   11  C4  UNL     1      17.957   2.445 -23.964  1.00  0.00     0.261 C 
HETATM   12  F1  UNL     1      18.257   1.157 -24.426  1.00  0.00    -0.204 F 
HETATM   13  F2  UNL     1      16.580   2.551 -24.021  1.00  0.00    -0.204 F 
HETATM   14  C5  UNL     1      18.666   3.484 -24.780  1.00  0.00     0.205 C 
HETATM   15  N1  UNL     1      19.637   4.066 -23.889  1.00  0.00    -0.331 N 
HETATM   16  C6  UNL     1      20.281   5.341 -24.013  1.00  0.00     0.246 C 
HETATM   17  O2  UNL     1      21.102   5.670 -23.127  1.00  0.00    -0.272 OA
BRANCH  16  18
HETATM   18  C7  UNL     1      20.014   6.265 -25.132  1.00  0.00     0.335 C 
BRANCH  18  19
HETATM   19  N2  UNL     1      20.979   7.315 -25.232  1.00  0.00    -0.063 N 
ATOM     20  H22 UNL     1      20.592   8.190 -24.879  1.00  0.00     0.278 HD
ATOM     21  H21 UNL     1      21.731   7.172 -24.558  1.00  0.00     0.278 HD
BRANCH  19  22
HETATM   22  C8  UNL     1      21.512   7.500 -26.543  1.00  0.00     0.186 C 
HETATM   23  C9  UNL     1      22.442   8.664 -26.642  1.00  0.00     0.033 C 
HETATM   24  C10 UNL     1      22.836   8.904 -28.083  1.00  0.00     0.002 C 
HETATM   25  C11 UNL     1      23.496   7.650 -28.626  1.00  0.00     0.000 C 
HETATM   26  C12 UNL     1      22.439   6.556 -28.579  1.00  0.00     0.002 C 
HETATM   27  C13 UNL     1      22.136   6.250 -27.117  1.00  0.00     0.033 C 
ENDBRANCH  19  22
ENDBRANCH  18  19
ENDBRANCH  16  18
ENDBRANCH   2   9
BRANCH   6  28
HETATM   28  C16 UNL     1      22.169  -2.404 -20.238  1.00  0.00     0.122 C 
BRANCH  28  29
HETATM   29  O3  UNL     1      23.386  -2.843 -20.060  1.00  0.00    -0.349 OA
ATOM     30  H3  UNL     1      24.027  -2.189 -19.808  1.00  0.00     0.219 HD
ENDBRANCH  28  29
BRANCH  28  31
HETATM   31  C17 UNL     1      21.124  -3.155 -19.538  1.00  0.00     0.026 C 
HETATM   32  C18 UNL     1      21.534  -4.566 -19.266  1.00  0.00     0.022 C 
HETATM   33  C19 UNL     1      20.462  -5.282 -18.437  1.00  0.00    -0.013 C 
HETATM   34  C20 UNL     1      20.433  -4.566 -17.105  1.00  0.00     0.009 C 
HETATM   35  C24 UNL     1      19.170  -5.219 -19.185  1.00  0.00     0.009 C 
HETATM   36  C21 UNL     1      19.984  -3.153 -17.332  1.00  0.00    -0.013 C 
HETATM   37  C22 UNL     1      18.642  -3.106 -18.052  1.00  0.00     0.009 C 
HETATM   38  C26 UNL     1      20.959  -2.414 -18.172  1.00  0.00     0.022 C 
HETATM   39  C23 UNL     1      18.754  -3.784 -19.377  1.00  0.00    -0.013 C 
HETATM   40  C25 UNL     1      19.803  -3.100 -20.232  1.00  0.00     0.022 C 
ENDBRANCH  28  31
ENDBRANCH   6  28
TORSDOF 7
ENDMDL
MODEL 3
REMARK VINA RESULT: -9.783167735      0.298      1.199
REMARK  7 active torsions:
REMARK  status: ('A' for Active; 'I' for Inactive)
REMARK    1  A    between atoms: C1_2  and  C2_3 
REMARK       I    between atoms: C1_2  and  N3_22 
REMARK       I    between atoms: N1_9  and  C6_10 
REMARK    2  A    between atoms: C6_10  and  C7_12 
REMARK    3  A    between atoms: C7_12  and  N2_13 
REMARK    4  A    between atoms: N2_13  and  C8_16 
REMARK    5  A    between atoms: N4_25  and  C16_26 
REMARK    6  A    between atoms: C16_26  and  O3_27 
REMARK    7  A    between atoms: C16_26  and  C17_29 
ROOT
HETATM    1  O1  UNL     1      21.224   2.208 -24.497  1.00  0.00    -0.271 OA
HETATM    2  C1  UNL     1      20.819   2.151 -23.295  1.00  0.00     0.243 C 
HETATM    3  N3  UNL     1      21.314   1.113 -22.501  1.00  0.00    -0.347 N 
HETATM    4  C14 UNL     1      20.938   0.925 -21.088  1.00  0.00     0.145 C 
HETATM    5  C15 UNL     1      21.983   0.029 -20.431  1.00  0.00     0.144 C 
HETATM    6  N4  UNL     1      21.992  -1.286 -21.118  1.00  0.00    -0.362 N 
HETATM    7  C27 UNL     1      21.871  -1.253 -22.526  1.00  0.00     0.144 C 
HETATM    8  C28 UNL     1      22.254   0.150 -23.032  1.00  0.00     0.145 C 
ENDROOT
BRANCH   2   9
HETATM    9  C2  UNL     1      19.869   3.184 -22.843  1.00  0.00     0.185 C 
HETATM   10  C3  UNL     1      18.483   2.679 -22.566  1.00  0.00     0.115 C 
HETATM   11  C4  UNL     1      17.957   2.512 -23.989  1.00  0.00     0.261 C 
HETATM   12  F1  UNL     1      18.250   1.224 -24.453  1.00  0.00    -0.204 F 
HETATM   13  F2  UNL     1      16.581   2.625 -24.044  1.00  0.00    -0.204 F 
HETATM   14  C5  UNL     1      18.671   3.548 -24.803  1.00  0.00     0.205 C 
HETATM   15  N1  UNL     1      19.646   4.124 -23.912  1.00  0.00    -0.331 N 
HETATM   16  C6  UNL     1      20.296   5.395 -24.034  1.00  0.00     0.246 C 
HETATM   17  O2  UNL     1      21.120   5.718 -23.148  1.00  0.00    -0.272 OA
BRANCH  16  18
HETATM   18  C7  UNL     1      20.033   6.323 -25.150  1.00  0.00     0.335 C 
BRANCH  18  19
HETATM   19  N2  UNL     1      21.014   7.357 -25.262  1.00  0.00    -0.063 N 
ATOM     20  H22 UNL     1      20.644   8.238 -24.907  1.00  0.00     0.278 HD
ATOM     21  H21 UNL     1      21.770   7.203 -24.594  1.00  0.00     0.278 HD
BRANCH  19  22
HETATM   22  C8  UNL     1      21.539   7.531 -26.577  1.00  0.00     0.186 C 
HETATM   23  C9  UNL     1      22.467   8.694 -26.693  1.00  0.00     0.033 C 
HETATM   24  C10 UNL     1      22.852   8.922 -28.138  1.00  0.00     0.002 C 
HETATM   25  C11 UNL     1      23.510   7.663 -28.674  1.00  0.00     0.000 C 
HETATM   26  C12 UNL     1      22.453   6.569 -28.611  1.00  0.00     0.002 C 
HETATM   27  C13 UNL     1      22.160   6.276 -27.144  1.00  0.00     0.033 C 
ENDBRANCH  19  22
ENDBRANCH  18  19
ENDBRANCH  16  18
ENDBRANCH   2   9
BRANCH   6  28
HETATM   28  C16 UNL     1      22.097  -2.401 -20.307  1.00  0.00     0.122 C 
BRANCH  28  29
HETATM   29  O3  UNL     1      23.270  -2.975 -20.284  1.00  0.00    -0.349 OA
ATOM     30  H3  UNL     1      23.990  -2.427 -19.997  1.00  0.00     0.219 HD
ENDBRANCH  28  29
BRANCH  28  31
HETATM   31  C17 UNL     1      21.075  -3.034 -19.469  1.00  0.00     0.026 C 
HETATM   32  C18 UNL     1      19.734  -3.043 -20.131  1.00  0.00     0.022 C 
HETATM   33  C19 UNL     1      18.722  -3.810 -19.271  1.00  0.00    -0.013 C 
HETATM   34  C20 UNL     1      19.212  -5.240 -19.246  1.00  0.00     0.009 C 
HETATM   35  C24 UNL     1      18.667  -3.166 -17.925  1.00  0.00     0.009 C 
HETATM   36  C21 UNL     1      20.541  -5.277 -18.549  1.00  0.00    -0.013 C 
HETATM   37  C22 UNL     1      20.455  -4.662 -17.159  1.00  0.00     0.009 C 
HETATM   38  C26 UNL     1      21.560  -4.510 -19.308  1.00  0.00     0.022 C 
HETATM   39  C23 UNL     1      20.016  -3.239 -17.260  1.00  0.00    -0.013 C 
HETATM   40  C25 UNL     1      20.997  -2.443 -18.100  1.00  0.00     0.022 C 
ENDBRANCH  28  31
ENDBRANCH   6  28
TORSDOF 7
ENDMDL
MODEL 4
REMARK VINA RESULT: -9.668690004      1.434      2.137
REMARK  7 active torsions:
REMARK  status: ('A' for Active; 'I' for Inactive)
REMARK    1  A    between atoms: C1_2  and  C2_3 
REMARK       I    between atoms: C1_2  and  N3_22 
REMARK       I    between atoms: N1_9  and  C6_10 
REMARK    2  A    between atoms: C6_10  and  C7_12 
REMARK    3  A    between atoms: C7_12  and  N2_13 
REMARK    4  A    between atoms: N2_13  and  C8_16 
REMARK    5  A    between atoms: N4_25  and  C16_26 
REMARK    6  A    between atoms: C16_26  and  O3_27 
REMARK    7  A    between atoms: C16_26  and  C17_29 
ROOT
HETATM    1  O1  UNL     1      21.342   1.890 -24.333  1.00  0.00    -0.271 OA
HETATM    2  C1  UNL     1      20.925   1.858 -23.134  1.00  0.00     0.243 C 
HETATM    3  N3  UNL     1      21.434   0.854 -22.306  1.00  0.00    -0.347 N 
HETATM    4  C14 UNL     1      21.046   0.698 -20.891  1.00  0.00     0.145 C 
HETATM    5  C15 UNL     1      22.104  -0.155 -20.198  1.00  0.00     0.144 C 
HETATM    6  N4  UNL     1      22.151  -1.488 -20.847  1.00  0.00    -0.362 N 
HETATM    7  C27 UNL     1      22.045  -1.498 -22.257  1.00  0.00     0.144 C 
HETATM    8  C28 UNL     1      22.401  -0.101 -22.799  1.00  0.00     0.145 C 
ENDROOT
BRANCH   2   9
HETATM    9  C2  UNL     1      19.946   2.881 -22.722  1.00  0.00     0.185 C 
HETATM   10  C3  UNL     1      18.566   2.354 -22.457  1.00  0.00     0.115 C 
HETATM   11  C4  UNL     1      18.069   2.144 -23.884  1.00  0.00     0.261 C 
HETATM   12  F1  UNL     1      18.395   0.852 -24.314  1.00  0.00    -0.204 F 
HETATM   13  F2  UNL     1      16.692   2.228 -23.965  1.00  0.00    -0.204 F 
HETATM   14  C5  UNL     1      18.776   3.176 -24.710  1.00  0.00     0.205 C 
HETATM   15  N1  UNL     1      19.723   3.792 -23.816  1.00  0.00    -0.331 N 
HETATM   16  C6  UNL     1      20.350   5.073 -23.956  1.00  0.00     0.246 C 
HETATM   17  O2  UNL     1      21.152   5.432 -23.065  1.00  0.00    -0.272 OA
BRANCH  16  18
HETATM   18  C7  UNL     1      20.087   5.970 -25.098  1.00  0.00     0.335 C 
BRANCH  18  19
HETATM   19  N2  UNL     1      18.879   6.720 -24.955  1.00  0.00    -0.063 N 
ATOM     20  H22 UNL     1      18.335   6.687 -25.817  1.00  0.00     0.278 HD
ATOM     21  H21 UNL     1      18.236   6.240 -24.325  1.00  0.00     0.278 HD
BRANCH  19  22
HETATM   22  C8  UNL     1      19.071   8.071 -24.538  1.00  0.00     0.186 C 
HETATM   23  C9  UNL     1      18.778   8.288 -23.090  1.00  0.00     0.033 C 
HETATM   24  C10 UNL     1      18.838   9.762 -22.755  1.00  0.00     0.002 C 
HETATM   25  C11 UNL     1      20.219  10.289 -23.102  1.00  0.00     0.000 C 
HETATM   26  C12 UNL     1      20.375  10.118 -24.606  1.00  0.00     0.002 C 
HETATM   27  C13 UNL     1      20.425   8.626 -24.912  1.00  0.00     0.033 C 
ENDBRANCH  19  22
ENDBRANCH  18  19
ENDBRANCH  16  18
ENDBRANCH   2   9
BRANCH   6  28
HETATM   28  C16 UNL     1      22.271  -2.577 -20.003  1.00  0.00     0.122 C 
BRANCH  28  29
HETATM   29  O3  UNL     1      23.463  -3.105 -19.929  1.00  0.00    -0.349 OA
ATOM     30  H3  UNL     1      23.623  -3.655 -19.171  1.00  0.00     0.219 HD
ENDBRANCH  28  29
BRANCH  28  31
HETATM   31  C17 UNL     1      21.247  -3.227 -19.181  1.00  0.00     0.026 C 
HETATM   32  C18 UNL     1      20.913  -2.425 -17.965  1.00  0.00     0.022 C 
HETATM   33  C19 UNL     1      19.763  -3.083 -17.193  1.00  0.00    -0.013 C 
HETATM   34  C20 UNL     1      18.564  -3.012 -18.112  1.00  0.00     0.009 C 
HETATM   35  C24 UNL     1      20.171  -4.475 -16.839  1.00  0.00     0.009 C 
HETATM   36  C21 UNL     1      18.846  -3.842 -19.330  1.00  0.00    -0.013 C 
HETATM   37  C22 UNL     1      19.212  -5.272 -18.953  1.00  0.00     0.009 C 
HETATM   38  C26 UNL     1      19.986  -3.284 -20.100  1.00  0.00     0.022 C 
HETATM   39  C23 UNL     1      20.430  -5.272 -18.090  1.00  0.00    -0.013 C 
HETATM   40  C25 UNL     1      21.595  -4.634 -18.822  1.00  0.00     0.022 C 
ENDBRANCH  28  31
ENDBRANCH   6  28
TORSDOF 7
ENDMDL
MODEL 5
REMARK VINA RESULT: -9.628107022      1.133      2.016
REMARK  7 active torsions:
REMARK  status: ('A' for Active; 'I' for Inactive)
REMARK    1  A    between atoms: C1_2  and  C2_3 
REMARK       I    between atoms: C1_2  and  N3_22 
REMARK       I    between atoms: N1_9  and  C6_10 
REMARK    2  A    between atoms: C6_10  and  C7_12 
REMARK    3  A    between atoms: C7_12  and  N2_13 
REMARK    4  A    between atoms: N2_13  and  C8_16 
REMARK    5  A    between atoms: N4_25  and  C16_26 
REMARK    6  A    between atoms: C16_26  and  O3_27 
REMARK    7  A    between atoms: C16_26  and  C17_29 
ROOT
HETATM    1  O1  UNL     1      22.357   2.279 -23.763  1.00  0.00    -0.271 OA
HETATM    2  C1  UNL     1      21.573   2.058 -22.788  1.00  0.00     0.243 C 
HETATM    3  N3  UNL     1      21.891   0.994 -21.939  1.00  0.00    -0.347 N 
HETATM    4  C14 UNL     1      21.078   0.624 -20.766  1.00  0.00     0.145 C 
HETATM    5  C15 UNL     1      21.937  -0.232 -19.840  1.00  0.00     0.144 C 
HETATM    6  N4  UNL     1      22.348  -1.460 -20.563  1.00  0.00    -0.362 N 
HETATM    7  C27 UNL     1      22.717  -1.292 -21.918  1.00  0.00     0.144 C 
HETATM    8  C28 UNL     1      23.070   0.187 -22.164  1.00  0.00     0.145 C 
ENDROOT
BRANCH   2   9
HETATM    9  C2  UNL     1      20.403   2.942 -22.637  1.00  0.00     0.185 C 
HETATM   10  C3  UNL     1      19.087   2.226 -22.539  1.00  0.00     0.115 C 
HETATM   11  C4  UNL     1      18.874   1.834 -23.999  1.00  0.00     0.261 C 
HETATM   12  F1  UNL     1      19.450   0.582 -24.243  1.00  0.00    -0.204 F 
HETATM   13  F2  UNL     1      17.533   1.695 -24.302  1.00  0.00    -0.204 F 
HETATM   14  C5  UNL     1      19.555   2.901 -24.802  1.00  0.00     0.205 C 
HETATM   15  N1  UNL     1      20.240   3.723 -23.837  1.00  0.00    -0.331 N 
HETATM   16  C6  UNL     1      20.692   5.072 -24.004  1.00  0.00     0.246 C 
HETATM   17  O2  UNL     1      21.271   5.618 -23.037  1.00  0.00    -0.272 OA
BRANCH  16  18
HETATM   18  C7  UNL     1      20.501   5.830 -25.255  1.00  0.00     0.335 C 
BRANCH  18  19
HETATM   19  N2  UNL     1      19.594   6.925 -25.113  1.00  0.00    -0.063 N 
ATOM     20  H22 UNL     1      18.856   6.870 -25.816  1.00  0.00     0.278 HD
ATOM     21  H21 UNL     1      19.036   6.818 -24.266  1.00  0.00     0.278 HD
BRANCH  19  22
HETATM   22  C8  UNL     1      20.213   8.210 -25.142  1.00  0.00     0.186 C 
HETATM   23  C9  UNL     1      20.154   8.923 -23.832  1.00  0.00     0.033 C 
HETATM   24  C10 UNL     1      20.676  10.336 -23.975  1.00  0.00     0.002 C 
HETATM   25  C11 UNL     1      22.104  10.282 -24.487  1.00  0.00     0.000 C 
HETATM   26  C12 UNL     1      22.040   9.638 -25.864  1.00  0.00     0.002 C 
HETATM   27  C13 UNL     1      21.621   8.183 -25.688  1.00  0.00     0.033 C 
ENDBRANCH  19  22
ENDBRANCH  18  19
ENDBRANCH  16  18
ENDBRANCH   2   9
BRANCH   6  28
HETATM   28  C16 UNL     1      22.307  -2.640 -19.841  1.00  0.00     0.122 C 
BRANCH  28  29
HETATM   29  O3  UNL     1      23.455  -3.236 -19.667  1.00  0.00    -0.349 OA
ATOM     30  H3  UNL     1      24.048  -2.815 -19.056  1.00  0.00     0.219 HD
ENDBRANCH  28  29
BRANCH  28  31
HETATM   31  C17 UNL     1      21.153  -3.318 -19.245  1.00  0.00     0.026 C 
HETATM   32  C18 UNL     1      21.468  -4.728 -18.861  1.00  0.00     0.022 C 
HETATM   33  C19 UNL     1      20.272  -5.364 -18.143  1.00  0.00    -0.013 C 
HETATM   34  C20 UNL     1      20.107  -4.583 -16.859  1.00  0.00     0.009 C 
HETATM   35  C24 UNL     1      19.087  -5.292 -19.050  1.00  0.00     0.009 C 
HETATM   36  C21 UNL     1      19.748  -3.167 -17.204  1.00  0.00    -0.013 C 
HETATM   37  C22 UNL     1      18.509  -3.109 -18.088  1.00  0.00     0.009 C 
HETATM   38  C26 UNL     1      20.850  -2.505 -17.946  1.00  0.00     0.022 C 
HETATM   39  C23 UNL     1      18.757  -3.855 -19.357  1.00  0.00    -0.013 C 
HETATM   40  C25 UNL     1      19.932  -3.251 -20.102  1.00  0.00     0.022 C 
ENDBRANCH  28  31
ENDBRANCH   6  28
TORSDOF 7
ENDMDL
