MODEL 1
REMARK VINA RESULT: -8.001406241      0.000      0.000
REMARK  7 active torsions:
REMARK  status: ('A' for Active; 'I' for Inactive)
REMARK    1  A    between atoms: C3_6  and  C4_7 
REMARK    2  A    between atoms: C4_7  and  C5_8 
REMARK    3  A    between atoms: C8_11  and  C9_12 
REMARK    4  A    between atoms: C10_13  and  C11_14 
REMARK    5  A    between atoms: C11_14  and  O2_15 
REMARK    6  A    between atoms: O2_15  and  C12_16 
REMARK    7  A    between atoms: C12_16  and  C13_17 
ROOT
HETATM    1  C5  UNL     1      21.055  -0.151 -19.885  1.00  0.00    -0.036 A 
HETATM    2  C6  UNL     1      20.153   0.155 -18.845  1.00  0.00     0.010 A 
HETATM    3  C7  UNL     1      19.906  -0.684 -17.796  1.00  0.00     0.023 A 
HETATM    4  C8  UNL     1      20.582  -1.882 -17.775  1.00  0.00     0.045 A 
HETATM    5  C14 UNL     1      21.471  -2.219 -18.768  1.00  0.00     0.068 A 
HETATM    6  N2  UNL     1      22.159  -3.375 -18.753  1.00  0.00    -0.344 N 
ATOM      7  H2  UNL     1      22.004  -4.036 -17.992  1.00  0.00     0.167 HD
HETATM    8  C15 UNL     1      23.045  -3.682 -19.719  1.00  0.00     0.086 A 
HETATM    9  N3  UNL     1      23.312  -2.878 -20.750  1.00  0.00    -0.303 N 
HETATM   10  C16 UNL     1      22.624  -1.689 -20.793  1.00  0.00     0.262 A 
HETATM   11  O3  UNL     1      22.903  -0.970 -21.749  1.00  0.00    -0.267 OA
HETATM   12  C17 UNL     1      21.718  -1.350 -19.839  1.00  0.00     0.067 A 
HETATM   13  C18 UNL     1      24.303  -3.439 -21.654  1.00  0.00     0.134 C 
HETATM   14  C19 UNL     1      24.816  -4.661 -20.988  1.00  0.00     0.028 C 
HETATM   15  C20 UNL     1      23.874  -4.914 -19.861  1.00  0.00     0.078 C 
ENDROOT
BRANCH   1  16
HETATM   16  C4  UNL     1      21.125   0.787 -20.970  1.00  0.00     0.077 C 
BRANCH  16  17
HETATM   17  C3  UNL     1      20.059   0.627 -22.039  1.00  0.00    -0.035 A 
HETATM   18  C2  UNL     1      19.167  -0.494 -22.334  1.00  0.00     0.159 A 
HETATM   19  N1  UNL     1      18.328  -0.139 -23.441  1.00  0.00    -0.352 N 
HETATM   20  C1  UNL     1      18.689   1.149 -23.824  1.00  0.00     0.259 A 
ATOM     21  H1  UNL     1      17.604  -0.719 -23.866  1.00  0.00     0.163 HD
HETATM   22  O1  UNL     1      18.193   1.827 -24.768  1.00  0.00    -0.267 OA
HETATM   23  C21 UNL     1      19.748   1.576 -22.939  1.00  0.00     0.082 A 
HETATM   24 BR2  UNL     1      20.633   3.297 -23.018  1.00  0.00    -0.045 Br
ENDBRANCH  16  17
ENDBRANCH   1  16
BRANCH   4  25
HETATM   25  C9  UNL     1      20.365  -2.774 -16.662  1.00  0.00    -0.062 C 
HETATM   26  C10 UNL     1      20.174  -3.541 -15.752  1.00  0.00    -0.075 C 
BRANCH  26  27
HETATM   27  C11 UNL     1      19.931  -4.513 -14.668  1.00  0.00     0.261 C 
BRANCH  27  28
HETATM   28  O2  UNL     1      19.147  -5.575 -15.117  1.00  0.00    -0.379 OA
BRANCH  28  29
HETATM   29  C12 UNL     1      19.608  -6.110 -16.293  1.00  0.00     0.179 C 
BRANCH  29  30
HETATM   30  C13 UNL     1      18.565  -6.403 -17.321  1.00  0.00     0.111 C 
HETATM   31 BR1  UNL     1      18.863  -5.269 -18.886  1.00  0.00    -0.094 Br
ENDBRANCH  29  30
ENDBRANCH  28  29
ENDBRANCH  27  28
ENDBRANCH  26  27
ENDBRANCH   4  25
TORSDOF 7
ENDMDL
MODEL 2
REMARK VINA RESULT: -7.896381040      1.071      1.071
REMARK  7 active torsions:
REMARK  status: ('A' for Active; 'I' for Inactive)
REMARK    1  A    between atoms: C3_6  and  C4_7 
REMARK    2  A    between atoms: C4_7  and  C5_8 
REMARK    3  A    between atoms: C8_11  and  C9_12 
REMARK    4  A    between atoms: C10_13  and  C11_14 
REMARK    5  A    between atoms: C11_14  and  O2_15 
REMARK    6  A    between atoms: O2_15  and  C12_16 
REMARK    7  A    between atoms: C12_16  and  C13_17 
ROOT
HETATM    1  C5  UNL     1      21.395  -0.308 -19.814  1.00  0.00    -0.036 A 
HETATM    2  C6  UNL     1      20.548   0.071 -18.752  1.00  0.00     0.010 A 
HETATM    3  C7  UNL     1      20.228  -0.760 -17.716  1.00  0.00     0.023 A 
HETATM    4  C8  UNL     1      20.771  -2.024 -17.731  1.00  0.00     0.045 A 
HETATM    5  C14 UNL     1      21.603  -2.432 -18.747  1.00  0.00     0.068 A 
HETATM    6  N2  UNL     1      22.162  -3.656 -18.768  1.00  0.00    -0.344 N 
ATOM      7  H2  UNL     1      21.949  -4.313 -18.018  1.00  0.00     0.167 HD
HETATM    8  C15 UNL     1      22.995  -4.034 -19.756  1.00  0.00     0.086 A 
HETATM    9  N3  UNL     1      23.330  -3.241 -20.775  1.00  0.00    -0.303 N 
HETATM   10  C16 UNL     1      22.774  -1.985 -20.781  1.00  0.00     0.262 A 
HETATM   11  O3  UNL     1      23.115  -1.278 -21.727  1.00  0.00    -0.267 OA
HETATM   12  C17 UNL     1      21.925  -1.571 -19.804  1.00  0.00     0.067 A 
HETATM   13  C18 UNL     1      24.241  -3.886 -21.707  1.00  0.00     0.134 C 
HETATM   14  C19 UNL     1      24.629  -5.170 -21.076  1.00  0.00     0.028 C 
HETATM   15  C20 UNL     1      23.683  -5.346 -19.937  1.00  0.00     0.078 C 
ENDROOT
BRANCH   1  16
HETATM   16  C4  UNL     1      21.549   0.641 -20.880  1.00  0.00     0.077 C 
BRANCH  16  17
HETATM   17  C3  UNL     1      20.410   0.684 -21.884  1.00  0.00    -0.035 A 
HETATM   18  C2  UNL     1      19.351  -0.286 -22.164  1.00  0.00     0.159 A 
HETATM   19  N1  UNL     1      18.509   0.236 -23.199  1.00  0.00    -0.352 N 
HETATM   20  C1  UNL     1      19.027   1.477 -23.555  1.00  0.00     0.259 A 
ATOM     21  H1  UNL     1      17.686  -0.216 -23.599  1.00  0.00     0.163 HD
HETATM   22  O1  UNL     1      18.579   2.262 -24.438  1.00  0.00    -0.267 OA
HETATM   23  C21 UNL     1      20.187   1.709 -22.725  1.00  0.00     0.082 A 
HETATM   24 BR2  UNL     1      21.303   3.290 -22.794  1.00  0.00    -0.045 Br
ENDBRANCH  16  17
ENDBRANCH   1  16
BRANCH   4  25
HETATM   25  C9  UNL     1      20.477  -2.912 -16.633  1.00  0.00    -0.062 C 
HETATM   26  C10 UNL     1      20.209  -3.633 -15.705  1.00  0.00    -0.075 C 
BRANCH  26  27
HETATM   27  C11 UNL     1      19.846  -4.490 -14.559  1.00  0.00     0.261 C 
BRANCH  27  28
HETATM   28  O2  UNL     1      19.462  -5.760 -14.987  1.00  0.00    -0.379 OA
BRANCH  28  29
HETATM   29  C12 UNL     1      18.245  -6.141 -14.480  1.00  0.00     0.179 C 
BRANCH  29  30
HETATM   30  C13 UNL     1      17.677  -7.401 -15.045  1.00  0.00     0.111 C 
HETATM   31 BR1  UNL     1      19.040  -8.295 -16.128  1.00  0.00    -0.094 Br
ENDBRANCH  29  30
ENDBRANCH  28  29
ENDBRANCH  27  28
ENDBRANCH  26  27
ENDBRANCH   4  25
TORSDOF 7
ENDMDL
MODEL 3
REMARK VINA RESULT: -7.406069724      2.107      6.889
REMARK  7 active torsions:
REMARK  status: ('A' for Active; 'I' for Inactive)
REMARK    1  A    between atoms: C3_6  and  C4_7 
REMARK    2  A    between atoms: C4_7  and  C5_8 
REMARK    3  A    between atoms: C8_11  and  C9_12 
REMARK    4  A    between atoms: C10_13  and  C11_14 
REMARK    5  A    between atoms: C11_14  and  O2_15 
REMARK    6  A    between atoms: O2_15  and  C12_16 
REMARK    7  A    between atoms: C12_16  and  C13_17 
ROOT
HETATM    1  C5  UNL     1      20.608  -2.135 -18.045  1.00  0.00    -0.036 A 
HETATM    2  C6  UNL     1      19.734  -1.027 -18.066  1.00  0.00     0.010 A 
HETATM    3  C7  UNL     1      19.816  -0.027 -18.992  1.00  0.00     0.023 A 
HETATM    4  C8  UNL     1      20.807  -0.125 -19.941  1.00  0.00     0.045 A 
HETATM    5  C14 UNL     1      21.678  -1.189 -19.957  1.00  0.00     0.068 A 
HETATM    6  N2  UNL     1      22.639  -1.315 -20.890  1.00  0.00    -0.344 N 
ATOM      7  H2  UNL     1      22.741  -0.590 -21.600  1.00  0.00     0.167 HD
HETATM    8  C15 UNL     1      23.470  -2.375 -20.909  1.00  0.00     0.086 A 
HETATM    9  N3  UNL     1      23.408  -3.369 -20.022  1.00  0.00    -0.303 N 
HETATM   10  C16 UNL     1      22.436  -3.269 -19.056  1.00  0.00     0.262 A 
HETATM   11  O3  UNL     1      22.401  -4.207 -18.264  1.00  0.00    -0.267 OA
HETATM   12  C17 UNL     1      21.585  -2.210 -19.003  1.00  0.00     0.067 A 
HETATM   13  C18 UNL     1      24.415  -4.391 -20.258  1.00  0.00     0.134 C 
HETATM   14  C19 UNL     1      25.052  -4.044 -21.551  1.00  0.00     0.028 C 
HETATM   15  C20 UNL     1      24.587  -2.660 -21.855  1.00  0.00     0.078 C 
ENDROOT
BRANCH   1  16
HETATM   16  C4  UNL     1      20.460  -3.046 -16.945  1.00  0.00     0.077 C 
BRANCH  16  17
HETATM   17  C3  UNL     1      19.643  -4.292 -17.236  1.00  0.00    -0.035 A 
HETATM   18  C2  UNL     1      19.109  -4.807 -18.497  1.00  0.00     0.159 A 
HETATM   19  N1  UNL     1      18.417  -6.035 -18.238  1.00  0.00    -0.352 N 
HETATM   20  C1  UNL     1      18.508  -6.270 -16.870  1.00  0.00     0.259 A 
ATOM     21  H1  UNL     1      17.946  -6.624 -18.926  1.00  0.00     0.163 HD
HETATM   22  O1  UNL     1      18.023  -7.248 -16.233  1.00  0.00    -0.267 OA
HETATM   23  C21 UNL     1      19.267  -5.181 -16.300  1.00  0.00     0.082 A 
HETATM   24 BR2  UNL     1      19.701  -4.994 -14.422  1.00  0.00    -0.045 Br
ENDBRANCH  16  17
ENDBRANCH   1  16
BRANCH   4  25
HETATM   25  C9  UNL     1      20.896   0.901 -20.951  1.00  0.00    -0.062 C 
HETATM   26  C10 UNL     1      20.976   1.736 -21.817  1.00  0.00    -0.075 C 
BRANCH  26  27
HETATM   27  C11 UNL     1      21.077   2.724 -22.909  1.00  0.00     0.261 C 
BRANCH  27  28
HETATM   28  O2  UNL     1      20.855   2.124 -24.147  1.00  0.00    -0.379 OA
BRANCH  28  29
HETATM   29  C12 UNL     1      19.559   1.704 -24.305  1.00  0.00     0.179 C 
BRANCH  29  30
HETATM   30  C13 UNL     1      19.389   0.342 -24.893  1.00  0.00     0.111 C 
HETATM   31 BR1  UNL     1      18.729  -0.878 -23.514  1.00  0.00    -0.094 Br
ENDBRANCH  29  30
ENDBRANCH  28  29
ENDBRANCH  27  28
ENDBRANCH  26  27
ENDBRANCH   4  25
TORSDOF 7
ENDMDL
MODEL 4
REMARK VINA RESULT: -7.383315304      4.152      7.312
REMARK  7 active torsions:
REMARK  status: ('A' for Active; 'I' for Inactive)
REMARK    1  A    between atoms: C3_6  and  C4_7 
REMARK    2  A    between atoms: C4_7  and  C5_8 
REMARK    3  A    between atoms: C8_11  and  C9_12 
REMARK    4  A    between atoms: C10_13  and  C11_14 
REMARK    5  A    between atoms: C11_14  and  O2_15 
REMARK    6  A    between atoms: O2_15  and  C12_16 
REMARK    7  A    between atoms: C12_16  and  C13_17 
ROOT
HETATM    1  C5  UNL     1      21.048   3.637 -24.556  1.00  0.00    -0.036 A 
HETATM    2  C6  UNL     1      22.363   3.243 -24.232  1.00  0.00     0.010 A 
HETATM    3  C7  UNL     1      22.662   2.428 -23.178  1.00  0.00     0.023 A 
HETATM    4  C8  UNL     1      21.613   1.982 -22.407  1.00  0.00     0.045 A 
HETATM    5  C14 UNL     1      20.316   2.342 -22.690  1.00  0.00     0.068 A 
HETATM    6  N2  UNL     1      19.275   1.899 -21.963  1.00  0.00    -0.344 N 
ATOM      7  H2  UNL     1      19.450   1.291 -21.163  1.00  0.00     0.167 HD
HETATM    8  C15 UNL     1      18.007   2.238 -22.266  1.00  0.00     0.086 A 
HETATM    9  N3  UNL     1      17.686   3.025 -23.294  1.00  0.00    -0.303 N 
HETATM   10  C16 UNL     1      18.729   3.495 -24.055  1.00  0.00     0.262 A 
HETATM   11  O3  UNL     1      18.395   4.206 -24.999  1.00  0.00    -0.267 OA
HETATM   12  C17 UNL     1      20.021   3.177 -23.775  1.00  0.00     0.067 A 
HETATM   13  C18 UNL     1      16.252   3.241 -23.404  1.00  0.00     0.134 C 
HETATM   14  C19 UNL     1      15.626   2.331 -22.415  1.00  0.00     0.028 C 
HETATM   15  C20 UNL     1      16.750   1.849 -21.563  1.00  0.00     0.078 C 
ENDROOT
BRANCH   1  16
HETATM   16  C4  UNL     1      20.909   4.581 -25.629  1.00  0.00     0.077 C 
BRANCH  16  17
HETATM   17  C3  UNL     1      21.041   6.041 -25.234  1.00  0.00    -0.035 A 
HETATM   18  C2  UNL     1      20.650   6.734 -24.006  1.00  0.00     0.159 A 
HETATM   19  N1  UNL     1      21.008   8.117 -24.122  1.00  0.00    -0.352 N 
HETATM   20  C1  UNL     1      21.591   8.280 -25.374  1.00  0.00     0.259 A 
ATOM     21  H1  UNL     1      20.862   8.843 -23.419  1.00  0.00     0.163 HD
HETATM   22  O1  UNL     1      22.039   9.353 -25.869  1.00  0.00    -0.267 OA
HETATM   23  C21 UNL     1      21.591   6.986 -26.016  1.00  0.00     0.082 A 
HETATM   24 BR2  UNL     1      22.287   6.626 -27.787  1.00  0.00    -0.045 Br
ENDBRANCH  16  17
ENDBRANCH   1  16
BRANCH   4  25
HETATM   25  C9  UNL     1      21.897   1.094 -21.307  1.00  0.00    -0.062 C 
HETATM   26  C10 UNL     1      22.114   0.329 -20.400  1.00  0.00    -0.075 C 
BRANCH  26  27
HETATM   27  C11 UNL     1      22.357  -0.639 -19.313  1.00  0.00     0.261 C 
BRANCH  27  28
HETATM   28  O2  UNL     1      21.827  -1.888 -19.630  1.00  0.00    -0.379 OA
BRANCH  28  29
HETATM   29  C12 UNL     1      20.456  -1.879 -19.688  1.00  0.00     0.179 C 
BRANCH  29  30
HETATM   30  C13 UNL     1      19.849  -2.775 -20.717  1.00  0.00     0.111 C 
HETATM   31 BR1  UNL     1      19.430  -1.731 -22.317  1.00  0.00    -0.094 Br
ENDBRANCH  29  30
ENDBRANCH  28  29
ENDBRANCH  27  28
ENDBRANCH  26  27
ENDBRANCH   4  25
TORSDOF 7
ENDMDL
MODEL 5
REMARK VINA RESULT: -7.361836767      2.726      7.666
REMARK  7 active torsions:
REMARK  status: ('A' for Active; 'I' for Inactive)
REMARK    1  A    between atoms: C3_6  and  C4_7 
REMARK    2  A    between atoms: C4_7  and  C5_8 
REMARK    3  A    between atoms: C8_11  and  C9_12 
REMARK    4  A    between atoms: C10_13  and  C11_14 
REMARK    5  A    between atoms: C11_14  and  O2_15 
REMARK    6  A    between atoms: O2_15  and  C12_16 
REMARK    7  A    between atoms: C12_16  and  C13_17 
ROOT
HETATM    1  C5  UNL     1      22.259  -1.313 -20.052  1.00  0.00    -0.036 A 
HETATM    2  C6  UNL     1      22.257  -1.064 -21.440  1.00  0.00     0.010 A 
HETATM    3  C7  UNL     1      21.278  -0.351 -22.072  1.00  0.00     0.023 A 
HETATM    4  C8  UNL     1      20.254   0.139 -21.296  1.00  0.00     0.045 A 
HETATM    5  C14 UNL     1      20.219  -0.080 -19.938  1.00  0.00     0.068 A 
HETATM    6  N2  UNL     1      19.238   0.410 -19.158  1.00  0.00    -0.344 N 
ATOM      7  H2  UNL     1      18.483   0.946 -19.586  1.00  0.00     0.167 HD
HETATM    8  C15 UNL     1      19.229   0.210 -17.826  1.00  0.00     0.086 A 
HETATM    9  N3  UNL     1      20.175  -0.475 -17.183  1.00  0.00    -0.303 N 
HETATM   10  C16 UNL     1      21.191  -0.989 -17.953  1.00  0.00     0.262 A 
HETATM   11  O3  UNL     1      22.050  -1.603 -17.326  1.00  0.00    -0.267 OA
HETATM   12  C17 UNL     1      21.228  -0.811 -19.300  1.00  0.00     0.067 A 
HETATM   13  C18 UNL     1      19.934  -0.549 -15.751  1.00  0.00     0.134 C 
HETATM   14  C19 UNL     1      18.784   0.348 -15.485  1.00  0.00     0.028 C 
HETATM   15  C20 UNL     1      18.220   0.667 -16.827  1.00  0.00     0.078 C 
ENDROOT
BRANCH   1  16
HETATM   16  C4  UNL     1      23.300  -2.168 -19.555  1.00  0.00     0.077 C 
BRANCH  16  17
HETATM   17  C3  UNL     1      23.552  -3.426 -20.366  1.00  0.00    -0.035 A 
HETATM   18  C2  UNL     1      24.671  -3.790 -21.236  1.00  0.00     0.159 A 
HETATM   19  N1  UNL     1      24.440  -5.103 -21.761  1.00  0.00    -0.352 N 
HETATM   20  C1  UNL     1      23.224  -5.537 -21.244  1.00  0.00     0.259 A 
ATOM     21  H1  UNL     1      25.052  -5.622 -22.392  1.00  0.00     0.163 HD
HETATM   22  O1  UNL     1      22.655  -6.644 -21.467  1.00  0.00    -0.267 OA
HETATM   23  C21 UNL     1      22.719  -4.481 -20.397  1.00  0.00     0.082 A 
HETATM   24 BR2  UNL     1      21.050  -4.546 -19.417  1.00  0.00    -0.045 Br
ENDBRANCH  16  17
ENDBRANCH   1  16
BRANCH   4  25
HETATM   25  C9  UNL     1      19.224   0.923 -21.931  1.00  0.00    -0.062 C 
HETATM   26  C10 UNL     1      18.341   1.563 -22.446  1.00  0.00    -0.075 C 
BRANCH  26  27
HETATM   27  C11 UNL     1      17.231   2.328 -23.047  1.00  0.00     0.261 C 
BRANCH  27  28
HETATM   28  O2  UNL     1      17.511   3.693 -23.054  1.00  0.00    -0.379 OA
BRANCH  28  29
HETATM   29  C12 UNL     1      18.270   4.070 -24.133  1.00  0.00     0.179 C 
BRANCH  29  30
HETATM   30  C13 UNL     1      19.370   5.038 -23.842  1.00  0.00     0.111 C 
HETATM   31 BR1  UNL     1      21.009   4.050 -23.437  1.00  0.00    -0.094 Br
ENDBRANCH  29  30
ENDBRANCH  28  29
ENDBRANCH  27  28
ENDBRANCH  26  27
ENDBRANCH   4  25
TORSDOF 7
ENDMDL
