MODEL 1
REMARK VINA RESULT: -8.004764823      0.000      0.000
REMARK  9 active torsions:
REMARK  status: ('A' for Active; 'I' for Inactive)
REMARK    1  A    between atoms: C2_2  and  C3_3 
REMARK    2  A    between atoms: C2_2  and  C6_6 
REMARK    3  A    between atoms: C9_9  and  C10_10 
REMARK    4  A    between atoms: C10_10  and  O1_11 
REMARK    5  A    between atoms: C10_10  and  C11_13 
REMARK    6  A    between atoms: C11_13  and  C12_14 
REMARK    7  A    between atoms: C12_14  and  C13_15 
REMARK    8  A    between atoms: C13_15  and  O2_18 
REMARK    9  A    between atoms: C18_25  and  O4_26 
ROOT
HETATM    1  C6  UNL     1      23.207  -0.612 -20.847  1.00  0.00    -0.021 C 
HETATM    2  C7  UNL     1      22.687  -0.078 -22.115  1.00  0.00    -0.012 C 
HETATM    3  C8  UNL     1      23.059   1.215 -22.664  1.00  0.00     0.055 C 
HETATM    4  C9  UNL     1      22.102   2.376 -22.365  1.00  0.00     0.113 C 
HETATM    5  N1  UNL     1      22.820   3.152 -21.335  1.00  0.00    -0.389 N 
ATOM      6  H1  UNL     1      23.104   4.097 -21.591  1.00  0.00     0.159 HD
HETATM    7  C16 UNL     1      23.132   2.755 -20.127  1.00  0.00     0.122 C 
HETATM    8  C17 UNL     1      22.950   1.548 -19.330  1.00  0.00     0.104 A 
HETATM    9  O3  UNL     1      22.693   1.715 -18.028  1.00  0.00    -0.286 OA
HETATM   10  C18 UNL     1      22.552   0.558 -17.463  1.00  0.00     0.184 A 
HETATM   11  C19 UNL     1      22.724  -0.415 -18.431  1.00  0.00     0.079 A 
HETATM   12  C20 UNL     1      22.983   0.206 -19.635  1.00  0.00     0.014 A 
ENDROOT
BRANCH   4  13
HETATM   13  C10 UNL     1      21.935   3.277 -23.602  1.00  0.00     0.141 C 
BRANCH  13  14
HETATM   14  O1  UNL     1      21.868   2.331 -24.657  1.00  0.00    -0.394 OA
ATOM     15  H1  UNL     1      22.672   1.839 -24.539  1.00  0.00     0.210 HD
ENDBRANCH  13  14
BRANCH  13  16
HETATM   16  C11 UNL     1      20.636   3.999 -23.399  1.00  0.00     0.036 C 
BRANCH  16  17
HETATM   17  C12 UNL     1      19.391   3.354 -23.779  1.00  0.00     0.039 C 
BRANCH  17  18
HETATM   18  C13 UNL     1      18.138   4.041 -24.028  1.00  0.00     0.051 C 
HETATM   19  C14 UNL     1      17.660   5.017 -23.004  1.00  0.00     0.045 C 
HETATM   20  C15 UNL     1      17.014   3.184 -24.528  1.00  0.00     0.045 C 
BRANCH  18  21
HETATM   21  O2  UNL     1      18.422   4.897 -25.170  1.00  0.00    -0.391 OA
ATOM     22  H2  UNL     1      17.565   5.097 -25.529  1.00  0.00     0.210 HD
ENDBRANCH  18  21
ENDBRANCH  17  18
ENDBRANCH  16  17
ENDBRANCH  13  16
ENDBRANCH   4  13
BRANCH   1  23
HETATM   23  C2  UNL     1      24.517  -1.303 -20.889  1.00  0.00    -0.053 C 
HETATM   24  C1  UNL     1      25.644  -0.695 -21.233  1.00  0.00     0.020 C 
BRANCH  23  25
HETATM   25  C3  UNL     1      24.675  -2.740 -20.531  1.00  0.00     0.010 C 
HETATM   26  C4  UNL     1      23.304  -3.404 -20.400  1.00  0.00     0.015 C 
HETATM   27  C5  UNL     1      25.500  -3.498 -21.549  1.00  0.00     0.015 C 
ENDBRANCH  23  25
ENDBRANCH   1  23
BRANCH  10  28
HETATM   28  O4  UNL     1      22.273   0.277 -16.113  1.00  0.00    -0.341 OA
ATOM     29  H4  UNL     1      21.994  -0.546 -15.730  1.00  0.00     0.220 HD
ENDBRANCH  10  28
TORSDOF 9
ENDMDL
MODEL 2
REMARK VINA RESULT: -7.854609363      1.767      2.332
REMARK  9 active torsions:
REMARK  status: ('A' for Active; 'I' for Inactive)
REMARK    1  A    between atoms: C2_2  and  C3_3 
REMARK    2  A    between atoms: C2_2  and  C6_6 
REMARK    3  A    between atoms: C9_9  and  C10_10 
REMARK    4  A    between atoms: C10_10  and  O1_11 
REMARK    5  A    between atoms: C10_10  and  C11_13 
REMARK    6  A    between atoms: C11_13  and  C12_14 
REMARK    7  A    between atoms: C12_14  and  C13_15 
REMARK    8  A    between atoms: C13_15  and  O2_18 
REMARK    9  A    between atoms: C18_25  and  O4_26 
ROOT
HETATM    1  C6  UNL     1      23.214  -0.805 -20.769  1.00  0.00    -0.021 C 
HETATM    2  C7  UNL     1      22.729  -0.363 -22.086  1.00  0.00    -0.012 C 
HETATM    3  C8  UNL     1      23.140   0.874 -22.728  1.00  0.00     0.055 C 
HETATM    4  C9  UNL     1      22.204   2.076 -22.541  1.00  0.00     0.113 C 
HETATM    5  N1  UNL     1      22.922   2.915 -21.561  1.00  0.00    -0.389 N 
ATOM      6  H1  UNL     1      23.232   3.831 -21.886  1.00  0.00     0.159 HD
HETATM    7  C16 UNL     1      23.203   2.609 -20.320  1.00  0.00     0.122 C 
HETATM    8  C17 UNL     1      22.980   1.474 -19.433  1.00  0.00     0.104 A 
HETATM    9  O3  UNL     1      22.703   1.749 -18.154  1.00  0.00    -0.286 OA
HETATM   10  C18 UNL     1      22.526   0.644 -17.502  1.00  0.00     0.184 A 
HETATM   11  C19 UNL     1      22.693  -0.407 -18.387  1.00  0.00     0.079 A 
HETATM   12  C20 UNL     1      22.988   0.111 -19.631  1.00  0.00     0.014 A 
ENDROOT
BRANCH   4  13
HETATM   13  C10 UNL     1      22.080   2.879 -23.848  1.00  0.00     0.141 C 
BRANCH  13  14
HETATM   14  O1  UNL     1      20.684   3.120 -23.922  1.00  0.00    -0.394 OA
ATOM     15  H1  UNL     1      20.505   3.528 -23.083  1.00  0.00     0.210 HD
ENDBRANCH  13  14
BRANCH  13  16
HETATM   16  C11 UNL     1      22.865   4.136 -23.620  1.00  0.00     0.036 C 
BRANCH  16  17
HETATM   17  C12 UNL     1      22.191   5.422 -23.682  1.00  0.00     0.039 C 
BRANCH  17  18
HETATM   18  C13 UNL     1      21.865   6.248 -22.535  1.00  0.00     0.051 C 
HETATM   19  C14 UNL     1      20.697   5.848 -21.695  1.00  0.00     0.045 C 
HETATM   20  C15 UNL     1      21.881   7.728 -22.775  1.00  0.00     0.045 C 
BRANCH  18  21
HETATM   21  O2  UNL     1      22.986   6.058 -21.628  1.00  0.00    -0.391 OA
ATOM     22  H2  UNL     1      22.657   5.450 -20.975  1.00  0.00     0.210 HD
ENDBRANCH  18  21
ENDBRANCH  17  18
ENDBRANCH  16  17
ENDBRANCH  13  16
ENDBRANCH   4  13
BRANCH   1  23
HETATM   23  C2  UNL     1      24.509  -1.525 -20.731  1.00  0.00    -0.053 C 
HETATM   24  C1  UNL     1      25.662  -0.958 -21.061  1.00  0.00     0.020 C 
BRANCH  23  25
HETATM   25  C3  UNL     1      24.621  -2.947 -20.302  1.00  0.00     0.010 C 
HETATM   26  C4  UNL     1      23.233  -3.524 -20.025  1.00  0.00     0.015 C 
HETATM   27  C5  UNL     1      25.320  -3.805 -21.335  1.00  0.00     0.015 C 
ENDBRANCH  23  25
ENDBRANCH   1  23
BRANCH  10  28
HETATM   28  O4  UNL     1      22.217   0.476 -16.139  1.00  0.00    -0.341 OA
ATOM     29  H4  UNL     1      22.638  -0.094 -15.507  1.00  0.00     0.220 HD
ENDBRANCH  10  28
TORSDOF 9
ENDMDL
MODEL 3
REMARK VINA RESULT: -7.819483850      1.706      2.007
REMARK  9 active torsions:
REMARK  status: ('A' for Active; 'I' for Inactive)
REMARK    1  A    between atoms: C2_2  and  C3_3 
REMARK    2  A    between atoms: C2_2  and  C6_6 
REMARK    3  A    between atoms: C9_9  and  C10_10 
REMARK    4  A    between atoms: C10_10  and  O1_11 
REMARK    5  A    between atoms: C10_10  and  C11_13 
REMARK    6  A    between atoms: C11_13  and  C12_14 
REMARK    7  A    between atoms: C12_14  and  C13_15 
REMARK    8  A    between atoms: C13_15  and  O2_18 
REMARK    9  A    between atoms: C18_25  and  O4_26 
ROOT
HETATM    1  C6  UNL     1      23.210  -0.778 -20.805  1.00  0.00    -0.021 C 
HETATM    2  C7  UNL     1      22.712  -0.347 -22.120  1.00  0.00    -0.012 C 
HETATM    3  C8  UNL     1      23.107   0.890 -22.771  1.00  0.00     0.055 C 
HETATM    4  C9  UNL     1      22.162   2.085 -22.583  1.00  0.00     0.113 C 
HETATM    5  N1  UNL     1      22.880   2.935 -21.612  1.00  0.00    -0.389 N 
ATOM      6  H1  UNL     1      23.179   3.852 -21.944  1.00  0.00     0.159 HD
HETATM    7  C16 UNL     1      23.173   2.638 -20.372  1.00  0.00     0.122 C 
HETATM    8  C17 UNL     1      22.966   1.505 -19.478  1.00  0.00     0.104 A 
HETATM    9  O3  UNL     1      22.696   1.784 -18.198  1.00  0.00    -0.286 OA
HETATM   10  C18 UNL     1      22.533   0.681 -17.540  1.00  0.00     0.184 A 
HETATM   11  C19 UNL     1      22.703  -0.372 -18.421  1.00  0.00     0.079 A 
HETATM   12  C20 UNL     1      22.984   0.142 -19.669  1.00  0.00     0.014 A 
ENDROOT
BRANCH   4  13
HETATM   13  C10 UNL     1      22.022   2.880 -23.893  1.00  0.00     0.141 C 
BRANCH  13  14
HETATM   14  O1  UNL     1      20.616   3.034 -24.003  1.00  0.00    -0.394 OA
ATOM     15  H1  UNL     1      20.535   3.926 -24.320  1.00  0.00     0.210 HD
ENDBRANCH  13  14
BRANCH  13  16
HETATM   16  C11 UNL     1      22.721   4.184 -23.646  1.00  0.00     0.036 C 
BRANCH  16  17
HETATM   17  C12 UNL     1      22.496   5.300 -24.550  1.00  0.00     0.039 C 
BRANCH  17  18
HETATM   18  C13 UNL     1      21.512   6.347 -24.352  1.00  0.00     0.051 C 
HETATM   19  C14 UNL     1      21.791   7.690 -24.942  1.00  0.00     0.045 C 
HETATM   20  C15 UNL     1      20.961   6.467 -22.963  1.00  0.00     0.045 C 
BRANCH  18  21
HETATM   21  O2  UNL     1      20.358   5.900 -25.118  1.00  0.00    -0.391 OA
ATOM     22  H2  UNL     1      20.194   5.021 -24.799  1.00  0.00     0.210 HD
ENDBRANCH  18  21
ENDBRANCH  17  18
ENDBRANCH  16  17
ENDBRANCH  13  16
ENDBRANCH   4  13
BRANCH   1  23
HETATM   23  C2  UNL     1      24.512  -1.487 -20.772  1.00  0.00    -0.053 C 
HETATM   24  C1  UNL     1      25.657  -0.911 -21.113  1.00  0.00     0.020 C 
BRANCH  23  25
HETATM   25  C3  UNL     1      24.639  -2.906 -20.337  1.00  0.00     0.010 C 
HETATM   26  C4  UNL     1      23.257  -3.502 -20.076  1.00  0.00     0.015 C 
HETATM   27  C5  UNL     1      25.364  -3.756 -21.359  1.00  0.00     0.015 C 
ENDBRANCH  23  25
ENDBRANCH   1  23
BRANCH  10  28
HETATM   28  O4  UNL     1      22.236   0.518 -16.174  1.00  0.00    -0.341 OA
ATOM     29  H4  UNL     1      22.745   0.066 -15.512  1.00  0.00     0.220 HD
ENDBRANCH  10  28
TORSDOF 9
ENDMDL
MODEL 4
REMARK VINA RESULT: -7.608724007      2.839      7.110
REMARK  9 active torsions:
REMARK  status: ('A' for Active; 'I' for Inactive)
REMARK    1  A    between atoms: C2_2  and  C3_3 
REMARK    2  A    between atoms: C2_2  and  C6_6 
REMARK    3  A    between atoms: C9_9  and  C10_10 
REMARK    4  A    between atoms: C10_10  and  O1_11 
REMARK    5  A    between atoms: C10_10  and  C11_13 
REMARK    6  A    between atoms: C11_13  and  C12_14 
REMARK    7  A    between atoms: C12_14  and  C13_15 
REMARK    8  A    between atoms: C13_15  and  O2_18 
REMARK    9  A    between atoms: C18_25  and  O4_26 
ROOT
HETATM    1  C6  UNL     1      22.751   3.215 -21.876  1.00  0.00    -0.021 C 
HETATM    2  C7  UNL     1      23.356   1.874 -21.877  1.00  0.00    -0.012 C 
HETATM    3  C8  UNL     1      22.882   0.771 -21.059  1.00  0.00     0.055 C 
HETATM    4  C9  UNL     1      23.617   0.550 -19.730  1.00  0.00     0.113 C 
HETATM    5  N1  UNL     1      22.665   1.065 -18.726  1.00  0.00    -0.389 N 
ATOM      6  H1  UNL     1      22.288   0.386 -18.065  1.00  0.00     0.159 HD
HETATM    7  C16 UNL     1      22.253   2.300 -18.593  1.00  0.00     0.122 C 
HETATM    8  C17 UNL     1      22.495   3.574 -19.261  1.00  0.00     0.104 A 
HETATM    9  O3  UNL     1      22.549   4.663 -18.486  1.00  0.00    -0.286 OA
HETATM   10  C18 UNL     1      22.775   5.705 -19.222  1.00  0.00     0.184 A 
HETATM   11  C19 UNL     1      22.874   5.288 -20.537  1.00  0.00     0.079 A 
HETATM   12  C20 UNL     1      22.693   3.922 -20.578  1.00  0.00     0.014 A 
ENDROOT
BRANCH   4  13
HETATM   13  C10 UNL     1      23.819  -0.952 -19.461  1.00  0.00     0.141 C 
BRANCH  13  14
HETATM   14  O1  UNL     1      22.820  -1.221 -18.491  1.00  0.00    -0.394 OA
ATOM     15  H1  UNL     1      23.270  -1.813 -17.898  1.00  0.00     0.210 HD
ENDBRANCH  13  14
BRANCH  13  16
HETATM   16  C11 UNL     1      23.543  -1.632 -20.769  1.00  0.00     0.036 C 
BRANCH  16  17
HETATM   17  C12 UNL     1      23.073  -3.007 -20.776  1.00  0.00     0.039 C 
BRANCH  17  18
HETATM   18  C13 UNL     1      23.854  -4.157 -20.362  1.00  0.00     0.051 C 
HETATM   19  C14 UNL     1      25.331  -3.988 -20.228  1.00  0.00     0.045 C 
HETATM   20  C15 UNL     1      23.514  -5.451 -21.038  1.00  0.00     0.045 C 
BRANCH  18  21
HETATM   21  O2  UNL     1      23.438  -4.394 -18.988  1.00  0.00    -0.391 OA
ATOM     22  H2  UNL     1      24.120  -3.990 -18.465  1.00  0.00     0.210 HD
ENDBRANCH  18  21
ENDBRANCH  17  18
ENDBRANCH  16  17
ENDBRANCH  13  16
ENDBRANCH   4  13
BRANCH   1  23
HETATM   23  C2  UNL     1      21.569   3.426 -22.744  1.00  0.00    -0.053 C 
HETATM   24  C1  UNL     1      20.391   2.864 -22.511  1.00  0.00     0.020 C 
BRANCH  23  25
HETATM   25  C3  UNL     1      21.607   4.303 -23.948  1.00  0.00     0.010 C 
HETATM   26  C4  UNL     1      20.798   5.576 -23.697  1.00  0.00     0.015 C 
HETATM   27  C5  UNL     1      23.020   4.679 -24.339  1.00  0.00     0.015 C 
ENDBRANCH  23  25
ENDBRANCH   1  23
BRANCH  10  28
HETATM   28  O4  UNL     1      22.908   7.046 -18.814  1.00  0.00    -0.341 OA
ATOM     29  H4  UNL     1      22.267   7.592 -18.374  1.00  0.00     0.220 HD
ENDBRANCH  10  28
TORSDOF 9
ENDMDL
MODEL 5
REMARK VINA RESULT: -7.292831991      9.530     13.558
REMARK  9 active torsions:
REMARK  status: ('A' for Active; 'I' for Inactive)
REMARK    1  A    between atoms: C2_2  and  C3_3 
REMARK    2  A    between atoms: C2_2  and  C6_6 
REMARK    3  A    between atoms: C9_9  and  C10_10 
REMARK    4  A    between atoms: C10_10  and  O1_11 
REMARK    5  A    between atoms: C10_10  and  C11_13 
REMARK    6  A    between atoms: C11_13  and  C12_14 
REMARK    7  A    between atoms: C12_14  and  C13_15 
REMARK    8  A    between atoms: C13_15  and  O2_18 
REMARK    9  A    between atoms: C18_25  and  O4_26 
ROOT
HETATM    1  C6  UNL     1      21.498  -5.267 -11.442  1.00  0.00    -0.021 C 
HETATM    2  C7  UNL     1      22.545  -4.897 -10.478  1.00  0.00    -0.012 C 
HETATM    3  C8  UNL     1      22.412  -3.825  -9.508  1.00  0.00     0.055 C 
HETATM    4  C9  UNL     1      23.009  -2.470  -9.910  1.00  0.00     0.113 C 
HETATM    5  N1  UNL     1      21.820  -1.661 -10.243  1.00  0.00    -0.389 N 
ATOM      6  H1  UNL     1      21.639  -0.851  -9.650  1.00  0.00     0.159 HD
HETATM    7  C16 UNL     1      20.973  -1.871 -11.219  1.00  0.00     0.122 C 
HETATM    8  C17 UNL     1      20.813  -2.849 -12.288  1.00  0.00     0.104 A 
HETATM    9  O3  UNL     1      20.371  -2.393 -13.465  1.00  0.00    -0.286 OA
HETATM   10  C18 UNL     1      20.288  -3.375 -14.306  1.00  0.00     0.184 A 
HETATM   11  C19 UNL     1      20.692  -4.529 -13.658  1.00  0.00     0.079 A 
HETATM   12  C20 UNL     1      21.029  -4.207 -12.360  1.00  0.00     0.014 A 
ENDROOT
BRANCH   4  13
HETATM   13  C10 UNL     1      23.710  -1.806  -8.712  1.00  0.00     0.141 C 
BRANCH  13  14
HETATM   14  O1  UNL     1      22.726  -1.901  -7.695  1.00  0.00    -0.394 OA
ATOM     15  H1  UNL     1      22.707  -2.835  -7.520  1.00  0.00     0.210 HD
ENDBRANCH  13  14
BRANCH  13  16
HETATM   16  C11 UNL     1      24.910  -2.660  -8.428  1.00  0.00     0.036 C 
BRANCH  16  17
HETATM   17  C12 UNL     1      25.939  -2.812  -9.442  1.00  0.00     0.039 C 
BRANCH  17  18
HETATM   18  C13 UNL     1      26.752  -3.998  -9.634  1.00  0.00     0.051 C 
HETATM   19  C14 UNL     1      26.243  -5.053 -10.560  1.00  0.00     0.045 C 
HETATM   20  C15 UNL     1      27.328  -4.600  -8.388  1.00  0.00     0.045 C 
BRANCH  18  21
HETATM   21  O2  UNL     1      27.933  -3.511 -10.331  1.00  0.00    -0.391 OA
ATOM     22  H2  UNL     1      28.290  -4.284 -10.753  1.00  0.00     0.210 HD
ENDBRANCH  18  21
ENDBRANCH  17  18
ENDBRANCH  16  17
ENDBRANCH  13  16
ENDBRANCH   4  13
BRANCH   1  23
HETATM   23  C2  UNL     1      20.436  -6.186 -10.969  1.00  0.00    -0.053 C 
HETATM   24  C1  UNL     1      20.467  -7.495 -11.177  1.00  0.00     0.020 C 
BRANCH  23  25
HETATM   25  C3  UNL     1      19.249  -5.711 -10.204  1.00  0.00     0.010 C 
HETATM   26  C4  UNL     1      17.970  -5.982 -10.996  1.00  0.00     0.015 C 
HETATM   27  C5  UNL     1      19.142  -6.368  -8.845  1.00  0.00     0.015 C 
ENDBRANCH  23  25
ENDBRANCH   1  23
BRANCH  10  28
HETATM   28  O4  UNL     1      19.872  -3.337 -15.650  1.00  0.00    -0.341 OA
ATOM     29  H4  UNL     1      19.982  -4.004 -16.317  1.00  0.00     0.220 HD
ENDBRANCH  10  28
TORSDOF 9
ENDMDL
