MODEL 1
REMARK VINA RESULT: -7.743341946      0.000      0.000
REMARK  9 active torsions:
REMARK  status: ('A' for Active; 'I' for Inactive)
REMARK    1  A    between atoms: C3_3  and  O1_4 
REMARK    2  A    between atoms: O1_4  and  C4_5 
REMARK    3  A    between atoms: C6_7  and  C7_8 
REMARK    4  A    between atoms: C11_12  and  O2_14 
REMARK    5  A    between atoms: C13_16  and  C14_17 
REMARK    6  A    between atoms: C14_17  and  C15_18 
REMARK    7  A    between atoms: C17_20  and  O3_21 
REMARK    8  A    between atoms: C18_23  and  O4_24 
REMARK    9  A    between atoms: C19_26  and  O5_27 
ROOT
HETATM    1  C7  UNL     1      21.652  -2.119 -13.050  1.00  0.00     0.018 C 
HETATM    2  C8  UNL     1      21.170  -3.122 -14.103  1.00  0.00     0.009 C 
HETATM    3  C9  UNL     1      20.117  -4.009 -13.554  1.00  0.00     0.004 C 
HETATM    4  C10 UNL     1      19.187  -3.331 -12.602  1.00  0.00     0.038 C 
HETATM    5  C11 UNL     1      19.884  -2.748 -11.410  1.00  0.00     0.059 C 
HETATM    6  C12 UNL     1      19.759  -3.765 -10.266  1.00  0.00     0.046 C 
HETATM    7  C13 UNL     1      21.393  -2.679 -11.709  1.00  0.00     0.031 C 
ENDROOT
BRANCH   7   8
HETATM    8  C14 UNL     1      22.188  -2.234 -10.547  1.00  0.00     0.047 C 
BRANCH   8   9
HETATM    9  C15 UNL     1      23.280  -3.132 -10.129  1.00  0.00    -0.052 A 
HETATM   10  C16 UNL     1      23.449  -4.344 -10.729  1.00  0.00     0.046 A 
HETATM   11  C17 UNL     1      24.497  -5.183 -10.296  1.00  0.00     0.102 A 
HETATM   12  C18 UNL     1      25.354  -4.827  -9.294  1.00  0.00     0.132 A 
HETATM   13  C19 UNL     1      25.173  -3.576  -8.682  1.00  0.00     0.104 A 
HETATM   14  C21 UNL     1      24.158  -2.759  -9.100  1.00  0.00     0.047 A 
BRANCH  11  15
HETATM   15  O3  UNL     1      24.645  -6.409 -10.922  1.00  0.00    -0.358 OA
ATOM     16  H3  UNL     1      25.446  -6.893 -10.766  1.00  0.00     0.217 HD
ENDBRANCH  11  15
BRANCH  12  17
HETATM   17  O4  UNL     1      26.396  -5.614  -8.833  1.00  0.00    -0.356 OA
ATOM     18  H4  UNL     1      26.334  -6.218  -8.103  1.00  0.00     0.218 HD
ENDBRANCH  12  17
BRANCH  13  19
HETATM   19  O5  UNL     1      26.055  -3.216  -7.657  1.00  0.00    -0.353 OA
HETATM   20  C20 UNL     1      26.589  -1.910  -7.565  1.00  0.00     0.210 C 
ENDBRANCH  13  19
ENDBRANCH   8   9
ENDBRANCH   7   8
BRANCH   1  21
HETATM   21  C6  UNL     1      20.966  -0.851 -13.362  1.00  0.00     0.010 C 
HETATM   22  C4  UNL     1      21.307  -0.150 -14.413  1.00  0.00     0.045 C 
HETATM   23  C5  UNL     1      20.618   1.152 -14.746  1.00  0.00     0.076 C 
BRANCH  22  24
HETATM   24  O1  UNL     1      22.310  -0.567 -15.266  1.00  0.00    -0.328 OA
BRANCH  24  25
HETATM   25  C3  UNL     1      22.166  -0.444 -16.646  1.00  0.00     0.137 C 
HETATM   26  C2  UNL     1      23.015   0.260 -17.344  1.00  0.00    -0.006 C 
HETATM   27  C1  UNL     1      22.887   0.407 -18.807  1.00  0.00     0.038 C 
ENDBRANCH  24  25
ENDBRANCH  22  24
ENDBRANCH   1  21
BRANCH   5  28
HETATM   28  O2  UNL     1      19.362  -1.529 -11.054  1.00  0.00    -0.390 OA
ATOM     29  H2  UNL     1      20.040  -0.884 -10.895  1.00  0.00     0.210 HD
ENDBRANCH   5  28
TORSDOF 9
ENDMDL
MODEL 2
REMARK VINA RESULT: -7.568353429      1.669      2.254
REMARK  9 active torsions:
REMARK  status: ('A' for Active; 'I' for Inactive)
REMARK    1  A    between atoms: C3_3  and  O1_4 
REMARK    2  A    between atoms: O1_4  and  C4_5 
REMARK    3  A    between atoms: C6_7  and  C7_8 
REMARK    4  A    between atoms: C11_12  and  O2_14 
REMARK    5  A    between atoms: C13_16  and  C14_17 
REMARK    6  A    between atoms: C14_17  and  C15_18 
REMARK    7  A    between atoms: C17_20  and  O3_21 
REMARK    8  A    between atoms: C18_23  and  O4_24 
REMARK    9  A    between atoms: C19_26  and  O5_27 
ROOT
HETATM    1  C7  UNL     1      20.832  -3.902 -12.090  1.00  0.00     0.018 C 
HETATM    2  C8  UNL     1      20.502  -4.869 -13.232  1.00  0.00     0.009 C 
HETATM    3  C9  UNL     1      19.960  -6.147 -12.710  1.00  0.00     0.004 C 
HETATM    4  C10 UNL     1      19.086  -5.991 -11.510  1.00  0.00     0.038 C 
HETATM    5  C11 UNL     1      19.784  -5.347 -10.350  1.00  0.00     0.059 C 
HETATM    6  C12 UNL     1      20.264  -6.473  -9.425  1.00  0.00     0.046 C 
HETATM    7  C13 UNL     1      21.076  -4.684 -10.862  1.00  0.00     0.031 C 
ENDROOT
BRANCH   7   8
HETATM    8  C14 UNL     1      21.905  -4.127  -9.775  1.00  0.00     0.047 C 
BRANCH   8   9
HETATM    9  C15 UNL     1      23.359  -4.335  -9.899  1.00  0.00    -0.052 A 
HETATM   10  C16 UNL     1      23.850  -5.445 -10.517  1.00  0.00     0.046 A 
HETATM   11  C17 UNL     1      25.247  -5.619 -10.607  1.00  0.00     0.102 A 
HETATM   12  C18 UNL     1      26.131  -4.712 -10.096  1.00  0.00     0.132 A 
HETATM   13  C19 UNL     1      25.617  -3.571  -9.461  1.00  0.00     0.104 A 
HETATM   14  C21 UNL     1      24.263  -3.399  -9.372  1.00  0.00     0.047 A 
BRANCH  11  15
HETATM   15  O3  UNL     1      25.719  -6.756 -11.240  1.00  0.00    -0.358 OA
ATOM     16  H3  UNL     1      25.440  -7.599 -10.902  1.00  0.00     0.217 HD
ENDBRANCH  11  15
BRANCH  12  17
HETATM   17  O4  UNL     1      27.510  -4.837 -10.159  1.00  0.00    -0.356 OA
ATOM     18  H4  UNL     1      28.123  -4.132  -9.990  1.00  0.00     0.218 HD
ENDBRANCH  12  17
BRANCH  13  19
HETATM   19  O5  UNL     1      26.528  -2.645  -8.940  1.00  0.00    -0.353 OA
HETATM   20  C20 UNL     1      26.210  -1.845  -7.819  1.00  0.00     0.210 C 
ENDBRANCH  13  19
ENDBRANCH   8   9
ENDBRANCH   7   8
BRANCH   1  21
HETATM   21  C6  UNL     1      19.704  -2.951 -12.035  1.00  0.00     0.010 C 
HETATM   22  C4  UNL     1      19.843  -1.728 -12.476  1.00  0.00     0.045 C 
HETATM   23  C5  UNL     1      18.701  -0.740 -12.424  1.00  0.00     0.076 C 
BRANCH  22  24
HETATM   24  O1  UNL     1      21.036  -1.282 -13.010  1.00  0.00    -0.328 OA
BRANCH  24  25
HETATM   25  C3  UNL     1      21.049  -0.304 -14.002  1.00  0.00     0.137 C 
HETATM   26  C2  UNL     1      21.796  -0.444 -15.063  1.00  0.00    -0.006 C 
HETATM   27  C1  UNL     1      21.830   0.576 -16.130  1.00  0.00     0.038 C 
ENDBRANCH  24  25
ENDBRANCH  22  24
ENDBRANCH   1  21
BRANCH   5  28
HETATM   28  O2  UNL     1      18.969  -4.466  -9.684  1.00  0.00    -0.390 OA
ATOM     29  H2  UNL     1      19.431  -4.007  -8.992  1.00  0.00     0.210 HD
ENDBRANCH   5  28
TORSDOF 9
ENDMDL
MODEL 3
REMARK VINA RESULT: -7.380653876      0.980      1.059
REMARK  9 active torsions:
REMARK  status: ('A' for Active; 'I' for Inactive)
REMARK    1  A    between atoms: C3_3  and  O1_4 
REMARK    2  A    between atoms: O1_4  and  C4_5 
REMARK    3  A    between atoms: C6_7  and  C7_8 
REMARK    4  A    between atoms: C11_12  and  O2_14 
REMARK    5  A    between atoms: C13_16  and  C14_17 
REMARK    6  A    between atoms: C14_17  and  C15_18 
REMARK    7  A    between atoms: C17_20  and  O3_21 
REMARK    8  A    between atoms: C18_23  and  O4_24 
REMARK    9  A    between atoms: C19_26  and  O5_27 
ROOT
HETATM    1  C7  UNL     1      20.859  -1.551 -12.490  1.00  0.00     0.018 C 
HETATM    2  C8  UNL     1      19.991  -2.473 -13.353  1.00  0.00     0.009 C 
HETATM    3  C9  UNL     1      18.967  -3.165 -12.535  1.00  0.00     0.004 C 
HETATM    4  C10 UNL     1      18.404  -2.328 -11.434  1.00  0.00     0.038 C 
HETATM    5  C11 UNL     1      19.442  -1.853 -10.462  1.00  0.00     0.059 C 
HETATM    6  C12 UNL     1      19.425  -2.819  -9.269  1.00  0.00     0.046 C 
HETATM    7  C13 UNL     1      20.831  -2.041 -11.098  1.00  0.00     0.031 C 
ENDROOT
BRANCH   7   8
HETATM    8  C14 UNL     1      21.934  -1.720 -10.171  1.00  0.00     0.047 C 
BRANCH   8   9
HETATM    9  C15 UNL     1      22.939  -2.780  -9.969  1.00  0.00    -0.052 A 
HETATM   10  C16 UNL     1      22.788  -3.999 -10.558  1.00  0.00     0.046 A 
HETATM   11  C17 UNL     1      23.762  -4.994 -10.334  1.00  0.00     0.102 A 
HETATM   12  C18 UNL     1      24.856  -4.783  -9.546  1.00  0.00     0.132 A 
HETATM   13  C19 UNL     1      25.005  -3.523  -8.943  1.00  0.00     0.104 A 
HETATM   14  C21 UNL     1      24.062  -2.556  -9.158  1.00  0.00     0.047 A 
BRANCH  11  15
HETATM   15  O3  UNL     1      23.583  -6.224 -10.944  1.00  0.00    -0.358 OA
ATOM     16  H3  UNL     1      22.902  -6.298 -11.603  1.00  0.00     0.217 HD
ENDBRANCH  11  15
BRANCH  12  17
HETATM   17  O4  UNL     1      25.839  -5.726  -9.295  1.00  0.00    -0.356 OA
ATOM     18  H4  UNL     1      26.630  -5.562  -8.795  1.00  0.00     0.218 HD
ENDBRANCH  12  17
BRANCH  13  19
HETATM   19  O5  UNL     1      26.129  -3.313  -8.137  1.00  0.00    -0.353 OA
HETATM   20  C20 UNL     1      26.529  -2.012  -7.752  1.00  0.00     0.210 C 
ENDBRANCH  13  19
ENDBRANCH   8   9
ENDBRANCH   7   8
BRANCH   1  21
HETATM   21  C6  UNL     1      20.330  -0.190 -12.704  1.00  0.00     0.010 C 
HETATM   22  C4  UNL     1      20.687   0.506 -13.752  1.00  0.00     0.045 C 
HETATM   23  C5  UNL     1      20.159   1.902 -13.986  1.00  0.00     0.076 C 
BRANCH  22  24
HETATM   24  O1  UNL     1      21.562  -0.000 -14.693  1.00  0.00    -0.328 OA
BRANCH  24  25
HETATM   25  C3  UNL     1      21.754   0.652 -15.909  1.00  0.00     0.137 C 
HETATM   26  C2  UNL     1      22.462   0.100 -16.856  1.00  0.00    -0.006 C 
HETATM   27  C1  UNL     1      22.681   0.768 -18.154  1.00  0.00     0.038 C 
ENDBRANCH  24  25
ENDBRANCH  22  24
ENDBRANCH   1  21
BRANCH   5  28
HETATM   28  O2  UNL     1      19.217  -0.559 -10.061  1.00  0.00    -0.390 OA
ATOM     29  H2  UNL     1      19.992  -0.166  -9.678  1.00  0.00     0.210 HD
ENDBRANCH   5  28
TORSDOF 9
ENDMDL
MODEL 4
REMARK VINA RESULT: -7.320666713      1.646      2.798
REMARK  9 active torsions:
REMARK  status: ('A' for Active; 'I' for Inactive)
REMARK    1  A    between atoms: C3_3  and  O1_4 
REMARK    2  A    between atoms: O1_4  and  C4_5 
REMARK    3  A    between atoms: C6_7  and  C7_8 
REMARK    4  A    between atoms: C11_12  and  O2_14 
REMARK    5  A    between atoms: C13_16  and  C14_17 
REMARK    6  A    between atoms: C14_17  and  C15_18 
REMARK    7  A    between atoms: C17_20  and  O3_21 
REMARK    8  A    between atoms: C18_23  and  O4_24 
REMARK    9  A    between atoms: C19_26  and  O5_27 
ROOT
HETATM    1  C7  UNL     1      20.845  -2.657 -12.203  1.00  0.00     0.018 C 
HETATM    2  C8  UNL     1      21.046  -3.645 -13.356  1.00  0.00     0.009 C 
HETATM    3  C9  UNL     1      20.733  -5.031 -12.934  1.00  0.00     0.004 C 
HETATM    4  C10 UNL     1      19.589  -5.130 -11.979  1.00  0.00     0.038 C 
HETATM    5  C11 UNL     1      19.811  -4.364 -10.710  1.00  0.00     0.059 C 
HETATM    6  C12 UNL     1      20.324  -5.359  -9.660  1.00  0.00     0.046 C 
HETATM    7  C13 UNL     1      20.979  -3.385 -10.926  1.00  0.00     0.031 C 
ENDROOT
BRANCH   7   8
HETATM    8  C14 UNL     1      21.362  -2.668  -9.694  1.00  0.00     0.047 C 
BRANCH   8   9
HETATM    9  C15 UNL     1      22.809  -2.543  -9.441  1.00  0.00    -0.052 A 
HETATM   10  C16 UNL     1      23.276  -1.670  -8.505  1.00  0.00     0.046 A 
HETATM   11  C17 UNL     1      24.667  -1.566  -8.298  1.00  0.00     0.102 A 
HETATM   12  C18 UNL     1      25.570  -2.311  -9.001  1.00  0.00     0.132 A 
HETATM   13  C19 UNL     1      25.080  -3.208  -9.964  1.00  0.00     0.104 A 
HETATM   14  C21 UNL     1      23.731  -3.312 -10.168  1.00  0.00     0.047 A 
BRANCH  11  15
HETATM   15  O3  UNL     1      25.114  -0.670  -7.341  1.00  0.00    -0.358 OA
ATOM     16  H3  UNL     1      25.463  -1.023  -6.531  1.00  0.00     0.217 HD
ENDBRANCH  11  15
BRANCH  12  17
HETATM   17  O4  UNL     1      26.944  -2.245  -8.836  1.00  0.00    -0.356 OA
ATOM     18  H4  UNL     1      27.579  -2.520  -9.486  1.00  0.00     0.218 HD
ENDBRANCH  12  17
BRANCH  13  19
HETATM   19  O5  UNL     1      26.010  -3.969 -10.682  1.00  0.00    -0.353 OA
HETATM   20  C20 UNL     1      25.947  -5.382 -10.708  1.00  0.00     0.210 C 
ENDBRANCH  13  19
ENDBRANCH   8   9
ENDBRANCH   7   8
BRANCH   1  21
HETATM   21  C6  UNL     1      19.536  -2.020 -12.447  1.00  0.00     0.010 C 
HETATM   22  C4  UNL     1      19.464  -0.773 -12.834  1.00  0.00     0.045 C 
HETATM   23  C5  UNL     1      18.133  -0.104 -13.085  1.00  0.00     0.076 C 
BRANCH  22  24
HETATM   24  O1  UNL     1      20.598  -0.010 -13.032  1.00  0.00    -0.328 OA
BRANCH  24  25
HETATM   25  C3  UNL     1      20.950   0.421 -14.310  1.00  0.00     0.137 C 
HETATM   26  C2  UNL     1      21.694  -0.322 -15.081  1.00  0.00    -0.006 C 
HETATM   27  C1  UNL     1      22.083   0.109 -16.438  1.00  0.00     0.038 C 
ENDBRANCH  24  25
ENDBRANCH  22  24
ENDBRANCH   1  21
BRANCH   5  28
HETATM   28  O2  UNL     1      18.668  -3.733 -10.284  1.00  0.00    -0.390 OA
ATOM     29  H2  UNL     1      18.062  -3.575 -10.999  1.00  0.00     0.210 HD
ENDBRANCH   5  28
TORSDOF 9
ENDMDL
MODEL 5
REMARK VINA RESULT: -7.277366839      2.165      5.329
REMARK  9 active torsions:
REMARK  status: ('A' for Active; 'I' for Inactive)
REMARK    1  A    between atoms: C3_3  and  O1_4 
REMARK    2  A    between atoms: O1_4  and  C4_5 
REMARK    3  A    between atoms: C6_7  and  C7_8 
REMARK    4  A    between atoms: C11_12  and  O2_14 
REMARK    5  A    between atoms: C13_16  and  C14_17 
REMARK    6  A    between atoms: C14_17  and  C15_18 
REMARK    7  A    between atoms: C17_20  and  O3_21 
REMARK    8  A    between atoms: C18_23  and  O4_24 
REMARK    9  A    between atoms: C19_26  and  O5_27 
ROOT
HETATM    1  C7  UNL     1      20.951  -3.833 -11.414  1.00  0.00     0.018 C 
HETATM    2  C8  UNL     1      19.759  -2.959 -11.010  1.00  0.00     0.009 C 
HETATM    3  C9  UNL     1      19.596  -1.815 -11.938  1.00  0.00     0.004 C 
HETATM    4  C10 UNL     1      19.909  -2.139 -13.362  1.00  0.00     0.038 C 
HETATM    5  C11 UNL     1      21.315  -2.621 -13.562  1.00  0.00     0.059 C 
HETATM    6  C12 UNL     1      22.150  -1.415 -14.014  1.00  0.00     0.046 C 
HETATM    7  C13 UNL     1      21.899  -3.011 -12.192  1.00  0.00     0.031 C 
ENDROOT
BRANCH   7   8
HETATM    8  C14 UNL     1      23.326  -3.381 -12.262  1.00  0.00     0.047 C 
BRANCH   8   9
HETATM    9  C15 UNL     1      24.022  -3.521 -10.970  1.00  0.00    -0.052 A 
HETATM   10  C16 UNL     1      24.694  -4.666 -10.665  1.00  0.00     0.046 A 
HETATM   11  C17 UNL     1      25.338  -4.771  -9.414  1.00  0.00     0.102 A 
HETATM   12  C18 UNL     1      25.315  -3.765  -8.493  1.00  0.00     0.132 A 
HETATM   13  C19 UNL     1      24.621  -2.588  -8.815  1.00  0.00     0.104 A 
HETATM   14  C21 UNL     1      23.995  -2.482 -10.026  1.00  0.00     0.047 A 
BRANCH  11  15
HETATM   15  O3  UNL     1      26.013  -5.947  -9.131  1.00  0.00    -0.358 OA
ATOM     16  H3  UNL     1      26.763  -6.169  -9.669  1.00  0.00     0.217 HD
ENDBRANCH  11  15
BRANCH  12  17
HETATM   17  O4  UNL     1      25.931  -3.819  -7.252  1.00  0.00    -0.356 OA
ATOM     18  H4  UNL     1      25.560  -4.235  -6.483  1.00  0.00     0.218 HD
ENDBRANCH  12  17
BRANCH  13  19
HETATM   19  O5  UNL     1      24.602  -1.559  -7.866  1.00  0.00    -0.353 OA
HETATM   20  C20 UNL     1      23.588  -0.573  -7.865  1.00  0.00     0.210 C 
ENDBRANCH  13  19
ENDBRANCH   8   9
ENDBRANCH   7   8
BRANCH   1  21
HETATM   21  C6  UNL     1      20.374  -4.992 -12.121  1.00  0.00     0.010 C 
HETATM   22  C4  UNL     1      20.411  -6.185 -11.586  1.00  0.00     0.045 C 
HETATM   23  C5  UNL     1      19.829  -7.384 -12.297  1.00  0.00     0.076 C 
BRANCH  22  24
HETATM   24  O1  UNL     1      20.984  -6.405 -10.349  1.00  0.00    -0.328 OA
BRANCH  24  25
HETATM   25  C3  UNL     1      20.197  -6.753  -9.253  1.00  0.00     0.137 C 
HETATM   26  C2  UNL     1      19.251  -5.957  -8.834  1.00  0.00    -0.006 C 
HETATM   27  C1  UNL     1      18.402  -6.300  -7.676  1.00  0.00     0.038 C 
ENDBRANCH  24  25
ENDBRANCH  22  24
ENDBRANCH   1  21
BRANCH   5  28
HETATM   28  O2  UNL     1      21.382  -3.646 -14.474  1.00  0.00    -0.390 OA
ATOM     29  H2  UNL     1      22.279  -3.868 -14.693  1.00  0.00     0.210 HD
ENDBRANCH   5  28
TORSDOF 9
ENDMDL
