MODEL 1
REMARK VINA RESULT: -8.110469804      0.000      0.000
REMARK  7 active torsions:
REMARK  status: ('A' for Active; 'I' for Inactive)
REMARK    1  A    between atoms: O1_2  and  C2_3 
REMARK    2  A    between atoms: C3_4  and  C4_5 
REMARK    3  A    between atoms: C5_6  and  C6_7 
REMARK    4  A    between atoms: C10_11  and  C11_12 
REMARK    5  A    between atoms: C14_15  and  O2_16 
REMARK    6  A    between atoms: C20_25  and  C21_26 
REMARK    7  A    between atoms: C21_26  and  O4_27 
ROOT
HETATM    1  C4  UNL     1      22.187   2.331 -21.166  1.00  0.00     0.078 A 
HETATM    2  C5  UNL     1      22.304   2.346 -19.819  1.00  0.00    -0.023 A 
HETATM    3  C9  UNL     1      22.988   1.173 -19.482  1.00  0.00     0.035 A 
HETATM    4  C10 UNL     1      23.271   0.480 -20.663  1.00  0.00     0.016 A 
HETATM    5  N1  UNL     1      22.781   1.223 -21.626  1.00  0.00    -0.352 N 
HETATM    6  C17 UNL     1      22.914   0.943 -23.058  1.00  0.00     0.156 C 
ENDROOT
BRANCH   1   7
HETATM    7  C3  UNL     1      21.420   3.191 -22.118  1.00  0.00     0.137 A 
HETATM    8  C2  UNL     1      21.560   4.361 -22.710  1.00  0.00     0.115 A 
HETATM    9  C20 UNL     1      20.464   4.640 -23.508  1.00  0.00     0.031 A 
HETATM   10  C18 UNL     1      19.656   3.529 -23.362  1.00  0.00     0.061 A 
HETATM   11  O3  UNL     1      20.232   2.708 -22.553  1.00  0.00    -0.309 OA
HETATM   12  C19 UNL     1      18.328   3.287 -24.035  1.00  0.00     0.077 C 
BRANCH   8  13
HETATM   13  O1  UNL     1      22.687   5.200 -22.542  1.00  0.00    -0.352 OA
HETATM   14  C1  UNL     1      22.408   6.262 -21.594  1.00  0.00     0.210 C 
ENDBRANCH   8  13
BRANCH   9  15
HETATM   15  C21 UNL     1      20.266   5.798 -24.401  1.00  0.00     0.208 C 
BRANCH  15  16
HETATM   16  O4  UNL     1      21.519   5.971 -25.120  1.00  0.00    -0.396 OA
ATOM     17  H4  UNL     1      21.552   6.886 -25.374  1.00  0.00     0.209 HD
ENDBRANCH  15  16
ENDBRANCH   9  15
ENDBRANCH   1   7
BRANCH   2  18
HETATM   18  C6  UNL     1      21.926   3.470 -18.936  1.00  0.00     0.013 C 
HETATM   19  C7  UNL     1      21.738   2.903 -17.525  1.00  0.00     0.015 C 
HETATM   20  C8  UNL     1      23.271   4.277 -18.725  1.00  0.00     0.015 C 
ENDBRANCH   2  18
BRANCH   4  21
HETATM   21  C11 UNL     1      23.863  -0.876 -20.837  1.00  0.00     0.036 C 
HETATM   22  C12 UNL     1      23.407  -1.796 -19.718  1.00  0.00     0.013 C 
HETATM   23  C13 UNL     1      23.574  -3.210 -20.235  1.00  0.00     0.032 C 
HETATM   24  C14 UNL     1      24.985  -3.461 -20.679  1.00  0.00     0.118 C 
HETATM   25  C15 UNL     1      25.537  -2.430 -21.624  1.00  0.00     0.032 C 
HETATM   26  C16 UNL     1      25.294  -0.999 -21.132  1.00  0.00     0.013 C 
BRANCH  24  27
HETATM   27  O2  UNL     1      24.979  -4.688 -21.346  1.00  0.00    -0.396 OA
ATOM     28  H2  UNL     1      25.727  -5.175 -21.021  1.00  0.00     0.210 HD
ENDBRANCH  24  27
ENDBRANCH   4  21
TORSDOF 7
ENDMDL
MODEL 2
REMARK VINA RESULT: -8.017365061      1.407      2.004
REMARK  7 active torsions:
REMARK  status: ('A' for Active; 'I' for Inactive)
REMARK    1  A    between atoms: O1_2  and  C2_3 
REMARK    2  A    between atoms: C3_4  and  C4_5 
REMARK    3  A    between atoms: C5_6  and  C6_7 
REMARK    4  A    between atoms: C10_11  and  C11_12 
REMARK    5  A    between atoms: C14_15  and  O2_16 
REMARK    6  A    between atoms: C20_25  and  C21_26 
REMARK    7  A    between atoms: C21_26  and  O4_27 
ROOT
HETATM    1  C4  UNL     1      22.830   1.395 -20.117  1.00  0.00     0.078 A 
HETATM    2  C5  UNL     1      22.722   1.106 -18.800  1.00  0.00    -0.023 A 
HETATM    3  C9  UNL     1      23.101  -0.235 -18.670  1.00  0.00     0.035 A 
HETATM    4  C10 UNL     1      23.436  -0.716 -19.940  1.00  0.00     0.016 A 
HETATM    5  N1  UNL     1      23.266   0.299 -20.752  1.00  0.00    -0.352 N 
HETATM    6  C17 UNL     1      23.578   0.297 -22.183  1.00  0.00     0.156 C 
ENDROOT
BRANCH   1   7
HETATM    7  C3  UNL     1      22.413   2.582 -20.923  1.00  0.00     0.137 A 
HETATM    8  C2  UNL     1      22.860   3.796 -21.181  1.00  0.00     0.115 A 
HETATM    9  C20 UNL     1      21.996   4.466 -22.030  1.00  0.00     0.031 A 
HETATM   10  C18 UNL     1      20.996   3.546 -22.278  1.00  0.00     0.061 A 
HETATM   11  O3  UNL     1      21.261   2.467 -21.625  1.00  0.00    -0.309 OA
HETATM   12  C19 UNL     1      19.794   3.742 -23.168  1.00  0.00     0.077 C 
BRANCH   8  13
HETATM   13  O1  UNL     1      24.065   4.321 -20.654  1.00  0.00    -0.352 OA
HETATM   14  C1  UNL     1      23.859   4.860 -19.324  1.00  0.00     0.210 C 
ENDBRANCH   8  13
BRANCH   9  15
HETATM   15  C21 UNL     1      22.170   5.804 -22.625  1.00  0.00     0.208 C 
BRANCH  15  16
HETATM   16  O4  UNL     1      22.593   6.676 -21.540  1.00  0.00    -0.396 OA
ATOM     17  H4  UNL     1      23.525   6.815 -21.662  1.00  0.00     0.209 HD
ENDBRANCH  15  16
ENDBRANCH   9  15
ENDBRANCH   1   7
BRANCH   2  18
HETATM   18  C6  UNL     1      22.428   2.080 -17.728  1.00  0.00     0.013 C 
HETATM   19  C7  UNL     1      21.136   2.810 -18.110  1.00  0.00     0.015 C 
HETATM   20  C8  UNL     1      21.895   1.199 -16.526  1.00  0.00     0.015 C 
ENDBRANCH   2  18
BRANCH   4  21
HETATM   21  C11 UNL     1      23.774  -2.106 -20.357  1.00  0.00     0.036 C 
HETATM   22  C12 UNL     1      23.094  -3.110 -19.443  1.00  0.00     0.013 C 
HETATM   23  C13 UNL     1      23.024  -4.410 -20.216  1.00  0.00     0.032 C 
HETATM   24  C14 UNL     1      24.386  -4.843 -20.673  1.00  0.00     0.118 C 
HETATM   25  C15 UNL     1      25.170  -3.783 -21.394  1.00  0.00     0.032 C 
HETATM   26  C16 UNL     1      25.172  -2.447 -20.643  1.00  0.00     0.013 C 
BRANCH  24  27
HETATM   27  O2  UNL     1      24.188  -5.903 -21.561  1.00  0.00    -0.396 OA
ATOM     28  H2  UNL     1      24.601  -5.650 -22.378  1.00  0.00     0.210 HD
ENDBRANCH  24  27
ENDBRANCH   4  21
TORSDOF 7
ENDMDL
MODEL 3
REMARK VINA RESULT: -7.457173986      1.009      2.011
REMARK  7 active torsions:
REMARK  status: ('A' for Active; 'I' for Inactive)
REMARK    1  A    between atoms: O1_2  and  C2_3 
REMARK    2  A    between atoms: C3_4  and  C4_5 
REMARK    3  A    between atoms: C5_6  and  C6_7 
REMARK    4  A    between atoms: C10_11  and  C11_12 
REMARK    5  A    between atoms: C14_15  and  O2_16 
REMARK    6  A    between atoms: C20_25  and  C21_26 
REMARK    7  A    between atoms: C21_26  and  O4_27 
ROOT
HETATM    1  C4  UNL     1      22.283   2.509 -21.216  1.00  0.00     0.078 A 
HETATM    2  C5  UNL     1      22.271   2.486 -19.864  1.00  0.00    -0.023 A 
HETATM    3  C9  UNL     1      22.873   1.276 -19.498  1.00  0.00     0.035 A 
HETATM    4  C10 UNL     1      23.238   0.602 -20.667  1.00  0.00     0.016 A 
HETATM    5  N1  UNL     1      22.873   1.388 -21.650  1.00  0.00    -0.352 N 
HETATM    6  C17 UNL     1      23.130   1.139 -23.071  1.00  0.00     0.156 C 
ENDROOT
BRANCH   1   7
HETATM    7  C3  UNL     1      21.646   3.425 -22.211  1.00  0.00     0.137 A 
HETATM    8  C2  UNL     1      20.435   3.697 -22.656  1.00  0.00     0.115 A 
HETATM    9  C20 UNL     1      20.481   4.678 -23.632  1.00  0.00     0.031 A 
HETATM   10  C18 UNL     1      21.823   4.989 -23.727  1.00  0.00     0.061 A 
HETATM   11  O3  UNL     1      22.474   4.250 -22.896  1.00  0.00    -0.309 OA
HETATM   12  C19 UNL     1      22.446   6.023 -24.631  1.00  0.00     0.077 C 
BRANCH   8  13
HETATM   13  O1  UNL     1      19.261   3.063 -22.184  1.00  0.00    -0.352 OA
HETATM   14  C1  UNL     1      18.689   2.203 -23.202  1.00  0.00     0.210 C 
ENDBRANCH   8  13
BRANCH   9  15
HETATM   15  C21 UNL     1      19.346   5.325 -24.318  1.00  0.00     0.208 C 
BRANCH  15  16
HETATM   16  O4  UNL     1      18.425   5.739 -23.271  1.00  0.00    -0.396 OA
ATOM     17  H4  UNL     1      18.090   6.587 -23.536  1.00  0.00     0.209 HD
ENDBRANCH  15  16
ENDBRANCH   9  15
ENDBRANCH   1   7
BRANCH   2  18
HETATM   18  C6  UNL     1      21.857   3.602 -18.989  1.00  0.00     0.013 C 
HETATM   19  C7  UNL     1      21.757   3.055 -17.561  1.00  0.00     0.015 C 
HETATM   20  C8  UNL     1      23.156   4.496 -18.844  1.00  0.00     0.015 C 
ENDBRANCH   2  18
BRANCH   4  21
HETATM   21  C11 UNL     1      23.789  -0.775 -20.823  1.00  0.00     0.036 C 
HETATM   22  C12 UNL     1      23.318  -1.661 -19.684  1.00  0.00     0.013 C 
HETATM   23  C13 UNL     1      23.439  -3.088 -20.178  1.00  0.00     0.032 C 
HETATM   24  C14 UNL     1      24.837  -3.387 -20.632  1.00  0.00     0.118 C 
HETATM   25  C15 UNL     1      25.408  -2.390 -21.600  1.00  0.00     0.032 C 
HETATM   26  C16 UNL     1      25.213  -0.944 -21.130  1.00  0.00     0.013 C 
BRANCH  24  27
HETATM   27  O2  UNL     1      24.787  -4.625 -21.277  1.00  0.00    -0.396 OA
ATOM     28  H2  UNL     1      25.211  -5.248 -20.698  1.00  0.00     0.210 HD
ENDBRANCH  24  27
ENDBRANCH   4  21
TORSDOF 7
ENDMDL
MODEL 4
REMARK VINA RESULT: -7.066758082      1.623      2.686
REMARK  7 active torsions:
REMARK  status: ('A' for Active; 'I' for Inactive)
REMARK    1  A    between atoms: O1_2  and  C2_3 
REMARK    2  A    between atoms: C3_4  and  C4_5 
REMARK    3  A    between atoms: C5_6  and  C6_7 
REMARK    4  A    between atoms: C10_11  and  C11_12 
REMARK    5  A    between atoms: C14_15  and  O2_16 
REMARK    6  A    between atoms: C20_25  and  C21_26 
REMARK    7  A    between atoms: C21_26  and  O4_27 
ROOT
HETATM    1  C4  UNL     1      22.566   1.967 -19.525  1.00  0.00     0.078 A 
HETATM    2  C5  UNL     1      22.418   1.466 -18.278  1.00  0.00    -0.023 A 
HETATM    3  C9  UNL     1      22.920   0.160 -18.329  1.00  0.00     0.035 A 
HETATM    4  C10 UNL     1      23.368  -0.082 -19.631  1.00  0.00     0.016 A 
HETATM    5  N1  UNL     1      23.142   1.030 -20.288  1.00  0.00    -0.352 N 
HETATM    6  C17 UNL     1      23.528   1.282 -21.679  1.00  0.00     0.156 C 
ENDROOT
BRANCH   1   7
HETATM    7  C3  UNL     1      22.077   3.225 -20.167  1.00  0.00     0.137 A 
HETATM    8  C2  UNL     1      21.281   3.572 -21.159  1.00  0.00     0.115 A 
HETATM    9  C20 UNL     1      21.228   4.950 -21.285  1.00  0.00     0.031 A 
HETATM   10  C18 UNL     1      22.049   5.408 -20.273  1.00  0.00     0.061 A 
HETATM   11  O3  UNL     1      22.528   4.390 -19.644  1.00  0.00    -0.309 OA
HETATM   12  C19 UNL     1      22.342   6.848 -19.933  1.00  0.00     0.077 C 
BRANCH   8  13
HETATM   13  O1  UNL     1      20.580   2.647 -21.968  1.00  0.00    -0.352 OA
HETATM   14  C1  UNL     1      20.969   2.775 -23.360  1.00  0.00     0.210 C 
ENDBRANCH   8  13
BRANCH   9  15
HETATM   15  C21 UNL     1      20.393   5.743 -22.208  1.00  0.00     0.208 C 
BRANCH  15  16
HETATM   16  O4  UNL     1      19.022   5.311 -21.981  1.00  0.00    -0.396 OA
ATOM     17  H4  UNL     1      18.490   6.098 -22.015  1.00  0.00     0.209 HD
ENDBRANCH  15  16
ENDBRANCH   9  15
ENDBRANCH   1   7
BRANCH   2  18
HETATM   18  C6  UNL     1      21.973   2.228 -17.092  1.00  0.00     0.013 C 
HETATM   19  C7  UNL     1      20.566   2.759 -17.387  1.00  0.00     0.015 C 
HETATM   20  C8  UNL     1      21.622   1.120 -16.017  1.00  0.00     0.015 C 
ENDBRANCH   2  18
BRANCH   4  21
HETATM   21  C11 UNL     1      23.864  -1.352 -20.232  1.00  0.00     0.036 C 
HETATM   22  C12 UNL     1      23.318  -2.544 -19.467  1.00  0.00     0.013 C 
HETATM   23  C13 UNL     1      23.395  -3.727 -20.409  1.00  0.00     0.032 C 
HETATM   24  C14 UNL     1      24.793  -3.928 -20.913  1.00  0.00     0.118 C 
HETATM   25  C15 UNL     1      25.438  -2.695 -21.480  1.00  0.00     0.032 C 
HETATM   26  C16 UNL     1      25.289  -1.482 -20.554  1.00  0.00     0.013 C 
BRANCH  24  27
HETATM   27  O2  UNL     1      24.712  -4.874 -21.938  1.00  0.00    -0.396 OA
ATOM     28  H2  UNL     1      25.606  -5.105 -22.162  1.00  0.00     0.210 HD
ENDBRANCH  24  27
ENDBRANCH   4  21
TORSDOF 7
ENDMDL
MODEL 5
REMARK VINA RESULT: -6.870791911     10.394     13.709
REMARK  7 active torsions:
REMARK  status: ('A' for Active; 'I' for Inactive)
REMARK    1  A    between atoms: O1_2  and  C2_3 
REMARK    2  A    between atoms: C3_4  and  C4_5 
REMARK    3  A    between atoms: C5_6  and  C6_7 
REMARK    4  A    between atoms: C10_11  and  C11_12 
REMARK    5  A    between atoms: C14_15  and  O2_16 
REMARK    6  A    between atoms: C20_25  and  C21_26 
REMARK    7  A    between atoms: C21_26  and  O4_27 
ROOT
HETATM    1  C4  UNL     1      21.880  -4.179 -11.182  1.00  0.00     0.078 A 
HETATM    2  C5  UNL     1      21.349  -3.493 -12.219  1.00  0.00    -0.023 A 
HETATM    3  C9  UNL     1      20.212  -4.210 -12.610  1.00  0.00     0.035 A 
HETATM    4  C10 UNL     1      20.093  -5.323 -11.773  1.00  0.00     0.016 A 
HETATM    5  N1  UNL     1      21.103  -5.243 -10.941  1.00  0.00    -0.352 N 
HETATM    6  C17 UNL     1      21.347  -6.151  -9.818  1.00  0.00     0.156 C 
ENDROOT
BRANCH   1   7
HETATM    7  C3  UNL     1      23.172  -4.042 -10.442  1.00  0.00     0.137 A 
HETATM    8  C2  UNL     1      23.616  -3.454  -9.349  1.00  0.00     0.115 A 
HETATM    9  C20 UNL     1      24.970  -3.689  -9.183  1.00  0.00     0.031 A 
HETATM   10  C18 UNL     1      25.303  -4.485 -10.260  1.00  0.00     0.061 A 
HETATM   11  O3  UNL     1      24.246  -4.673 -10.973  1.00  0.00    -0.309 OA
HETATM   12  C19 UNL     1      26.663  -5.062 -10.567  1.00  0.00     0.077 C 
BRANCH   8  13
HETATM   13  O1  UNL     1      22.801  -2.693  -8.476  1.00  0.00    -0.352 OA
HETATM   14  C1  UNL     1      22.782  -1.297  -8.868  1.00  0.00     0.210 C 
ENDBRANCH   8  13
BRANCH   9  15
HETATM   15  C21 UNL     1      25.826  -3.284  -8.050  1.00  0.00     0.208 C 
BRANCH  15  16
HETATM   16  O4  UNL     1      25.895  -4.438  -7.166  1.00  0.00    -0.396 OA
ATOM     17  H4  UNL     1      26.548  -5.017  -7.540  1.00  0.00     0.209 HD
ENDBRANCH  15  16
ENDBRANCH   9  15
ENDBRANCH   1   7
BRANCH   2  18
HETATM   18  C6  UNL     1      21.806  -2.172 -12.700  1.00  0.00     0.013 C 
HETATM   19  C7  UNL     1      21.336  -2.022 -14.151  1.00  0.00     0.015 C 
HETATM   20  C8  UNL     1      20.837  -1.137 -11.996  1.00  0.00     0.015 C 
ENDBRANCH   2  18
BRANCH   4  21
HETATM   21  C11 UNL     1      19.134  -6.462 -11.856  1.00  0.00     0.036 C 
HETATM   22  C12 UNL     1      19.434  -7.313 -13.077  1.00  0.00     0.013 C 
HETATM   23  C13 UNL     1      18.829  -8.674 -12.805  1.00  0.00     0.032 C 
HETATM   24  C14 UNL     1      17.366  -8.565 -12.496  1.00  0.00     0.118 C 
HETATM   25  C15 UNL     1      17.024  -7.558 -11.435  1.00  0.00     0.032 C 
HETATM   26  C16 UNL     1      17.702  -6.205 -11.675  1.00  0.00     0.013 C 
BRANCH  24  27
HETATM   27  O2  UNL     1      16.963  -9.821 -12.036  1.00  0.00    -0.396 OA
ATOM     28  H2  UNL     1      17.265  -9.888 -11.138  1.00  0.00     0.210 HD
ENDBRANCH  24  27
ENDBRANCH   4  21
TORSDOF 7
ENDMDL
