MODEL 1
REMARK VINA RESULT: -7.973791704      0.000      0.000
REMARK  6 active torsions:
REMARK  status: ('A' for Active; 'I' for Inactive)
REMARK    1  A    between atoms: C2_2  and  C5_6 
REMARK    2  A    between atoms: C5_6  and  C6_7 
REMARK    3  A    between atoms: C8_9  and  C9_10 
REMARK    4  A    between atoms: C11_13  and  N2_14 
REMARK    5  A    between atoms: C12_20  and  C13_21 
REMARK    6  A    between atoms: C13_21  and  C14_22 
ROOT
HETATM    1  C1  UNL     1      22.853  -1.286 -21.665  1.00  0.00     0.035 C 
HETATM    2  C2  UNL     1      23.944  -1.510 -20.522  1.00  0.00     0.060 C 
HETATM    3  C3  UNL     1      25.059  -2.157 -21.338  1.00  0.00     0.035 C 
HETATM    4  C4  UNL     1      23.347  -2.546 -19.745  1.00  0.00     0.072 C 
HETATM    5  N1  UNL     1      22.853  -3.405 -19.143  1.00  0.00    -0.196 NA
ENDROOT
BRANCH   2   6
HETATM    6  C5  UNL     1      24.189  -0.189 -20.051  1.00  0.00     0.009 C 
BRANCH   6   7
HETATM    7  C6  UNL     1      23.297   0.596 -19.143  1.00  0.00    -0.024 A 
HETATM    8  C7  UNL     1      22.933   0.054 -17.935  1.00  0.00     0.033 A 
HETATM    9  C8  UNL     1      22.175   0.790 -17.094  1.00  0.00     0.033 A 
HETATM   10  S2  UNL     1      21.948   2.240 -17.945  1.00  0.00    -0.092 SA
HETATM   11  C12 UNL     1      22.849   1.849 -19.386  1.00  0.00    -0.006 A 
BRANCH   9  12
HETATM   12  C9  UNL     1      21.650   0.428 -15.745  1.00  0.00     0.058 A 
HETATM   13  C10 UNL     1      20.962   1.348 -14.998  1.00  0.00     0.084 A 
HETATM   14  S1  UNL     1      20.590   0.474 -13.589  1.00  0.00    -0.064 SA
HETATM   15  C11 UNL     1      21.318  -1.002 -14.015  1.00  0.00     0.142 A 
HETATM   16  N3  UNL     1      21.821  -0.768 -15.223  1.00  0.00    -0.335 N 
ATOM     17  H3  UNL     1      22.324  -1.495 -15.731  1.00  0.00     0.168 HD
BRANCH  15  18
HETATM   18  N2  UNL     1      21.392  -2.129 -13.341  1.00  0.00    -0.380 N 
ATOM     19  H22 UNL     1      22.230  -2.530 -12.919  1.00  0.00     0.158 HD
ATOM     20  H21 UNL     1      20.660  -2.802 -13.112  1.00  0.00     0.158 HD
ENDBRANCH  15  18
ENDBRANCH   9  12
BRANCH  11  21
HETATM   21  C13 UNL     1      22.882   2.818 -20.499  1.00  0.00     0.051 C 
BRANCH  21  22
HETATM   22  C14 UNL     1      22.105   2.380 -21.712  1.00  0.00    -0.007 C 
HETATM   23  C15 UNL     1      20.979   3.375 -22.014  1.00  0.00     0.032 C 
HETATM   24  C16 UNL     1      20.508   2.997 -23.420  1.00  0.00     0.232 C 
HETATM   25  N4  UNL     1      21.528   3.400 -24.364  1.00  0.00    -0.075 N 
HETATM   26  C17 UNL     1      22.859   3.341 -23.827  1.00  0.00     0.232 C 
ATOM     27  H42 UNL     1      21.460   2.855 -25.224  1.00  0.00     0.277 HD
ATOM     28  H41 UNL     1      21.329   4.328 -24.737  1.00  0.00     0.277 HD
HETATM   29  C18 UNL     1      23.047   2.211 -22.862  1.00  0.00     0.032 C 
ENDBRANCH  21  22
ENDBRANCH  11  21
ENDBRANCH   6   7
ENDBRANCH   2   6
TORSDOF 6
ENDMDL
MODEL 2
REMARK VINA RESULT: -7.942463304      1.037      1.195
REMARK  6 active torsions:
REMARK  status: ('A' for Active; 'I' for Inactive)
REMARK    1  A    between atoms: C2_2  and  C5_6 
REMARK    2  A    between atoms: C5_6  and  C6_7 
REMARK    3  A    between atoms: C8_9  and  C9_10 
REMARK    4  A    between atoms: C11_13  and  N2_14 
REMARK    5  A    between atoms: C12_20  and  C13_21 
REMARK    6  A    between atoms: C13_21  and  C14_22 
ROOT
HETATM    1  C1  UNL     1      22.854  -1.249 -21.632  1.00  0.00     0.035 C 
HETATM    2  C2  UNL     1      23.952  -1.497 -20.499  1.00  0.00     0.060 C 
HETATM    3  C3  UNL     1      25.056  -2.142 -21.332  1.00  0.00     0.035 C 
HETATM    4  C4  UNL     1      23.352  -2.539 -19.733  1.00  0.00     0.072 C 
HETATM    5  N1  UNL     1      22.855  -3.402 -19.139  1.00  0.00    -0.196 NA
ENDROOT
BRANCH   2   6
HETATM    6  C5  UNL     1      24.211  -0.185 -20.013  1.00  0.00     0.009 C 
BRANCH   6   7
HETATM    7  C6  UNL     1      23.304   0.618 -19.135  1.00  0.00    -0.024 A 
HETATM    8  C7  UNL     1      22.924   0.100 -17.921  1.00  0.00     0.033 A 
HETATM    9  C8  UNL     1      22.153   0.853 -17.107  1.00  0.00     0.033 A 
HETATM   10  S2  UNL     1      21.936   2.284 -17.991  1.00  0.00    -0.092 SA
HETATM   11  C12 UNL     1      22.859   1.864 -19.410  1.00  0.00    -0.006 A 
BRANCH   9  12
HETATM   12  C9  UNL     1      21.609   0.518 -15.758  1.00  0.00     0.058 A 
HETATM   13  C10 UNL     1      21.739  -0.748 -15.251  1.00  0.00     0.084 A 
HETATM   14  S1  UNL     1      20.979  -0.618 -13.737  1.00  0.00    -0.064 SA
HETATM   15  C11 UNL     1      20.538   1.021 -13.822  1.00  0.00     0.142 A 
HETATM   16  N3  UNL     1      20.991   1.408 -15.011  1.00  0.00    -0.335 N 
ATOM     17  H3  UNL     1      20.863   2.367 -15.335  1.00  0.00     0.168 HD
BRANCH  15  18
HETATM   18  N2  UNL     1      19.900   1.768 -12.947  1.00  0.00    -0.380 N 
ATOM     19  H22 UNL     1      20.312   2.477 -12.340  1.00  0.00     0.158 HD
ATOM     20  H21 UNL     1      18.909   1.791 -12.708  1.00  0.00     0.158 HD
ENDBRANCH  15  18
ENDBRANCH   9  12
BRANCH  11  21
HETATM   21  C13 UNL     1      22.906   2.809 -20.544  1.00  0.00     0.051 C 
BRANCH  21  22
HETATM   22  C14 UNL     1      22.108   2.366 -21.741  1.00  0.00    -0.007 C 
HETATM   23  C15 UNL     1      20.976   3.358 -22.027  1.00  0.00     0.032 C 
HETATM   24  C16 UNL     1      20.480   2.975 -23.423  1.00  0.00     0.232 C 
HETATM   25  N4  UNL     1      21.483   3.377 -24.386  1.00  0.00    -0.075 N 
HETATM   26  C17 UNL     1      22.824   3.322 -23.872  1.00  0.00     0.232 C 
ATOM     27  H42 UNL     1      21.401   2.829 -25.242  1.00  0.00     0.277 HD
ATOM     28  H41 UNL     1      21.276   4.304 -24.758  1.00  0.00     0.277 HD
HETATM   29  C18 UNL     1      23.031   2.195 -22.907  1.00  0.00     0.032 C 
ENDBRANCH  21  22
ENDBRANCH  11  21
ENDBRANCH   6   7
ENDBRANCH   2   6
TORSDOF 6
ENDMDL
MODEL 3
REMARK VINA RESULT: -7.677964405      1.927      5.341
REMARK  6 active torsions:
REMARK  status: ('A' for Active; 'I' for Inactive)
REMARK    1  A    between atoms: C2_2  and  C5_6 
REMARK    2  A    between atoms: C5_6  and  C6_7 
REMARK    3  A    between atoms: C8_9  and  C9_10 
REMARK    4  A    between atoms: C11_13  and  N2_14 
REMARK    5  A    between atoms: C12_20  and  C13_21 
REMARK    6  A    between atoms: C13_21  and  C14_22 
ROOT
HETATM    1  C1  UNL     1      23.118   3.113 -23.949  1.00  0.00     0.035 C 
HETATM    2  C2  UNL     1      22.548   2.940 -22.467  1.00  0.00     0.060 C 
HETATM    3  C3  UNL     1      21.059   2.802 -22.767  1.00  0.00     0.035 C 
HETATM    4  C4  UNL     1      22.741   4.244 -21.924  1.00  0.00     0.072 C 
HETATM    5  N1  UNL     1      22.885   5.318 -21.513  1.00  0.00    -0.196 NA
ENDROOT
BRANCH   2   6
HETATM    6  C5  UNL     1      23.212   1.768 -22.006  1.00  0.00     0.009 C 
BRANCH   6   7
HETATM    7  C6  UNL     1      23.117   1.196 -20.627  1.00  0.00    -0.024 A 
HETATM    8  C7  UNL     1      22.455   1.905 -19.655  1.00  0.00     0.033 A 
HETATM    9  C8  UNL     1      22.322   1.358 -18.428  1.00  0.00     0.033 A 
HETATM   10  S2  UNL     1      23.101  -0.141 -18.585  1.00  0.00    -0.092 SA
HETATM   11  C12 UNL     1      23.588  -0.016 -20.255  1.00  0.00    -0.006 A 
BRANCH   9  12
HETATM   12  C9  UNL     1      21.660   1.924 -17.215  1.00  0.00     0.058 A 
HETATM   13  C10 UNL     1      21.226   3.223 -17.205  1.00  0.00     0.084 A 
HETATM   14  S1  UNL     1      20.566   3.377 -15.646  1.00  0.00    -0.064 SA
HETATM   15  C11 UNL     1      20.872   1.799 -15.092  1.00  0.00     0.142 A 
HETATM   16  N3  UNL     1      21.470   1.213 -16.125  1.00  0.00    -0.335 N 
ATOM     17  H3  UNL     1      21.772   0.240 -16.073  1.00  0.00     0.168 HD
BRANCH  15  18
HETATM   18  N2  UNL     1      20.600   1.248 -13.929  1.00  0.00    -0.380 N 
ATOM     19  H22 UNL     1      20.685   1.690 -13.014  1.00  0.00     0.158 HD
ATOM     20  H21 UNL     1      20.265   0.309 -13.714  1.00  0.00     0.158 HD
ENDBRANCH  15  18
ENDBRANCH   9  12
BRANCH  11  21
HETATM   21  C13 UNL     1      24.395  -1.099 -20.852  1.00  0.00     0.051 C 
BRANCH  21  22
HETATM   22  C14 UNL     1      24.253  -2.423 -20.150  1.00  0.00    -0.007 C 
HETATM   23  C15 UNL     1      22.935  -3.099 -20.544  1.00  0.00     0.032 C 
HETATM   24  C16 UNL     1      23.082  -4.536 -20.040  1.00  0.00     0.232 C 
HETATM   25  N4  UNL     1      24.036  -5.220 -20.886  1.00  0.00    -0.075 N 
HETATM   26  C17 UNL     1      25.055  -4.354 -21.413  1.00  0.00     0.232 C 
ATOM     27  H42 UNL     1      24.452  -6.011 -20.396  1.00  0.00     0.277 HD
ATOM     28  H41 UNL     1      23.560  -5.718 -21.639  1.00  0.00     0.277 HD
HETATM   29  C18 UNL     1      25.448  -3.270 -20.457  1.00  0.00     0.032 C 
ENDBRANCH  21  22
ENDBRANCH  11  21
ENDBRANCH   6   7
ENDBRANCH   2   6
TORSDOF 6
ENDMDL
MODEL 4
REMARK VINA RESULT: -7.555299578      1.664      4.881
REMARK  6 active torsions:
REMARK  status: ('A' for Active; 'I' for Inactive)
REMARK    1  A    between atoms: C2_2  and  C5_6 
REMARK    2  A    between atoms: C5_6  and  C6_7 
REMARK    3  A    between atoms: C8_9  and  C9_10 
REMARK    4  A    between atoms: C11_13  and  N2_14 
REMARK    5  A    between atoms: C12_20  and  C13_21 
REMARK    6  A    between atoms: C13_21  and  C14_22 
ROOT
HETATM    1  C1  UNL     1      22.619   4.537 -23.034  1.00  0.00     0.035 C 
HETATM    2  C2  UNL     1      22.344   3.055 -22.506  1.00  0.00     0.060 C 
HETATM    3  C3  UNL     1      22.817   2.249 -23.712  1.00  0.00     0.035 C 
HETATM    4  C4  UNL     1      20.919   3.003 -22.508  1.00  0.00     0.072 C 
HETATM    5  N1  UNL     1      19.761   2.975 -22.541  1.00  0.00    -0.196 NA
ENDROOT
BRANCH   2   6
HETATM    6  C5  UNL     1      23.152   2.978 -21.337  1.00  0.00     0.009 C 
BRANCH   6   7
HETATM    7  C6  UNL     1      22.938   2.046 -20.186  1.00  0.00    -0.024 A 
HETATM    8  C7  UNL     1      22.334   2.522 -19.048  1.00  0.00     0.033 A 
HETATM    9  C8  UNL     1      22.090   1.663 -18.035  1.00  0.00     0.033 A 
HETATM   10  S2  UNL     1      22.684   0.188 -18.625  1.00  0.00    -0.092 SA
HETATM   11  C12 UNL     1      23.242   0.729 -20.186  1.00  0.00    -0.006 A 
BRANCH   9  12
HETATM   12  C9  UNL     1      21.460   1.932 -16.709  1.00  0.00     0.058 A 
HETATM   13  C10 UNL     1      20.887   3.149 -16.446  1.00  0.00     0.084 A 
HETATM   14  S1  UNL     1      20.329   2.957 -14.853  1.00  0.00    -0.064 SA
HETATM   15  C11 UNL     1      20.846   1.357 -14.602  1.00  0.00     0.142 A 
HETATM   16  N3  UNL     1      21.428   1.030 -15.751  1.00  0.00    -0.335 N 
ATOM     17  H3  UNL     1      21.838   0.106 -15.888  1.00  0.00     0.168 HD
BRANCH  15  18
HETATM   18  N2  UNL     1      20.721   0.589 -13.541  1.00  0.00    -0.380 N 
ATOM     19  H22 UNL     1      20.535   0.898 -12.587  1.00  0.00     0.158 HD
ATOM     20  H21 UNL     1      20.783  -0.426 -13.459  1.00  0.00     0.158 HD
ENDBRANCH  15  18
ENDBRANCH   9  12
BRANCH  11  21
HETATM   21  C13 UNL     1      23.930  -0.228 -21.075  1.00  0.00     0.051 C 
BRANCH  21  22
HETATM   22  C14 UNL     1      24.339  -1.507 -20.395  1.00  0.00    -0.007 C 
HETATM   23  C15 UNL     1      23.258  -2.578 -20.574  1.00  0.00     0.032 C 
HETATM   24  C16 UNL     1      23.937  -3.878 -20.141  1.00  0.00     0.232 C 
HETATM   25  N4  UNL     1      24.900  -4.249 -21.156  1.00  0.00    -0.075 N 
HETATM   26  C17 UNL     1      25.485  -3.120 -21.827  1.00  0.00     0.232 C 
ATOM     27  H42 UNL     1      25.623  -4.852 -20.765  1.00  0.00     0.277 HD
ATOM     28  H41 UNL     1      24.485  -4.894 -21.828  1.00  0.00     0.277 HD
HETATM   29  C18 UNL     1      25.670  -1.939 -20.925  1.00  0.00     0.032 C 
ENDBRANCH  21  22
ENDBRANCH  11  21
ENDBRANCH   6   7
ENDBRANCH   2   6
TORSDOF 6
ENDMDL
MODEL 5
REMARK VINA RESULT: -7.514889482      1.409      1.771
REMARK  6 active torsions:
REMARK  status: ('A' for Active; 'I' for Inactive)
REMARK    1  A    between atoms: C2_2  and  C5_6 
REMARK    2  A    between atoms: C5_6  and  C6_7 
REMARK    3  A    between atoms: C8_9  and  C9_10 
REMARK    4  A    between atoms: C11_13  and  N2_14 
REMARK    5  A    between atoms: C12_20  and  C13_21 
REMARK    6  A    between atoms: C13_21  and  C14_22 
ROOT
HETATM    1  C1  UNL     1      23.197  -2.538 -19.686  1.00  0.00     0.035 C 
HETATM    2  C2  UNL     1      23.951  -1.603 -20.738  1.00  0.00     0.060 C 
HETATM    3  C3  UNL     1      22.824  -1.360 -21.737  1.00  0.00     0.035 C 
HETATM    4  C4  UNL     1      24.855  -2.520 -21.350  1.00  0.00     0.072 C 
HETATM    5  N1  UNL     1      25.564  -3.288 -21.849  1.00  0.00    -0.196 NA
ENDROOT
BRANCH   2   6
HETATM    6  C5  UNL     1      24.346  -0.487 -19.947  1.00  0.00     0.009 C 
BRANCH   6   7
HETATM    7  C6  UNL     1      23.424   0.437 -19.216  1.00  0.00    -0.024 A 
HETATM    8  C7  UNL     1      22.983   0.086 -17.964  1.00  0.00     0.033 A 
HETATM    9  C8  UNL     1      22.198   0.949 -17.286  1.00  0.00     0.033 A 
HETATM   10  S2  UNL     1      22.051   2.261 -18.352  1.00  0.00    -0.092 SA
HETATM   11  C12 UNL     1      23.020   1.647 -19.666  1.00  0.00    -0.006 A 
BRANCH   9  12
HETATM   12  C9  UNL     1      21.592   0.799 -15.930  1.00  0.00     0.058 A 
HETATM   13  C10 UNL     1      21.699  -0.385 -15.249  1.00  0.00     0.084 A 
HETATM   14  S1  UNL     1      20.871  -0.054 -13.803  1.00  0.00    -0.064 SA
HETATM   15  C11 UNL     1      20.434   1.556 -14.132  1.00  0.00     0.142 A 
HETATM   16  N3  UNL     1      20.941   1.779 -15.340  1.00  0.00    -0.335 N 
ATOM     17  H3  UNL     1      20.829   2.684 -15.797  1.00  0.00     0.168 HD
BRANCH  15  18
HETATM   18  N2  UNL     1      19.758   2.412 -13.396  1.00  0.00    -0.380 N 
ATOM     19  H22 UNL     1      20.149   3.138 -12.796  1.00  0.00     0.158 HD
ATOM     20  H21 UNL     1      18.750   2.520 -13.282  1.00  0.00     0.158 HD
ENDBRANCH  15  18
ENDBRANCH   9  12
BRANCH  11  21
HETATM   21  C13 UNL     1      23.135   2.440 -20.906  1.00  0.00     0.051 C 
BRANCH  21  22
HETATM   22  C14 UNL     1      22.057   2.150 -21.917  1.00  0.00    -0.007 C 
HETATM   23  C15 UNL     1      20.991   3.250 -21.894  1.00  0.00     0.032 C 
HETATM   24  C16 UNL     1      20.170   3.009 -23.162  1.00  0.00     0.232 C 
HETATM   25  N4  UNL     1      20.974   3.394 -24.303  1.00  0.00    -0.075 N 
HETATM   26  C17 UNL     1      22.383   3.192 -24.103  1.00  0.00     0.232 C 
ATOM     27  H42 UNL     1      20.656   2.916 -25.146  1.00  0.00     0.277 HD
ATOM     28  H41 UNL     1      20.782   4.359 -24.571  1.00  0.00     0.277 HD
HETATM   29  C18 UNL     1      22.685   1.986 -23.266  1.00  0.00     0.032 C 
ENDBRANCH  21  22
ENDBRANCH  11  21
ENDBRANCH   6   7
ENDBRANCH   2   6
TORSDOF 6
ENDMDL
