MODEL 1
REMARK VINA RESULT: -7.368356794      0.000      0.000
REMARK  12 active torsions:
REMARK  status: ('A' for Active; 'I' for Inactive)
REMARK    1  A    between atoms: C2_2  and  O1_3 
REMARK    2  A    between atoms: O1_3  and  C3_4 
REMARK    3  A    between atoms: C3_4  and  C4_6 
REMARK    4  A    between atoms: C7_11  and  C8_12 
REMARK    5  A    between atoms: C8_12  and  N2_13 
REMARK    6  A    between atoms: C8_12  and  S3_39 
REMARK    7  A    between atoms: N3_15  and  C9_17 
REMARK    8  A    between atoms: C12_24  and  N6_25 
REMARK    9  A    between atoms: N6_25  and  C13_27 
REMARK   10  A    between atoms: C15_29  and  S1_30 
REMARK   11  A    between atoms: S1_30  and  N7_31 
REMARK   12  A    between atoms: S3_39  and  O5_40 
ROOT
HETATM    1  C9  UNL     1      -2.210  17.496  13.834  1.00  0.00     0.164 A 
HETATM    2  N4  UNL     1      -0.865  17.704  13.878  1.00  0.00    -0.282 N 
ATOM      3  H4  UNL     1      -0.142  17.013  13.675  1.00  0.00     0.188 HD
HETATM    4  N5  UNL     1      -0.664  18.971  14.234  1.00  0.00    -0.301 N 
ATOM      5  H5  UNL     1       0.247  19.415  14.349  1.00  0.00     0.186 HD
HETATM    6  C10 UNL     1      -1.865  19.578  14.417  1.00  0.00     0.052 A 
HETATM    7  C11 UNL     1      -1.996  20.997  14.819  1.00  0.00     0.072 C 
HETATM    8  C12 UNL     1      -2.861  18.659  14.168  1.00  0.00     0.103 A 
ENDROOT
BRANCH   1   9
HETATM    9  N3  UNL     1      -2.766  16.234  13.483  1.00  0.00    -0.281 N 
HETATM   10  N2  UNL     1      -2.659  15.297  14.312  1.00  0.00    -0.289 N 
ATOM     11  H2  UNL     1      -2.181  15.475  15.196  1.00  0.00     0.188 HD
ATOM     12  H3  UNL     1      -3.236  16.095  12.589  1.00  0.00     0.188 HD
BRANCH  10  13
HETATM   13  C8  UNL     1      -3.182  13.989  14.063  1.00  0.00     0.140 C 
BRANCH  13  14
HETATM   14  C7  UNL     1      -2.708  12.891  14.896  1.00  0.00     0.095 A 
HETATM   15  N1  UNL     1      -3.426  11.864  15.369  1.00  0.00    -0.355 N 
HETATM   16  C5  UNL     1      -2.656  11.029  16.109  1.00  0.00     0.024 A 
ATOM     17  H1  UNL     1      -4.422  11.728  15.196  1.00  0.00     0.166 HD
HETATM   18  C4  UNL     1      -1.382  11.549  16.109  1.00  0.00     0.088 A 
HETATM   19  C6  UNL     1      -3.091   9.791  16.793  1.00  0.00     0.069 C 
HETATM   20  C17 UNL     1      -1.404  12.704  15.359  1.00  0.00     0.094 A 
HETATM   21  N8  UNL     1      -0.320  13.572  15.084  1.00  0.00    -0.099 NA
BRANCH  18  22
HETATM   22  C3  UNL     1      -0.209  10.981  16.783  1.00  0.00     0.297 C 
HETATM   23  O2  UNL     1      -0.141  10.909  18.037  1.00  0.00    -0.259 OA
BRANCH  22  24
HETATM   24  O1  UNL     1       0.877  10.497  16.075  1.00  0.00    -0.318 OA
BRANCH  24  25
HETATM   25  C2  UNL     1       1.460   9.233  16.417  1.00  0.00     0.174 C 
HETATM   26  C1  UNL     1       0.434   8.177  16.108  1.00  0.00     0.034 C 
ENDBRANCH  24  25
ENDBRANCH  22  24
ENDBRANCH  18  22
ENDBRANCH  13  14
BRANCH  13  27
HETATM   27  S3  UNL     1      -4.266  13.727  12.894  1.00  0.00     0.048 SA
BRANCH  27  28
HETATM   28  O5  UNL     1      -5.013  12.182  12.756  1.00  0.00    -0.324 OA
ATOM     29  H5  UNL     1      -4.579  11.493  12.266  1.00  0.00     0.228 HD
ENDBRANCH  27  28
ENDBRANCH  13  27
ENDBRANCH  10  13
ENDBRANCH   1   9
BRANCH   8  30
HETATM   30  N6  UNL     1      -4.266  18.856  14.239  1.00  0.00    -0.350 N 
ATOM     31  H6  UNL     1      -4.871  18.056  14.427  1.00  0.00     0.166 HD
BRANCH  30  32
HETATM   32  C13 UNL     1      -4.868  20.174  14.048  1.00  0.00     0.063 A 
HETATM   33  C14 UNL     1      -5.106  20.711  12.828  1.00  0.00     0.064 A 
HETATM   34  C15 UNL     1      -5.676  21.955  12.797  1.00  0.00     0.123 A 
HETATM   35  S2  UNL     1      -5.866  22.345  14.439  1.00  0.00    -0.062 SA
HETATM   36  C16 UNL     1      -5.223  20.932  15.131  1.00  0.00     0.102 A 
HETATM   37 CL1  UNL     1      -5.057  20.539  16.856  1.00  0.00    -0.074 Cl
BRANCH  34  38
HETATM   38  S1  UNL     1      -6.099  22.905  11.357  1.00  0.00     0.263 S 
HETATM   39  O3  UNL     1      -4.854  22.936  10.510  1.00  0.00    -0.200 OA
HETATM   40  O4  UNL     1      -6.516  24.251  11.819  1.00  0.00    -0.200 OA
BRANCH  38  41
HETATM   41  N7  UNL     1      -7.349  22.097  10.483  1.00  0.00    -0.324 N 
ATOM     42  H72 UNL     1      -7.592  21.113  10.600  1.00  0.00     0.169 HD
ATOM     43  H71 UNL     1      -7.795  22.754   9.844  1.00  0.00     0.169 HD
ENDBRANCH  38  41
ENDBRANCH  34  38
ENDBRANCH  30  32
ENDBRANCH   8  30
TORSDOF 12
ENDMDL
MODEL 2
REMARK VINA RESULT: -6.813903956      7.382     10.140
REMARK  12 active torsions:
REMARK  status: ('A' for Active; 'I' for Inactive)
REMARK    1  A    between atoms: C2_2  and  O1_3 
REMARK    2  A    between atoms: O1_3  and  C3_4 
REMARK    3  A    between atoms: C3_4  and  C4_6 
REMARK    4  A    between atoms: C7_11  and  C8_12 
REMARK    5  A    between atoms: C8_12  and  N2_13 
REMARK    6  A    between atoms: C8_12  and  S3_39 
REMARK    7  A    between atoms: N3_15  and  C9_17 
REMARK    8  A    between atoms: C12_24  and  N6_25 
REMARK    9  A    between atoms: N6_25  and  C13_27 
REMARK   10  A    between atoms: C15_29  and  S1_30 
REMARK   11  A    between atoms: S1_30  and  N7_31 
REMARK   12  A    between atoms: S3_39  and  O5_40 
ROOT
HETATM    1  C9  UNL     1      -6.126  20.618  17.611  1.00  0.00     0.164 A 
HETATM    2  N4  UNL     1      -5.583  19.582  18.311  1.00  0.00    -0.282 N 
ATOM      3  H4  UNL     1      -4.626  19.238  18.230  1.00  0.00     0.188 HD
HETATM    4  N5  UNL     1      -6.527  19.101  19.117  1.00  0.00    -0.301 N 
ATOM      5  H5  UNL     1      -6.410  18.320  19.762  1.00  0.00     0.186 HD
HETATM    6  C10 UNL     1      -7.668  19.817  18.943  1.00  0.00     0.052 A 
HETATM    7  C11 UNL     1      -8.914  19.538  19.692  1.00  0.00     0.072 C 
HETATM    8  C12 UNL     1      -7.435  20.785  17.991  1.00  0.00     0.103 A 
ENDROOT
BRANCH   1   9
HETATM    9  N3  UNL     1      -5.375  21.356  16.655  1.00  0.00    -0.281 N 
HETATM   10  N2  UNL     1      -5.055  20.777  15.588  1.00  0.00    -0.289 N 
ATOM     11  H2  UNL     1      -5.343  19.807  15.450  1.00  0.00     0.188 HD
ATOM     12  H3  UNL     1      -5.105  22.324  16.830  1.00  0.00     0.188 HD
BRANCH  10  13
HETATM   13  C8  UNL     1      -4.302  21.424  14.558  1.00  0.00     0.140 C 
BRANCH  13  14
HETATM   14  C7  UNL     1      -5.032  22.021  13.447  1.00  0.00     0.095 A 
HETATM   15  N1  UNL     1      -5.061  23.313  13.096  1.00  0.00    -0.355 N 
HETATM   16  C5  UNL     1      -5.844  23.507  12.007  1.00  0.00     0.024 A 
ATOM     17  H1  UNL     1      -4.559  24.054  13.585  1.00  0.00     0.166 HD
HETATM   18  C4  UNL     1      -6.342  22.277  11.644  1.00  0.00     0.088 A 
HETATM   19  C6  UNL     1      -6.122  24.793  11.329  1.00  0.00     0.069 C 
HETATM   20  C17 UNL     1      -5.843  21.348  12.530  1.00  0.00     0.094 A 
HETATM   21  N8  UNL     1      -6.088  19.954  12.543  1.00  0.00    -0.099 NA
BRANCH  18  22
HETATM   22  C3  UNL     1      -7.241  21.998  10.518  1.00  0.00     0.297 C 
HETATM   23  O2  UNL     1      -7.170  22.647   9.442  1.00  0.00    -0.259 OA
BRANCH  22  24
HETATM   24  O1  UNL     1      -8.207  21.010  10.583  1.00  0.00    -0.318 OA
BRANCH  24  25
HETATM   25  C2  UNL     1      -9.140  20.838   9.509  1.00  0.00     0.174 C 
HETATM   26  C1  UNL     1     -10.518  20.985  10.095  1.00  0.00     0.034 C 
ENDBRANCH  24  25
ENDBRANCH  22  24
ENDBRANCH  18  22
ENDBRANCH  13  14
BRANCH  13  27
HETATM   27  S3  UNL     1      -2.689  21.496  14.617  1.00  0.00     0.048 SA
BRANCH  27  28
HETATM   28  O5  UNL     1      -1.754  20.252  13.881  1.00  0.00    -0.324 OA
ATOM     29  H5  UNL     1      -0.910  20.018  14.250  1.00  0.00     0.228 HD
ENDBRANCH  27  28
ENDBRANCH  13  27
ENDBRANCH  10  13
ENDBRANCH   1   9
BRANCH   8  30
HETATM   30  N6  UNL     1      -8.345  21.757  17.496  1.00  0.00    -0.350 N 
ATOM     31  H6  UNL     1      -8.026  22.718  17.371  1.00  0.00     0.166 HD
BRANCH  30  32
HETATM   32  C13 UNL     1      -9.726  21.418  17.161  1.00  0.00     0.063 A 
HETATM   33  C14 UNL     1     -10.059  20.414  16.315  1.00  0.00     0.064 A 
HETATM   34  C15 UNL     1     -11.393  20.205  16.092  1.00  0.00     0.123 A 
HETATM   35  S2  UNL     1     -12.145  21.391  17.048  1.00  0.00    -0.062 SA
HETATM   36  C16 UNL     1     -10.762  22.125  17.710  1.00  0.00     0.102 A 
HETATM   37 CL1  UNL     1     -10.688  23.489  18.847  1.00  0.00    -0.074 Cl
BRANCH  34  38
HETATM   38  S1  UNL     1     -12.126  18.975  15.041  1.00  0.00     0.263 S 
HETATM   39  O3  UNL     1     -11.352  17.708  15.298  1.00  0.00    -0.200 OA
HETATM   40  O4  UNL     1     -12.001  19.453  13.643  1.00  0.00    -0.200 OA
BRANCH  38  41
HETATM   41  N7  UNL     1     -13.769  18.728  15.505  1.00  0.00    -0.324 N 
ATOM     42  H72 UNL     1     -14.104  18.730  16.469  1.00  0.00     0.169 HD
ATOM     43  H71 UNL     1     -14.338  18.584  14.671  1.00  0.00     0.169 HD
ENDBRANCH  38  41
ENDBRANCH  34  38
ENDBRANCH  30  32
ENDBRANCH   8  30
TORSDOF 12
ENDMDL
MODEL 3
REMARK VINA RESULT: -6.783218897      7.219     10.255
REMARK  12 active torsions:
REMARK  status: ('A' for Active; 'I' for Inactive)
REMARK    1  A    between atoms: C2_2  and  O1_3 
REMARK    2  A    between atoms: O1_3  and  C3_4 
REMARK    3  A    between atoms: C3_4  and  C4_6 
REMARK    4  A    between atoms: C7_11  and  C8_12 
REMARK    5  A    between atoms: C8_12  and  N2_13 
REMARK    6  A    between atoms: C8_12  and  S3_39 
REMARK    7  A    between atoms: N3_15  and  C9_17 
REMARK    8  A    between atoms: C12_24  and  N6_25 
REMARK    9  A    between atoms: N6_25  and  C13_27 
REMARK   10  A    between atoms: C15_29  and  S1_30 
REMARK   11  A    between atoms: S1_30  and  N7_31 
REMARK   12  A    between atoms: S3_39  and  O5_40 
ROOT
HETATM    1  C9  UNL     1      -6.169  20.554  17.452  1.00  0.00     0.164 A 
HETATM    2  N4  UNL     1      -5.585  19.564  18.183  1.00  0.00    -0.282 N 
ATOM      3  H4  UNL     1      -4.665  19.154  18.016  1.00  0.00     0.188 HD
HETATM    4  N5  UNL     1      -6.430  19.226  19.154  1.00  0.00    -0.301 N 
ATOM      5  H5  UNL     1      -6.263  18.510  19.860  1.00  0.00     0.186 HD
HETATM    6  C10 UNL     1      -7.550  19.990  19.054  1.00  0.00     0.052 A 
HETATM    7  C11 UNL     1      -8.693  19.866  19.987  1.00  0.00     0.072 C 
HETATM    8  C12 UNL     1      -7.404  20.840  17.980  1.00  0.00     0.103 A 
ENDROOT
BRANCH   1   9
HETATM    9  N3  UNL     1      -5.522  21.143  16.330  1.00  0.00    -0.281 N 
HETATM   10  N2  UNL     1      -5.411  20.451  15.288  1.00  0.00    -0.289 N 
ATOM     11  H2  UNL     1      -5.784  19.501  15.287  1.00  0.00     0.188 HD
ATOM     12  H3  UNL     1      -5.161  22.095  16.370  1.00  0.00     0.188 HD
BRANCH  10  13
HETATM   13  C8  UNL     1      -4.780  20.943  14.102  1.00  0.00     0.140 C 
BRANCH  13  14
HETATM   14  C7  UNL     1      -5.623  21.253  12.955  1.00  0.00     0.095 A 
HETATM   15  N1  UNL     1      -6.276  20.387  12.171  1.00  0.00    -0.355 N 
HETATM   16  C5  UNL     1      -6.966  21.031  11.198  1.00  0.00     0.024 A 
ATOM     17  H1  UNL     1      -6.257  19.374  12.290  1.00  0.00     0.166 HD
HETATM   18  C4  UNL     1      -6.742  22.377  11.368  1.00  0.00     0.088 A 
HETATM   19  C6  UNL     1      -7.803  20.414  10.145  1.00  0.00     0.069 C 
HETATM   20  C17 UNL     1      -5.910  22.526  12.456  1.00  0.00     0.094 A 
HETATM   21  N8  UNL     1      -5.414  23.735  13.000  1.00  0.00    -0.099 NA
BRANCH  18  22
HETATM   22  C3  UNL     1      -7.286  23.463  10.545  1.00  0.00     0.297 C 
HETATM   23  O2  UNL     1      -8.232  23.267   9.738  1.00  0.00    -0.259 OA
BRANCH  22  24
HETATM   24  O1  UNL     1      -6.789  24.753  10.615  1.00  0.00    -0.318 OA
BRANCH  24  25
HETATM   25  C2  UNL     1      -5.848  25.219   9.640  1.00  0.00     0.174 C 
HETATM   26  C1  UNL     1      -5.007  24.038   9.238  1.00  0.00     0.034 C 
ENDBRANCH  24  25
ENDBRANCH  22  24
ENDBRANCH  18  22
ENDBRANCH  13  14
BRANCH  13  27
HETATM   27  S3  UNL     1      -3.180  21.152  14.028  1.00  0.00     0.048 SA
BRANCH  27  28
HETATM   28  O5  UNL     1      -2.156  19.797  13.755  1.00  0.00    -0.324 OA
ATOM     29  H5  UNL     1      -1.212  19.913  13.755  1.00  0.00     0.228 HD
ENDBRANCH  27  28
ENDBRANCH  13  27
ENDBRANCH  10  13
ENDBRANCH   1   9
BRANCH   8  30
HETATM   30  N6  UNL     1      -8.326  21.810  17.505  1.00  0.00    -0.350 N 
ATOM     31  H6  UNL     1      -8.006  22.766  17.351  1.00  0.00     0.166 HD
BRANCH  30  32
HETATM   32  C13 UNL     1      -9.722  21.475  17.232  1.00  0.00     0.063 A 
HETATM   33  C14 UNL     1     -10.096  20.447  16.435  1.00  0.00     0.064 A 
HETATM   34  C15 UNL     1     -11.440  20.246  16.267  1.00  0.00     0.123 A 
HETATM   35  S2  UNL     1     -12.144  21.474  17.206  1.00  0.00    -0.062 SA
HETATM   36  C16 UNL     1     -10.730  22.214  17.792  1.00  0.00     0.102 A 
HETATM   37 CL1  UNL     1     -10.601  23.616  18.876  1.00  0.00    -0.074 Cl
BRANCH  34  38
HETATM   38  S1  UNL     1     -12.222  18.988  15.286  1.00  0.00     0.263 S 
HETATM   39  O3  UNL     1     -11.774  19.240  13.871  1.00  0.00    -0.200 OA
HETATM   40  O4  UNL     1     -13.687  19.135  15.462  1.00  0.00    -0.200 OA
BRANCH  38  41
HETATM   41  N7  UNL     1     -11.655  17.437  15.785  1.00  0.00    -0.324 N 
ATOM     42  H72 UNL     1     -11.299  17.225  16.717  1.00  0.00     0.169 HD
ATOM     43  H71 UNL     1     -11.734  16.782  15.007  1.00  0.00     0.169 HD
ENDBRANCH  38  41
ENDBRANCH  34  38
ENDBRANCH  30  32
ENDBRANCH   8  30
TORSDOF 12
ENDMDL
MODEL 4
REMARK VINA RESULT: -6.691141845      1.011      1.644
REMARK  12 active torsions:
REMARK  status: ('A' for Active; 'I' for Inactive)
REMARK    1  A    between atoms: C2_2  and  O1_3 
REMARK    2  A    between atoms: O1_3  and  C3_4 
REMARK    3  A    between atoms: C3_4  and  C4_6 
REMARK    4  A    between atoms: C7_11  and  C8_12 
REMARK    5  A    between atoms: C8_12  and  N2_13 
REMARK    6  A    between atoms: C8_12  and  S3_39 
REMARK    7  A    between atoms: N3_15  and  C9_17 
REMARK    8  A    between atoms: C12_24  and  N6_25 
REMARK    9  A    between atoms: N6_25  and  C13_27 
REMARK   10  A    between atoms: C15_29  and  S1_30 
REMARK   11  A    between atoms: S1_30  and  N7_31 
REMARK   12  A    between atoms: S3_39  and  O5_40 
ROOT
HETATM    1  C9  UNL     1      -2.020  17.852  13.935  1.00  0.00     0.164 A 
HETATM    2  N4  UNL     1      -0.708  18.194  14.067  1.00  0.00    -0.282 N 
ATOM      3  H4  UNL     1       0.091  17.569  13.955  1.00  0.00     0.188 HD
HETATM    4  N5  UNL     1      -0.656  19.490  14.367  1.00  0.00    -0.301 N 
ATOM      5  H5  UNL     1       0.196  20.027  14.524  1.00  0.00     0.186 HD
HETATM    6  C10 UNL     1      -1.921  19.982  14.429  1.00  0.00     0.052 A 
HETATM    7  C11 UNL     1      -2.218  21.398  14.743  1.00  0.00     0.072 C 
HETATM    8  C12 UNL     1      -2.802  18.958  14.159  1.00  0.00     0.103 A 
ENDROOT
BRANCH   1   9
HETATM    9  N3  UNL     1      -2.424  16.526  13.614  1.00  0.00    -0.281 N 
HETATM   10  N2  UNL     1      -2.229  15.630  14.472  1.00  0.00    -0.289 N 
ATOM     11  H2  UNL     1      -1.792  15.885  15.358  1.00  0.00     0.188 HD
ATOM     12  H3  UNL     1      -2.857  16.310  12.717  1.00  0.00     0.188 HD
BRANCH  10  13
HETATM   13  C8  UNL     1      -2.597  14.265  14.255  1.00  0.00     0.140 C 
BRANCH  13  14
HETATM   14  C7  UNL     1      -1.815  13.230  14.917  1.00  0.00     0.095 A 
HETATM   15  N1  UNL     1      -0.529  12.922  14.701  1.00  0.00    -0.355 N 
HETATM   16  C5  UNL     1      -0.130  11.903  15.500  1.00  0.00     0.024 A 
ATOM     17  H1  UNL     1       0.071  13.393  14.023  1.00  0.00     0.166 HD
HETATM   18  C4  UNL     1      -1.214  11.540  16.265  1.00  0.00     0.088 A 
HETATM   19  C6  UNL     1       1.216  11.287  15.549  1.00  0.00     0.069 C 
HETATM   20  C17 UNL     1      -2.265  12.357  15.910  1.00  0.00     0.094 A 
HETATM   21  N8  UNL     1      -3.579  12.345  16.437  1.00  0.00    -0.099 NA
BRANCH  18  22
HETATM   22  C3  UNL     1      -1.252  10.477  17.275  1.00  0.00     0.297 C 
HETATM   23  O2  UNL     1      -1.948   9.441  17.115  1.00  0.00    -0.259 OA
BRANCH  22  24
HETATM   24  O1  UNL     1      -0.524  10.559  18.450  1.00  0.00    -0.318 OA
BRANCH  24  25
HETATM   25  C2  UNL     1      -0.058   9.369  19.097  1.00  0.00     0.174 C 
HETATM   26  C1  UNL     1       1.281   9.037  18.497  1.00  0.00     0.034 C 
ENDBRANCH  24  25
ENDBRANCH  22  24
ENDBRANCH  18  22
ENDBRANCH  13  14
BRANCH  13  27
HETATM   27  S3  UNL     1      -3.843  13.873  13.303  1.00  0.00     0.048 SA
BRANCH  27  28
HETATM   28  O5  UNL     1      -4.620  12.351  13.501  1.00  0.00    -0.324 OA
ATOM     29  H5  UNL     1      -5.525  12.245  13.229  1.00  0.00     0.228 HD
ENDBRANCH  27  28
ENDBRANCH  13  27
ENDBRANCH  10  13
ENDBRANCH   1   9
BRANCH   8  30
HETATM   30  N6  UNL     1      -4.221  19.018  14.115  1.00  0.00    -0.350 N 
ATOM     31  H6  UNL     1      -4.758  18.156  14.214  1.00  0.00     0.166 HD
BRANCH  30  32
HETATM   32  C13 UNL     1      -4.932  20.282  13.934  1.00  0.00     0.063 A 
HETATM   33  C14 UNL     1      -5.135  20.851  12.722  1.00  0.00     0.064 A 
HETATM   34  C15 UNL     1      -5.819  22.036  12.698  1.00  0.00     0.123 A 
HETATM   35  S2  UNL     1      -6.158  22.331  14.336  1.00  0.00    -0.062 SA
HETATM   36  C16 UNL     1      -5.433  20.952  15.017  1.00  0.00     0.102 A 
HETATM   37 CL1  UNL     1      -5.350  20.497  16.733  1.00  0.00    -0.074 Cl
BRANCH  34  38
HETATM   38  S1  UNL     1      -6.230  23.009  11.270  1.00  0.00     0.263 S 
HETATM   39  O3  UNL     1      -4.986  23.032  10.422  1.00  0.00    -0.200 OA
HETATM   40  O4  UNL     1      -6.628  24.355  11.748  1.00  0.00    -0.200 OA
BRANCH  38  41
HETATM   41  N7  UNL     1      -7.492  22.228  10.389  1.00  0.00    -0.324 N 
ATOM     42  H72 UNL     1      -7.402  21.320   9.933  1.00  0.00     0.169 HD
ATOM     43  H71 UNL     1      -8.326  22.816  10.399  1.00  0.00     0.169 HD
ENDBRANCH  38  41
ENDBRANCH  34  38
ENDBRANCH  30  32
ENDBRANCH   8  30
TORSDOF 12
ENDMDL
MODEL 5
REMARK VINA RESULT: -6.632550115      2.953     10.673
REMARK  12 active torsions:
REMARK  status: ('A' for Active; 'I' for Inactive)
REMARK    1  A    between atoms: C2_2  and  O1_3 
REMARK    2  A    between atoms: O1_3  and  C3_4 
REMARK    3  A    between atoms: C3_4  and  C4_6 
REMARK    4  A    between atoms: C7_11  and  C8_12 
REMARK    5  A    between atoms: C8_12  and  N2_13 
REMARK    6  A    between atoms: C8_12  and  S3_39 
REMARK    7  A    between atoms: N3_15  and  C9_17 
REMARK    8  A    between atoms: C12_24  and  N6_25 
REMARK    9  A    between atoms: N6_25  and  C13_27 
REMARK   10  A    between atoms: C15_29  and  S1_30 
REMARK   11  A    between atoms: S1_30  and  N7_31 
REMARK   12  A    between atoms: S3_39  and  O5_40 
ROOT
HETATM    1  C9  UNL     1      -2.458  18.307  14.044  1.00  0.00     0.164 A 
HETATM    2  N4  UNL     1      -1.348  19.059  14.286  1.00  0.00    -0.282 N 
ATOM      3  H4  UNL     1      -1.335  20.045  14.546  1.00  0.00     0.188 HD
HETATM    4  N5  UNL     1      -0.285  18.275  14.122  1.00  0.00    -0.301 N 
ATOM      5  H5  UNL     1       0.686  18.565  14.236  1.00  0.00     0.186 HD
HETATM    6  C10 UNL     1      -0.700  17.028  13.777  1.00  0.00     0.052 A 
HETATM    7  C11 UNL     1       0.237  15.911  13.521  1.00  0.00     0.072 C 
HETATM    8  C12 UNL     1      -2.077  17.026  13.722  1.00  0.00     0.103 A 
ENDROOT
BRANCH   1   9
HETATM    9  N3  UNL     1      -3.770  18.849  14.134  1.00  0.00    -0.281 N 
HETATM   10  N2  UNL     1      -3.886  20.098  14.173  1.00  0.00    -0.289 N 
ATOM     11  H2  UNL     1      -3.042  20.671  14.140  1.00  0.00     0.188 HD
ATOM     12  H3  UNL     1      -4.589  18.243  14.167  1.00  0.00     0.188 HD
BRANCH  10  13
HETATM   13  C8  UNL     1      -5.156  20.749  14.263  1.00  0.00     0.140 C 
BRANCH  13  14
HETATM   14  C7  UNL     1      -5.832  21.110  13.024  1.00  0.00     0.095 A 
HETATM   15  N1  UNL     1      -6.414  20.283  12.147  1.00  0.00    -0.355 N 
HETATM   16  C5  UNL     1      -6.946  20.969  11.106  1.00  0.00     0.024 A 
ATOM     17  H1  UNL     1      -6.452  19.268  12.249  1.00  0.00     0.166 HD
HETATM   18  C4  UNL     1      -6.691  22.302  11.329  1.00  0.00     0.088 A 
HETATM   19  C6  UNL     1      -7.667  20.403   9.944  1.00  0.00     0.069 C 
HETATM   20  C17 UNL     1      -6.000  22.401  12.516  1.00  0.00     0.094 A 
HETATM   21  N8  UNL     1      -5.528  23.580  13.141  1.00  0.00    -0.099 NA
BRANCH  18  22
HETATM   22  C3  UNL     1      -7.080  23.421  10.462  1.00  0.00     0.297 C 
HETATM   23  O2  UNL     1      -7.935  23.280   9.550  1.00  0.00    -0.259 OA
BRANCH  22  24
HETATM   24  O1  UNL     1      -6.529  24.682  10.607  1.00  0.00    -0.318 OA
BRANCH  24  25
HETATM   25  C2  UNL     1      -5.748  25.255   9.551  1.00  0.00     0.174 C 
HETATM   26  C1  UNL     1      -4.905  24.150   8.976  1.00  0.00     0.034 C 
ENDBRANCH  24  25
ENDBRANCH  22  24
ENDBRANCH  18  22
ENDBRANCH  13  14
BRANCH  13  27
HETATM   27  S3  UNL     1      -5.830  21.079  15.694  1.00  0.00     0.048 SA
BRANCH  27  28
HETATM   28  O5  UNL     1      -5.105  20.482  17.136  1.00  0.00    -0.324 OA
ATOM     29  H5  UNL     1      -5.084  19.546  17.298  1.00  0.00     0.228 HD
ENDBRANCH  27  28
ENDBRANCH  13  27
ENDBRANCH  10  13
ENDBRANCH   1   9
BRANCH   8  30
HETATM   30  N6  UNL     1      -2.935  15.940  13.403  1.00  0.00    -0.350 N 
ATOM     31  H6  UNL     1      -3.638  16.060  12.673  1.00  0.00     0.166 HD
BRANCH  30  32
HETATM   32  C13 UNL     1      -2.837  14.655  14.092  1.00  0.00     0.063 A 
HETATM   33  C14 UNL     1      -1.912  14.393  15.046  1.00  0.00     0.064 A 
HETATM   34  C15 UNL     1      -1.936  13.146  15.609  1.00  0.00     0.123 A 
HETATM   35  S2  UNL     1      -3.223  12.375  14.811  1.00  0.00    -0.062 SA
HETATM   36  C16 UNL     1      -3.705  13.642  13.786  1.00  0.00     0.102 A 
HETATM   37 CL1  UNL     1      -5.028  13.641  12.599  1.00  0.00    -0.074 Cl
BRANCH  34  38
HETATM   38  S1  UNL     1      -0.855  12.519  16.872  1.00  0.00     0.263 S 
HETATM   39  O3  UNL     1      -1.110  13.373  18.085  1.00  0.00    -0.200 OA
HETATM   40  O4  UNL     1       0.534  12.634  16.366  1.00  0.00    -0.200 OA
BRANCH  38  41
HETATM   41  N7  UNL     1      -1.285  10.888  17.236  1.00  0.00    -0.324 N 
ATOM     42  H72 UNL     1      -2.228  10.578  17.472  1.00  0.00     0.169 HD
ATOM     43  H71 UNL     1      -0.456  10.298  17.177  1.00  0.00     0.169 HD
ENDBRANCH  38  41
ENDBRANCH  34  38
ENDBRANCH  30  32
ENDBRANCH   8  30
TORSDOF 12
ENDMDL
