MODEL 1
REMARK VINA RESULT: -7.543866675      0.000      0.000
REMARK  10 active torsions:
REMARK  status: ('A' for Active; 'I' for Inactive)
REMARK    1  A    between atoms: O1_2  and  N1_3 
REMARK    2  A    between atoms: C4_8  and  C5_9 
REMARK    3  A    between atoms: C5_9  and  O2_10 
REMARK    4  A    between atoms: O2_10  and  C6_11 
REMARK    5  A    between atoms: C6_11  and  C7_13 
REMARK    6  A    between atoms: C8_14  and  C9_15 
REMARK    7  A    between atoms: C11_17  and  O4_18 
REMARK    8  A    between atoms: N2_25  and  N3_27 
REMARK       I    between atoms: N3_27  and  C16_29 
REMARK    9  A    between atoms: C16_29  and  C17_31 
REMARK   10  A    between atoms: C19_36  and  N5_37 
ROOT
HETATM    1  N1  UNL     1     -13.227  14.259  10.416  1.00  0.00    -0.274 N 
ATOM      2  H1  UNL     1     -12.744  13.770  11.170  1.00  0.00     0.193 HD
HETATM    3  C2  UNL     1     -12.757  15.366   9.978  1.00  0.00     0.029 C 
HETATM    4  C3  UNL     1     -13.480  16.079   8.862  1.00  0.00     0.130 C 
HETATM    5  S1  UNL     1     -14.075  17.633   9.652  1.00  0.00    -0.151 SA
HETATM    6  C4  UNL     1     -12.840  18.038  10.892  1.00  0.00     0.032 C 
HETATM    7  C13 UNL     1     -13.242  17.431  12.199  1.00  0.00     0.028 C 
HETATM    8  C14 UNL     1     -12.166  16.661  12.889  1.00  0.00     0.056 C 
HETATM    9  C15 UNL     1     -11.416  15.741  11.999  1.00  0.00     0.013 C 
HETATM   10  N2  UNL     1     -10.715  14.788  12.475  1.00  0.00    -0.305 N 
ATOM     11  H2  UNL     1     -10.687  14.677  13.488  1.00  0.00     0.186 HD
HETATM   12  C21 UNL     1     -11.517  15.977  10.539  1.00  0.00     0.083 C 
HETATM   13  C22 UNL     1     -11.512  17.494  10.390  1.00  0.00     0.039 C 
ENDROOT
BRANCH  10  14
HETATM   14  N3  UNL     1      -9.981  13.883  11.693  1.00  0.00    -0.266 N 
HETATM   15  C16 UNL     1      -9.216  12.915  12.351  1.00  0.00     0.278 C 
HETATM   16  O6  UNL     1      -9.261  12.945  13.648  1.00  0.00    -0.266 OA
ATOM     17  H3  UNL     1     -10.004  13.930  10.674  1.00  0.00     0.190 HD
BRANCH  15  18
HETATM   18  C17 UNL     1      -8.398  11.905  11.717  1.00  0.00     0.141 A 
HETATM   19  C18 UNL     1      -8.981  10.669  11.379  1.00  0.00     0.140 A 
HETATM   20 CL1  UNL     1     -10.668  10.438  11.750  1.00  0.00    -0.063 Cl
HETATM   21  N4  UNL     1      -8.283   9.686  10.793  1.00  0.00    -0.180 N 
HETATM   22  C19 UNL     1      -6.983   9.821  10.490  1.00  0.00     0.679 A 
ATOM     23  H4  UNL     1      -8.755   8.810  10.571  1.00  0.00     0.185 HD
HETATM   24  N6  UNL     1      -6.414  10.988  10.802  1.00  0.00    -0.155 N 
HETATM   25  C20 UNL     1      -7.075  12.023  11.400  1.00  0.00     0.278 A 
ATOM     26  H6  UNL     1      -5.427  11.114  10.579  1.00  0.00     0.187 HD
HETATM   27  O7  UNL     1      -6.451  13.084  11.656  1.00  0.00    -0.266 OA
BRANCH  22  28
HETATM   28  N5  UNL     1      -6.313   8.878   9.925  1.00  0.00    -0.234 N 
ATOM     29  H52 UNL     1      -6.361   7.917  10.263  1.00  0.00     0.174 HD
ATOM     30  H51 UNL     1      -5.710   9.051   9.123  1.00  0.00     0.174 HD
ENDBRANCH  22  28
ENDBRANCH  15  18
ENDBRANCH  10  14
BRANCH   6  31
HETATM   31  C5  UNL     1     -12.670  19.523  11.016  1.00  0.00     0.199 C 
BRANCH  31  32
HETATM   32  O2  UNL     1     -11.472  20.105  10.816  1.00  0.00    -0.317 OA
BRANCH  32  33
HETATM   33  C6  UNL     1     -10.808  20.762   9.852  1.00  0.00     0.282 C 
HETATM   34  O3  UNL     1     -11.057  20.476   8.657  1.00  0.00    -0.260 OA
BRANCH  33  35
HETATM   35  C7  UNL     1      -9.798  21.807  10.123  1.00  0.00     0.085 C 
HETATM   36  C8  UNL     1      -8.522  21.499  10.089  1.00  0.00     0.043 C 
BRANCH  36  37
HETATM   37  C9  UNL     1      -7.485  22.505  10.351  1.00  0.00     0.077 A 
HETATM   38  C10 UNL     1      -6.538  22.453  11.339  1.00  0.00     0.075 A 
HETATM   39  C11 UNL     1      -5.775  23.606  11.213  1.00  0.00     0.090 A 
HETATM   40  C12 UNL     1      -6.303  24.293  10.150  1.00  0.00     0.179 A 
HETATM   41  O5  UNL     1      -7.303  23.615   9.674  1.00  0.00    -0.320 OA
BRANCH  39  42
HETATM   42  O4  UNL     1      -4.690  23.948  12.034  1.00  0.00    -0.359 OA
ATOM     43  H4  UNL     1      -3.819  24.168  11.725  1.00  0.00     0.217 HD
ENDBRANCH  39  42
ENDBRANCH  36  37
ENDBRANCH  33  35
ENDBRANCH  32  33
ENDBRANCH  31  32
ENDBRANCH   6  31
BRANCH   1  44
HETATM   44  O1  UNL     1     -14.356  13.732   9.891  1.00  0.00    -0.285 OA
HETATM   45  C1  UNL     1     -14.375  12.448   9.266  1.00  0.00     0.237 C 
ENDBRANCH   1  44
TORSDOF 10
ENDMDL
MODEL 2
REMARK VINA RESULT: -7.447600897      5.762      7.624
REMARK  10 active torsions:
REMARK  status: ('A' for Active; 'I' for Inactive)
REMARK    1  A    between atoms: O1_2  and  N1_3 
REMARK    2  A    between atoms: C4_8  and  C5_9 
REMARK    3  A    between atoms: C5_9  and  O2_10 
REMARK    4  A    between atoms: O2_10  and  C6_11 
REMARK    5  A    between atoms: C6_11  and  C7_13 
REMARK    6  A    between atoms: C8_14  and  C9_15 
REMARK    7  A    between atoms: C11_17  and  O4_18 
REMARK    8  A    between atoms: N2_25  and  N3_27 
REMARK       I    between atoms: N3_27  and  C16_29 
REMARK    9  A    between atoms: C16_29  and  C17_31 
REMARK   10  A    between atoms: C19_36  and  N5_37 
ROOT
HETATM    1  N1  UNL     1      -8.265  10.470  12.662  1.00  0.00    -0.274 N 
ATOM      2  H1  UNL     1      -7.924   9.728  12.050  1.00  0.00     0.193 HD
HETATM    3  C2  UNL     1      -7.624  11.575  12.735  1.00  0.00     0.029 C 
HETATM    4  C3  UNL     1      -8.139  12.663  13.644  1.00  0.00     0.130 C 
HETATM    5  S1  UNL     1      -6.833  12.809  14.933  1.00  0.00    -0.151 SA
HETATM    6  C4  UNL     1      -5.294  12.410  14.097  1.00  0.00     0.032 C 
HETATM    7  C13 UNL     1      -5.023  10.946  14.244  1.00  0.00     0.028 C 
HETATM    8  C14 UNL     1      -4.679  10.242  12.973  1.00  0.00     0.056 C 
HETATM    9  C15 UNL     1      -5.567  10.584  11.834  1.00  0.00     0.013 C 
HETATM   10  N2  UNL     1      -5.626   9.842  10.799  1.00  0.00    -0.305 N 
ATOM     11  H2  UNL     1      -5.045   9.004  10.778  1.00  0.00     0.186 HD
HETATM   12  C21 UNL     1      -6.377  11.820  11.953  1.00  0.00     0.083 C 
HETATM   13  C22 UNL     1      -5.459  12.821  12.643  1.00  0.00     0.039 C 
ENDROOT
BRANCH  10  14
HETATM   14  N3  UNL     1      -6.441  10.105   9.687  1.00  0.00    -0.266 N 
HETATM   15  C16 UNL     1      -6.477   9.157   8.660  1.00  0.00     0.278 C 
HETATM   16  O6  UNL     1      -5.741   8.103   8.838  1.00  0.00    -0.266 OA
ATOM     17  H3  UNL     1      -6.991  10.962   9.630  1.00  0.00     0.190 HD
BRANCH  15  18
HETATM   18  C17 UNL     1      -7.253   9.255   7.443  1.00  0.00     0.141 A 
HETATM   19  C18 UNL     1      -8.588   8.810   7.449  1.00  0.00     0.140 A 
HETATM   20 CL1  UNL     1      -9.225   8.168   8.938  1.00  0.00    -0.063 Cl
HETATM   21  N4  UNL     1      -9.365   8.867   6.358  1.00  0.00    -0.180 N 
HETATM   22  C19 UNL     1      -8.916   9.354   5.190  1.00  0.00     0.679 A 
ATOM     23  H4  UNL     1     -10.326   8.530   6.417  1.00  0.00     0.185 HD
HETATM   24  N6  UNL     1      -7.651   9.781   5.167  1.00  0.00    -0.155 N 
HETATM   25  C20 UNL     1      -6.815   9.746   6.247  1.00  0.00     0.278 A 
ATOM     26  H6  UNL     1      -7.289  10.157   4.292  1.00  0.00     0.187 HD
HETATM   27  O7  UNL     1      -5.638  10.172   6.125  1.00  0.00    -0.266 OA
BRANCH  22  28
HETATM   28  N5  UNL     1      -9.662   9.410   4.144  1.00  0.00    -0.234 N 
ATOM     29  H52 UNL     1     -10.659   9.199   4.189  1.00  0.00     0.174 HD
ATOM     30  H51 UNL     1      -9.290   9.664   3.229  1.00  0.00     0.174 HD
ENDBRANCH  22  28
ENDBRANCH  15  18
ENDBRANCH  10  14
BRANCH   6  31
HETATM   31  C5  UNL     1      -4.159  13.226  14.642  1.00  0.00     0.199 C 
BRANCH  31  32
HETATM   32  O2  UNL     1      -3.590  14.202  13.910  1.00  0.00    -0.317 OA
BRANCH  32  33
HETATM   33  C6  UNL     1      -2.649  15.151  14.036  1.00  0.00     0.282 C 
HETATM   34  O3  UNL     1      -1.457  14.843  13.799  1.00  0.00    -0.260 OA
BRANCH  33  35
HETATM   35  C7  UNL     1      -2.941  16.544  14.438  1.00  0.00     0.085 C 
HETATM   36  C8  UNL     1      -2.365  17.537  13.800  1.00  0.00     0.043 C 
BRANCH  36  37
HETATM   37  C9  UNL     1      -2.626  18.935  14.166  1.00  0.00     0.077 A 
HETATM   38  C10 UNL     1      -3.848  19.553  14.181  1.00  0.00     0.075 A 
HETATM   39  C11 UNL     1      -3.622  20.861  14.586  1.00  0.00     0.090 A 
HETATM   40  C12 UNL     1      -2.271  20.962  14.797  1.00  0.00     0.179 A 
HETATM   41  O5  UNL     1      -1.725  19.812  14.539  1.00  0.00    -0.320 OA
BRANCH  39  42
HETATM   42  O4  UNL     1      -4.615  21.841  14.736  1.00  0.00    -0.359 OA
ATOM     43  H4  UNL     1      -4.475  22.709  15.095  1.00  0.00     0.217 HD
ENDBRANCH  39  42
ENDBRANCH  36  37
ENDBRANCH  33  35
ENDBRANCH  32  33
ENDBRANCH  31  32
ENDBRANCH   6  31
BRANCH   1  44
HETATM   44  O1  UNL     1      -9.390  10.275  13.387  1.00  0.00    -0.285 OA
HETATM   45  C1  UNL     1     -10.636   9.935  12.779  1.00  0.00     0.237 C 
ENDBRANCH   1  44
TORSDOF 10
ENDMDL
MODEL 3
REMARK VINA RESULT: -7.311469036     12.583     15.641
REMARK  10 active torsions:
REMARK  status: ('A' for Active; 'I' for Inactive)
REMARK    1  A    between atoms: O1_2  and  N1_3 
REMARK    2  A    between atoms: C4_8  and  C5_9 
REMARK    3  A    between atoms: C5_9  and  O2_10 
REMARK    4  A    between atoms: O2_10  and  C6_11 
REMARK    5  A    between atoms: C6_11  and  C7_13 
REMARK    6  A    between atoms: C8_14  and  C9_15 
REMARK    7  A    between atoms: C11_17  and  O4_18 
REMARK    8  A    between atoms: N2_25  and  N3_27 
REMARK       I    between atoms: N3_27  and  C16_29 
REMARK    9  A    between atoms: C16_29  and  C17_31 
REMARK   10  A    between atoms: C19_36  and  N5_37 
ROOT
HETATM    1  N1  UNL     1      -2.345   9.345  22.511  1.00  0.00    -0.274 N 
ATOM      2  H1  UNL     1      -3.014   9.781  21.875  1.00  0.00     0.193 HD
HETATM    3  C2  UNL     1      -1.092   9.429  22.265  1.00  0.00     0.029 C 
HETATM    4  C3  UNL     1      -0.113   8.781  23.213  1.00  0.00     0.130 C 
HETATM    5  S1  UNL     1       0.651   7.444  22.202  1.00  0.00    -0.151 SA
HETATM    6  C4  UNL     1       0.665   8.070  20.519  1.00  0.00     0.032 C 
HETATM    7  C13 UNL     1      -0.586   7.634  19.824  1.00  0.00     0.028 C 
HETATM    8  C14 UNL     1      -1.317   8.721  19.110  1.00  0.00     0.056 C 
HETATM    9  C15 UNL     1      -1.466   9.969  19.900  1.00  0.00     0.013 C 
HETATM   10  N2  UNL     1      -2.332  10.850  19.584  1.00  0.00    -0.305 N 
ATOM     11  H2  UNL     1      -2.922  10.670  18.772  1.00  0.00     0.186 HD
HETATM   12  C21 UNL     1      -0.567  10.145  21.066  1.00  0.00     0.083 C 
HETATM   13  C22 UNL     1       0.774   9.583  20.609  1.00  0.00     0.039 C 
ENDROOT
BRANCH  10  14
HETATM   14  N3  UNL     1      -2.525  12.051  20.284  1.00  0.00    -0.266 N 
HETATM   15  C16 UNL     1      -2.047  13.232  19.709  1.00  0.00     0.278 C 
HETATM   16  O6  UNL     1      -1.459  13.102  18.559  1.00  0.00    -0.266 OA
ATOM     17  H3  UNL     1      -3.001  12.062  21.186  1.00  0.00     0.190 HD
BRANCH  15  18
HETATM   18  C17 UNL     1      -2.152  14.556  20.280  1.00  0.00     0.141 A 
HETATM   19  C18 UNL     1      -3.305  15.320  20.021  1.00  0.00     0.140 A 
HETATM   20 CL1  UNL     1      -4.544  14.609  19.022  1.00  0.00    -0.063 Cl
HETATM   21  N4  UNL     1      -3.470  16.556  20.514  1.00  0.00    -0.180 N 
HETATM   22  C19 UNL     1      -2.542  17.141  21.287  1.00  0.00     0.679 A 
ATOM     23  H4  UNL     1      -4.325  17.066  20.294  1.00  0.00     0.185 HD
HETATM   24  N6  UNL     1      -1.442  16.431  21.544  1.00  0.00    -0.155 N 
HETATM   25  C20 UNL     1      -1.221  15.169  21.068  1.00  0.00     0.278 A 
ATOM     26  H6  UNL     1      -0.724  16.854  22.131  1.00  0.00     0.187 HD
HETATM   27  O7  UNL     1      -0.150  14.580  21.365  1.00  0.00    -0.266 OA
BRANCH  22  28
HETATM   28  N5  UNL     1      -2.701  18.327  21.761  1.00  0.00    -0.234 N 
ATOM     29  H52 UNL     1      -3.552  18.860  21.586  1.00  0.00     0.174 HD
ATOM     30  H51 UNL     1      -1.986  18.782  22.328  1.00  0.00     0.174 HD
ENDBRANCH  22  28
ENDBRANCH  15  18
ENDBRANCH  10  14
BRANCH   6  31
HETATM   31  C5  UNL     1       1.884   7.600  19.782  1.00  0.00     0.199 C 
BRANCH  31  32
HETATM   32  O2  UNL     1       2.266   8.180  18.628  1.00  0.00    -0.317 OA
BRANCH  32  33
HETATM   33  C6  UNL     1       1.861   8.268  17.351  1.00  0.00     0.282 C 
HETATM   34  O3  UNL     1       1.436   7.232  16.788  1.00  0.00    -0.260 OA
BRANCH  33  35
HETATM   35  C7  UNL     1       1.887   9.523  16.570  1.00  0.00     0.085 C 
HETATM   36  C8  UNL     1       0.823  10.292  16.544  1.00  0.00     0.043 C 
BRANCH  36  37
HETATM   37  C9  UNL     1       0.804  11.547  15.782  1.00  0.00     0.077 A 
HETATM   38  C10 UNL     1       1.899  12.248  15.351  1.00  0.00     0.075 A 
HETATM   39  C11 UNL     1       1.413  13.360  14.677  1.00  0.00     0.090 A 
HETATM   40  C12 UNL     1       0.047  13.270  14.736  1.00  0.00     0.179 A 
HETATM   41  O5  UNL     1      -0.269  12.193  15.392  1.00  0.00    -0.320 OA
BRANCH  39  42
HETATM   42  O4  UNL     1       2.207  14.347  14.074  1.00  0.00    -0.359 OA
ATOM     43  H4  UNL     1       2.437  14.375  13.152  1.00  0.00     0.217 HD
ENDBRANCH  39  42
ENDBRANCH  36  37
ENDBRANCH  33  35
ENDBRANCH  32  33
ENDBRANCH  31  32
ENDBRANCH   6  31
BRANCH   1  44
HETATM   44  O1  UNL     1      -2.791   8.686  23.604  1.00  0.00    -0.285 OA
HETATM   45  C1  UNL     1      -3.684   7.576  23.509  1.00  0.00     0.237 C 
ENDBRANCH   1  44
TORSDOF 10
ENDMDL
MODEL 4
REMARK VINA RESULT: -7.218051577      7.137      9.312
REMARK  10 active torsions:
REMARK  status: ('A' for Active; 'I' for Inactive)
REMARK    1  A    between atoms: O1_2  and  N1_3 
REMARK    2  A    between atoms: C4_8  and  C5_9 
REMARK    3  A    between atoms: C5_9  and  O2_10 
REMARK    4  A    between atoms: O2_10  and  C6_11 
REMARK    5  A    between atoms: C6_11  and  C7_13 
REMARK    6  A    between atoms: C8_14  and  C9_15 
REMARK    7  A    between atoms: C11_17  and  O4_18 
REMARK    8  A    between atoms: N2_25  and  N3_27 
REMARK       I    between atoms: N3_27  and  C16_29 
REMARK    9  A    between atoms: C16_29  and  C17_31 
REMARK   10  A    between atoms: C19_36  and  N5_37 
ROOT
HETATM    1  N1  UNL     1      -8.941  10.242  11.696  1.00  0.00    -0.274 N 
ATOM      2  H1  UNL     1      -8.545   9.524  11.090  1.00  0.00     0.193 HD
HETATM    3  C2  UNL     1      -8.307  11.339  11.875  1.00  0.00     0.029 C 
HETATM    4  C3  UNL     1      -8.904  12.394  12.774  1.00  0.00     0.130 C 
HETATM    5  S1  UNL     1      -7.727  12.479  14.187  1.00  0.00    -0.151 SA
HETATM    6  C4  UNL     1      -6.116  12.104  13.486  1.00  0.00     0.032 C 
HETATM    7  C13 UNL     1      -5.865  10.633  13.598  1.00  0.00     0.028 C 
HETATM    8  C14 UNL     1      -5.402   9.979  12.339  1.00  0.00     0.056 C 
HETATM    9  C15 UNL     1      -6.176  10.372  11.135  1.00  0.00     0.013 C 
HETATM   10  N2  UNL     1      -6.138   9.673  10.070  1.00  0.00    -0.305 N 
ATOM     11  H2  UNL     1      -5.560   8.833  10.071  1.00  0.00     0.186 HD
HETATM   12  C21 UNL     1      -6.991  11.607  11.226  1.00  0.00     0.083 C 
HETATM   13  C22 UNL     1      -6.141  12.574  12.041  1.00  0.00     0.039 C 
ENDROOT
BRANCH  10  14
HETATM   14  N3  UNL     1      -6.842   9.985   8.896  1.00  0.00    -0.266 N 
HETATM   15  C16 UNL     1      -7.244   8.931   8.070  1.00  0.00     0.278 C 
HETATM   16  O6  UNL     1      -6.923   7.741   8.477  1.00  0.00    -0.266 OA
ATOM     17  H3  UNL     1      -7.054  10.953   8.654  1.00  0.00     0.190 HD
BRANCH  15  18
HETATM   18  C17 UNL     1      -7.972   9.059   6.827  1.00  0.00     0.141 A 
HETATM   19  C18 UNL     1      -9.308   8.618   6.773  1.00  0.00     0.140 A 
HETATM   20 CL1  UNL     1     -10.002   7.945   8.223  1.00  0.00    -0.063 Cl
HETATM   21  N4  UNL     1     -10.043   8.702   5.655  1.00  0.00    -0.180 N 
HETATM   22  C19 UNL     1      -9.549   9.213   4.516  1.00  0.00     0.679 A 
ATOM     23  H4  UNL     1     -11.006   8.366   5.670  1.00  0.00     0.185 HD
HETATM   24  N6  UNL     1      -8.284   9.637   4.551  1.00  0.00    -0.155 N 
HETATM   25  C20 UNL     1      -7.489   9.575   5.660  1.00  0.00     0.278 A 
ATOM     26  H6  UNL     1      -7.887  10.031   3.698  1.00  0.00     0.187 HD
HETATM   27  O7  UNL     1      -6.307  10.000   5.593  1.00  0.00    -0.266 OA
BRANCH  22  28
HETATM   28  N5  UNL     1     -10.255   9.295   3.444  1.00  0.00    -0.234 N 
ATOM     29  H52 UNL     1     -11.243   9.042   3.437  1.00  0.00     0.174 HD
ATOM     30  H51 UNL     1      -9.859   9.612   2.560  1.00  0.00     0.174 HD
ENDBRANCH  22  28
ENDBRANCH  15  18
ENDBRANCH  10  14
BRANCH   6  31
HETATM   31  C5  UNL     1      -5.037  12.890  14.170  1.00  0.00     0.199 C 
BRANCH  31  32
HETATM   32  O2  UNL     1      -4.893  12.854  15.508  1.00  0.00    -0.317 OA
BRANCH  32  33
HETATM   33  C6  UNL     1      -3.963  13.124  16.439  1.00  0.00     0.282 C 
HETATM   34  O3  UNL     1      -4.318  13.162  17.640  1.00  0.00    -0.260 OA
BRANCH  33  35
HETATM   35  C7  UNL     1      -2.540  13.376  16.124  1.00  0.00     0.085 C 
HETATM   36  C8  UNL     1      -1.775  12.380  15.742  1.00  0.00     0.043 C 
BRANCH  36  37
HETATM   37  C9  UNL     1      -0.357  12.585  15.420  1.00  0.00     0.077 A 
HETATM   38  C10 UNL     1       0.170  13.642  14.727  1.00  0.00     0.075 A 
HETATM   39  C11 UNL     1       1.539  13.424  14.660  1.00  0.00     0.090 A 
HETATM   40  C12 UNL     1       1.766  12.243  15.319  1.00  0.00     0.179 A 
HETATM   41  O5  UNL     1       0.629  11.784  15.748  1.00  0.00    -0.320 OA
BRANCH  39  42
HETATM   42  O4  UNL     1       2.461  14.275  14.032  1.00  0.00    -0.359 OA
ATOM     43  H4  UNL     1       3.385  14.331  14.245  1.00  0.00     0.217 HD
ENDBRANCH  39  42
ENDBRANCH  36  37
ENDBRANCH  33  35
ENDBRANCH  32  33
ENDBRANCH  31  32
ENDBRANCH   6  31
BRANCH   1  44
HETATM   44  O1  UNL     1     -10.131  10.026  12.301  1.00  0.00    -0.285 OA
HETATM   45  C1  UNL     1     -11.319   9.745  11.562  1.00  0.00     0.237 C 
ENDBRANCH   1  44
TORSDOF 10
ENDMDL
MODEL 5
REMARK VINA RESULT: -7.129429568      7.424      9.431
REMARK  10 active torsions:
REMARK  status: ('A' for Active; 'I' for Inactive)
REMARK    1  A    between atoms: O1_2  and  N1_3 
REMARK    2  A    between atoms: C4_8  and  C5_9 
REMARK    3  A    between atoms: C5_9  and  O2_10 
REMARK    4  A    between atoms: O2_10  and  C6_11 
REMARK    5  A    between atoms: C6_11  and  C7_13 
REMARK    6  A    between atoms: C8_14  and  C9_15 
REMARK    7  A    between atoms: C11_17  and  O4_18 
REMARK    8  A    between atoms: N2_25  and  N3_27 
REMARK       I    between atoms: N3_27  and  C16_29 
REMARK    9  A    between atoms: C16_29  and  C17_31 
REMARK   10  A    between atoms: C19_36  and  N5_37 
ROOT
HETATM    1  N1  UNL     1      -8.929   9.857  11.840  1.00  0.00    -0.274 N 
ATOM      2  H1  UNL     1      -8.533   9.209  11.160  1.00  0.00     0.193 HD
HETATM    3  C2  UNL     1      -8.392  11.006  12.007  1.00  0.00     0.029 C 
HETATM    4  C3  UNL     1      -8.988  11.956  13.017  1.00  0.00     0.130 C 
HETATM    5  S1  UNL     1      -7.675  12.107  14.300  1.00  0.00    -0.151 SA
HETATM    6  C4  UNL     1      -6.123  11.931  13.414  1.00  0.00     0.032 C 
HETATM    7  C13 UNL     1      -5.715  10.491  13.424  1.00  0.00     0.028 C 
HETATM    8  C14 UNL     1      -5.332   9.940  12.091  1.00  0.00     0.056 C 
HETATM    9  C15 UNL     1      -6.270  10.298  10.997  1.00  0.00     0.013 C 
HETATM   10  N2  UNL     1      -6.280   9.649   9.900  1.00  0.00    -0.305 N 
ATOM     11  H2  UNL     1      -5.625   8.875   9.796  1.00  0.00     0.186 HD
HETATM   12  C21 UNL     1      -7.189  11.436  11.237  1.00  0.00     0.083 C 
HETATM   13  C22 UNL     1      -6.354  12.453  12.006  1.00  0.00     0.039 C 
ENDROOT
BRANCH  10  14
HETATM   14  N3  UNL     1      -7.138   9.933   8.825  1.00  0.00    -0.266 N 
HETATM   15  C16 UNL     1      -7.453   8.895   7.943  1.00  0.00     0.278 C 
HETATM   16  O6  UNL     1      -6.914   7.745   8.209  1.00  0.00    -0.266 OA
ATOM     17  H3  UNL     1      -7.519  10.870   8.691  1.00  0.00     0.190 HD
BRANCH  15  18
HETATM   18  C17 UNL     1      -8.312   8.998   6.785  1.00  0.00     0.141 A 
HETATM   19  C18 UNL     1      -7.798   9.563   5.603  1.00  0.00     0.140 A 
HETATM   20 CL1  UNL     1      -6.141  10.104   5.614  1.00  0.00    -0.063 Cl
HETATM   21  N4  UNL     1      -8.537   9.694   4.492  1.00  0.00    -0.180 N 
HETATM   22  C19 UNL     1      -9.816   9.292   4.439  1.00  0.00     0.679 A 
ATOM     23  H4  UNL     1      -8.114  10.112   3.663  1.00  0.00     0.185 HD
HETATM   24  N6  UNL     1     -10.320   8.752   5.551  1.00  0.00    -0.155 N 
HETATM   25  C20 UNL     1      -9.615   8.596   6.710  1.00  0.00     0.278 A 
ATOM     26  H6  UNL     1     -11.290   8.438   5.533  1.00  0.00     0.187 HD
HETATM   27  O7  UNL     1     -10.179   8.076   7.706  1.00  0.00    -0.266 OA
BRANCH  22  28
HETATM   28  N5  UNL     1     -10.525   9.416   3.372  1.00  0.00    -0.234 N 
ATOM     29  H52 UNL     1     -11.103  10.241   3.211  1.00  0.00     0.174 HD
ATOM     30  H51 UNL     1     -10.541   8.699   2.648  1.00  0.00     0.174 HD
ENDBRANCH  22  28
ENDBRANCH  15  18
ENDBRANCH  10  14
BRANCH   6  31
HETATM   31  C5  UNL     1      -5.058  12.797  14.019  1.00  0.00     0.199 C 
BRANCH  31  32
HETATM   32  O2  UNL     1      -4.955  12.943  15.353  1.00  0.00    -0.317 OA
BRANCH  32  33
HETATM   33  C6  UNL     1      -4.038  13.287  16.272  1.00  0.00     0.282 C 
HETATM   34  O3  UNL     1      -4.409  13.426  17.461  1.00  0.00    -0.260 OA
BRANCH  33  35
HETATM   35  C7  UNL     1      -2.610  13.510  15.958  1.00  0.00     0.085 C 
HETATM   36  C8  UNL     1      -1.833  12.480  15.712  1.00  0.00     0.043 C 
BRANCH  36  37
HETATM   37  C9  UNL     1      -0.410  12.655  15.395  1.00  0.00     0.077 A 
HETATM   38  C10 UNL     1       0.143  13.702  14.708  1.00  0.00     0.075 A 
HETATM   39  C11 UNL     1       1.508  13.454  14.645  1.00  0.00     0.090 A 
HETATM   40  C12 UNL     1       1.706  12.267  15.301  1.00  0.00     0.179 A 
HETATM   41  O5  UNL     1       0.557  11.831  15.725  1.00  0.00    -0.320 OA
BRANCH  39  42
HETATM   42  O4  UNL     1       2.451  14.287  14.024  1.00  0.00    -0.359 OA
ATOM     43  H4  UNL     1       3.364  14.068  13.883  1.00  0.00     0.217 HD
ENDBRANCH  39  42
ENDBRANCH  36  37
ENDBRANCH  33  35
ENDBRANCH  32  33
ENDBRANCH  31  32
ENDBRANCH   6  31
BRANCH   1  44
HETATM   44  O1  UNL     1     -10.017   9.494  12.557  1.00  0.00    -0.285 OA
HETATM   45  C1  UNL     1     -11.132   8.831  11.961  1.00  0.00     0.237 C 
ENDBRANCH   1  44
TORSDOF 10
ENDMDL
