MODEL 1
REMARK VINA RESULT: -5.828505001      0.000      0.000
REMARK  12 active torsions:
REMARK  status: ('A' for Active; 'I' for Inactive)
REMARK    1  A    between atoms: N1_1  and  C1_4 
REMARK    2  A    between atoms: C2_7  and  N3_8 
REMARK    3  A    between atoms: C9_19  and  N5_20 
REMARK    4  A    between atoms: C11_22  and  C12_23 
REMARK    5  A    between atoms: C12_23  and  N6_24 
REMARK    6  A    between atoms: N6_24  and  C13_26 
REMARK    7  A    between atoms: C13_26  and  C14_27 
REMARK    8  A    between atoms: C16_29  and  C17_30 
REMARK    9  A    between atoms: C16_29  and  C18_33 
REMARK   10  A    between atoms: C17_30  and  O1_31 
REMARK   11  A    between atoms: C18_33  and  O2_34 
REMARK   12  A    between atoms: C19_37  and  C20_38 
ROOT
HETATM    1  N5  UNL     1      -7.376  12.209  13.793  1.00  0.00    -0.257 N 
HETATM    2  C10 UNL     1      -6.092  12.267  13.420  1.00  0.00     0.149 A 
HETATM    3  C11 UNL     1      -6.079  10.914  13.181  1.00  0.00     0.081 A 
HETATM    4  N8  UNL     1      -7.348  10.909  13.559  1.00  0.00    -0.291 N 
ATOM      5  H8  UNL     1      -8.048  10.172  13.639  1.00  0.00     0.187 HD
ENDROOT
BRANCH   3   6
HETATM    6  C12 UNL     1      -5.096   9.850  12.707  1.00  0.00     0.119 C 
BRANCH   6   7
HETATM    7  N6  UNL     1      -5.314   9.542  11.375  1.00  0.00    -0.376 N 
ATOM      8  H6  UNL     1      -4.982  10.228  10.697  1.00  0.00     0.164 HD
BRANCH   7   9
HETATM    9  C13 UNL     1      -5.921   8.428  10.854  1.00  0.00     0.068 C 
BRANCH   9  10
HETATM   10  C14 UNL     1      -6.661   8.511   9.571  1.00  0.00     0.064 C 
HETATM   11  C15 UNL     1      -5.895   8.405   8.317  1.00  0.00     0.055 C 
HETATM   12  C16 UNL     1      -6.621   9.329   7.371  1.00  0.00     0.105 C 
HETATM   13  O3  UNL     1      -7.429  10.150   8.108  1.00  0.00    -0.362 OA
HETATM   14  C19 UNL     1      -7.315   9.885   9.441  1.00  0.00     0.206 C 
BRANCH  12  15
HETATM   15  C17 UNL     1      -7.576   8.443   6.544  1.00  0.00     0.204 C 
BRANCH  15  16
HETATM   16  O1  UNL     1      -8.811   9.056   6.500  1.00  0.00    -0.398 OA
ATOM     17  H1  UNL     1      -9.328   8.642   5.819  1.00  0.00     0.209 HD
ENDBRANCH  15  16
ENDBRANCH  12  15
BRANCH  12  18
HETATM   18  C18 UNL     1      -5.745  10.007   6.367  1.00  0.00     0.204 C 
BRANCH  18  19
HETATM   19  O2  UNL     1      -6.500  10.482   5.310  1.00  0.00    -0.398 OA
ATOM     20  H2  UNL     1      -6.350   9.957   4.533  1.00  0.00     0.209 HD
ENDBRANCH  18  19
ENDBRANCH  12  18
BRANCH  14  21
HETATM   21  C20 UNL     1      -8.665   9.797  10.046  1.00  0.00     0.153 A 
HETATM   22  N7  UNL     1      -9.785   9.443   9.401  1.00  0.00    -0.346 N 
HETATM   23  C21 UNL     1     -10.825   9.464  10.232  1.00  0.00     0.114 A 
ATOM     24  H7  UNL     1      -9.835   9.192   8.414  1.00  0.00     0.167 HD
HETATM   25  C22 UNL     1     -10.311   9.856  11.456  1.00  0.00     0.161 A 
HETATM   26  O4  UNL     1      -9.024  10.039  11.288  1.00  0.00    -0.306 OA
ENDBRANCH  14  21
ENDBRANCH   9  10
ENDBRANCH   7   9
ENDBRANCH   6   7
ENDBRANCH   3   6
BRANCH   1  27
HETATM   27  C9  UNL     1      -8.307  13.186  14.243  1.00  0.00     0.114 A 
HETATM   28  S1  UNL     1      -8.612  13.745  15.842  1.00  0.00    -0.055 SA
HETATM   29  C8  UNL     1      -9.833  14.869  15.512  1.00  0.00     0.105 A 
HETATM   30  C7  UNL     1      -9.985  14.791  14.147  1.00  0.00     0.094 A 
HETATM   31 CL1  UNL     1     -10.694  15.894  16.676  1.00  0.00    -0.074 Cl
HETATM   32  N4  UNL     1     -10.899  15.556  13.452  1.00  0.00    -0.188 N 
HETATM   33  C23 UNL     1      -9.203  13.927  13.496  1.00  0.00     0.073 A 
HETATM   34  C2  UNL     1     -11.058  15.488  12.126  1.00  0.00     0.682 A 
ATOM     35  H4  UNL     1     -11.483  16.206  13.976  1.00  0.00     0.184 HD
HETATM   36  N2  UNL     1     -10.266  14.612  11.452  1.00  0.00    -0.176 N 
HETATM   37  C1  UNL     1      -9.367  13.853  12.095  1.00  0.00     0.130 A 
ATOM     38  H2  UNL     1     -10.358  14.530  10.440  1.00  0.00     0.186 HD
BRANCH  34  39
HETATM   39  N3  UNL     1     -12.003  16.279  11.429  1.00  0.00    -0.218 N 
HETATM   40  C3  UNL     1     -12.453  17.594  11.819  1.00  0.00     0.141 C 
HETATM   41  C4  UNL     1     -12.361  18.334  10.483  1.00  0.00     0.022 C 
HETATM   42  C5  UNL     1     -12.997  17.294   9.556  1.00  0.00     0.022 C 
HETATM   43  C6  UNL     1     -12.707  15.960  10.214  1.00  0.00     0.141 C 
ENDBRANCH  34  39
BRANCH  37  44
HETATM   44  N1  UNL     1      -8.644  13.042  11.397  1.00  0.00    -0.384 N 
ATOM     45  H12 UNL     1      -7.990  13.403  10.701  1.00  0.00     0.157 HD
ATOM     46  H11 UNL     1      -8.748  12.041  11.562  1.00  0.00     0.157 HD
ENDBRANCH  37  44
ENDBRANCH   1  27
TORSDOF 12
ENDMDL
MODEL 2
REMARK VINA RESULT: -5.649956716      9.406     12.236
REMARK  12 active torsions:
REMARK  status: ('A' for Active; 'I' for Inactive)
REMARK    1  A    between atoms: N1_1  and  C1_4 
REMARK    2  A    between atoms: C2_7  and  N3_8 
REMARK    3  A    between atoms: C9_19  and  N5_20 
REMARK    4  A    between atoms: C11_22  and  C12_23 
REMARK    5  A    between atoms: C12_23  and  N6_24 
REMARK    6  A    between atoms: N6_24  and  C13_26 
REMARK    7  A    between atoms: C13_26  and  C14_27 
REMARK    8  A    between atoms: C16_29  and  C17_30 
REMARK    9  A    between atoms: C16_29  and  C18_33 
REMARK   10  A    between atoms: C17_30  and  O1_31 
REMARK   11  A    between atoms: C18_33  and  O2_34 
REMARK   12  A    between atoms: C19_37  and  C20_38 
ROOT
HETATM    1  N5  UNL     1      -5.251  17.886  20.173  1.00  0.00    -0.257 N 
HETATM    2  C10 UNL     1      -4.874  18.694  19.176  1.00  0.00     0.149 A 
HETATM    3  C11 UNL     1      -6.165  19.142  19.024  1.00  0.00     0.081 A 
HETATM    4  N8  UNL     1      -6.486  18.326  20.016  1.00  0.00    -0.291 N 
ATOM      5  H8  UNL     1      -7.365  18.115  20.487  1.00  0.00     0.187 HD
ENDROOT
BRANCH   3   6
HETATM    6  C12 UNL     1      -6.936  20.117  18.143  1.00  0.00     0.119 C 
BRANCH   6   7
HETATM    7  N6  UNL     1      -6.070  20.971  17.483  1.00  0.00    -0.376 N 
ATOM      8  H6  UNL     1      -5.355  21.415  18.058  1.00  0.00     0.164 HD
BRANCH   7   9
HETATM    9  C13 UNL     1      -6.054  21.293  16.150  1.00  0.00     0.068 C 
BRANCH   9  10
HETATM   10  C14 UNL     1      -5.244  20.494  15.198  1.00  0.00     0.064 C 
HETATM   11  C15 UNL     1      -4.096  19.736  15.726  1.00  0.00     0.055 C 
HETATM   12  C16 UNL     1      -3.076  19.805  14.616  1.00  0.00     0.105 C 
HETATM   13  O3  UNL     1      -3.441  20.806  13.759  1.00  0.00    -0.362 OA
HETATM   14  C19 UNL     1      -4.584  21.421  14.178  1.00  0.00     0.206 C 
BRANCH  12  15
HETATM   15  C17 UNL     1      -3.221  18.498  13.809  1.00  0.00     0.204 C 
BRANCH  15  16
HETATM   16  O1  UNL     1      -1.991  17.876  13.761  1.00  0.00    -0.398 OA
ATOM     17  H1  UNL     1      -1.652  17.812  14.646  1.00  0.00     0.209 HD
ENDBRANCH  15  16
ENDBRANCH  12  15
BRANCH  12  18
HETATM   18  C18 UNL     1      -1.654  19.828  15.077  1.00  0.00     0.204 C 
BRANCH  18  19
HETATM   19  O2  UNL     1      -0.832  20.329  14.084  1.00  0.00    -0.398 OA
ATOM     20  H2  UNL     1      -0.567  21.218  14.290  1.00  0.00     0.209 HD
ENDBRANCH  18  19
ENDBRANCH  12  18
BRANCH  14  21
HETATM   21  C20 UNL     1      -5.516  21.566  13.036  1.00  0.00     0.153 A 
HETATM   22  N7  UNL     1      -5.699  22.682  12.317  1.00  0.00    -0.346 N 
HETATM   23  C21 UNL     1      -6.606  22.476  11.364  1.00  0.00     0.114 A 
ATOM     24  H7  UNL     1      -5.212  23.563  12.476  1.00  0.00     0.167 HD
HETATM   25  C22 UNL     1      -7.002  21.158  11.510  1.00  0.00     0.161 A 
HETATM   26  O4  UNL     1      -6.323  20.665  12.517  1.00  0.00    -0.306 OA
ENDBRANCH  14  21
ENDBRANCH   9  10
ENDBRANCH   7   9
ENDBRANCH   6   7
ENDBRANCH   3   6
BRANCH   1  27
HETATM   27  C9  UNL     1      -4.550  16.966  21.002  1.00  0.00     0.114 A 
HETATM   28  S1  UNL     1      -4.163  17.084  22.675  1.00  0.00    -0.055 SA
HETATM   29  C8  UNL     1      -3.342  15.617  22.871  1.00  0.00     0.105 A 
HETATM   30  C7  UNL     1      -3.384  15.052  21.617  1.00  0.00     0.094 A 
HETATM   31 CL1  UNL     1      -2.613  14.984  24.358  1.00  0.00    -0.074 Cl
HETATM   32  N4  UNL     1      -2.818  13.827  21.330  1.00  0.00    -0.188 N 
HETATM   33  C23 UNL     1      -4.003  15.744  20.658  1.00  0.00     0.073 A 
HETATM   34  C2  UNL     1      -2.850  13.268  20.116  1.00  0.00     0.682 A 
ATOM     35  H4  UNL     1      -2.351  13.322  22.083  1.00  0.00     0.184 HD
HETATM   36  N2  UNL     1      -3.479  13.964  19.132  1.00  0.00    -0.176 N 
HETATM   37  C1  UNL     1      -4.040  15.157  19.374  1.00  0.00     0.130 A 
ATOM     38  H2  UNL     1      -3.524  13.571  18.191  1.00  0.00     0.186 HD
BRANCH  34  39
HETATM   39  N3  UNL     1      -2.261  12.011  19.839  1.00  0.00    -0.218 N 
HETATM   40  C3  UNL     1      -2.305  11.319  18.574  1.00  0.00     0.141 C 
HETATM   41  C4  UNL     1      -0.841  10.901  18.427  1.00  0.00     0.022 C 
HETATM   42  C5  UNL     1      -0.567  10.381  19.841  1.00  0.00     0.022 C 
HETATM   43  C6  UNL     1      -1.510  11.165  20.731  1.00  0.00     0.141 C 
ENDBRANCH  34  39
BRANCH  37  44
HETATM   44  N1  UNL     1      -4.624  15.766  18.396  1.00  0.00    -0.384 N 
ATOM     45  H12 UNL     1      -4.313  15.614  17.436  1.00  0.00     0.157 HD
ATOM     46  H11 UNL     1      -5.395  16.397  18.614  1.00  0.00     0.157 HD
ENDBRANCH  37  44
ENDBRANCH   1  27
TORSDOF 12
ENDMDL
MODEL 3
REMARK VINA RESULT: -5.592658256      9.469     12.380
REMARK  12 active torsions:
REMARK  status: ('A' for Active; 'I' for Inactive)
REMARK    1  A    between atoms: N1_1  and  C1_4 
REMARK    2  A    between atoms: C2_7  and  N3_8 
REMARK    3  A    between atoms: C9_19  and  N5_20 
REMARK    4  A    between atoms: C11_22  and  C12_23 
REMARK    5  A    between atoms: C12_23  and  N6_24 
REMARK    6  A    between atoms: N6_24  and  C13_26 
REMARK    7  A    between atoms: C13_26  and  C14_27 
REMARK    8  A    between atoms: C16_29  and  C17_30 
REMARK    9  A    between atoms: C16_29  and  C18_33 
REMARK   10  A    between atoms: C17_30  and  O1_31 
REMARK   11  A    between atoms: C18_33  and  O2_34 
REMARK   12  A    between atoms: C19_37  and  C20_38 
ROOT
HETATM    1  N5  UNL     1      -7.022  18.185  19.493  1.00  0.00    -0.257 N 
HETATM    2  C10 UNL     1      -7.998  19.100  19.496  1.00  0.00     0.149 A 
HETATM    3  C11 UNL     1      -7.237  19.944  18.722  1.00  0.00     0.081 A 
HETATM    4  N8  UNL     1      -6.303  19.006  18.749  1.00  0.00    -0.291 N 
ATOM      5  H8  UNL     1      -5.369  18.941  18.344  1.00  0.00     0.187 HD
ENDROOT
BRANCH   3   6
HETATM    6  C12 UNL     1      -7.352  21.326  18.093  1.00  0.00     0.119 C 
BRANCH   6   7
HETATM    7  N6  UNL     1      -7.134  21.263  16.727  1.00  0.00    -0.376 N 
ATOM      8  H6  UNL     1      -7.868  20.818  16.178  1.00  0.00     0.164 HD
BRANCH   7   9
HETATM    9  C13 UNL     1      -6.052  21.726  16.022  1.00  0.00     0.068 C 
BRANCH   9  10
HETATM   10  C14 UNL     1      -5.297  20.813  15.130  1.00  0.00     0.064 C 
HETATM   11  C15 UNL     1      -4.201  20.019  15.712  1.00  0.00     0.055 C 
HETATM   12  C16 UNL     1      -3.179  19.946  14.604  1.00  0.00     0.105 C 
HETATM   13  O3  UNL     1      -3.478  20.908  13.680  1.00  0.00    -0.362 OA
HETATM   14  C19 UNL     1      -4.578  21.623  14.052  1.00  0.00     0.206 C 
BRANCH  12  15
HETATM   15  C17 UNL     1      -3.410  18.599  13.887  1.00  0.00     0.204 C 
BRANCH  15  16
HETATM   16  O1  UNL     1      -2.204  17.937  13.804  1.00  0.00    -0.398 OA
ATOM     17  H1  UNL     1      -1.767  18.206  13.004  1.00  0.00     0.209 HD
ENDBRANCH  15  16
ENDBRANCH  12  15
BRANCH  12  18
HETATM   18  C18 UNL     1      -1.758  19.906  15.067  1.00  0.00     0.204 C 
BRANCH  18  19
HETATM   19  O2  UNL     1      -0.908  20.301  14.051  1.00  0.00    -0.398 OA
ATOM     20  H2  UNL     1      -0.002  20.175  14.309  1.00  0.00     0.209 HD
ENDBRANCH  18  19
ENDBRANCH  12  18
BRANCH  14  21
HETATM   21  C20 UNL     1      -5.500  21.751  12.900  1.00  0.00     0.153 A 
HETATM   22  N7  UNL     1      -6.242  20.762  12.383  1.00  0.00    -0.346 N 
HETATM   23  C21 UNL     1      -6.960  21.209  11.355  1.00  0.00     0.114 A 
ATOM     24  H7  UNL     1      -6.255  19.802  12.728  1.00  0.00     0.167 HD
HETATM   25  C22 UNL     1      -6.637  22.549  11.235  1.00  0.00     0.161 A 
HETATM   26  O4  UNL     1      -5.767  22.818  12.177  1.00  0.00    -0.306 OA
ENDBRANCH  14  21
ENDBRANCH   9  10
ENDBRANCH   7   9
ENDBRANCH   6   7
ENDBRANCH   3   6
BRANCH   1  27
HETATM   27  C9  UNL     1      -6.892  16.894  20.077  1.00  0.00     0.114 A 
HETATM   28  S1  UNL     1      -8.073  15.653  20.248  1.00  0.00    -0.055 SA
HETATM   29  C8  UNL     1      -7.130  14.483  21.027  1.00  0.00     0.105 A 
HETATM   30  C7  UNL     1      -5.897  15.083  21.142  1.00  0.00     0.094 A 
HETATM   31 CL1  UNL     1      -7.641  12.869  21.557  1.00  0.00    -0.074 Cl
HETATM   32  N4  UNL     1      -4.816  14.462  21.731  1.00  0.00    -0.188 N 
HETATM   33  C23 UNL     1      -5.775  16.320  20.654  1.00  0.00     0.073 A 
HETATM   34  C2  UNL     1      -3.613  15.035  21.850  1.00  0.00     0.682 A 
ATOM     35  H4  UNL     1      -4.940  13.518  22.095  1.00  0.00     0.184 HD
HETATM   36  N2  UNL     1      -3.478  16.295  21.357  1.00  0.00    -0.176 N 
HETATM   37  C1  UNL     1      -4.507  16.929  20.778  1.00  0.00     0.130 A 
ATOM     38  H2  UNL     1      -2.576  16.766  21.430  1.00  0.00     0.186 HD
BRANCH  34  39
HETATM   39  N3  UNL     1      -2.515  14.383  22.461  1.00  0.00    -0.218 N 
HETATM   40  C3  UNL     1      -2.351  14.154  23.876  1.00  0.00     0.141 C 
HETATM   41  C4  UNL     1      -1.924  12.685  23.879  1.00  0.00     0.022 C 
HETATM   42  C5  UNL     1      -0.896  12.703  22.744  1.00  0.00     0.022 C 
HETATM   43  C6  UNL     1      -1.351  13.820  21.828  1.00  0.00     0.141 C 
ENDBRANCH  34  39
BRANCH  37  44
HETATM   44  N1  UNL     1      -4.312  18.124  20.328  1.00  0.00    -0.384 N 
ATOM     45  H12 UNL     1      -4.766  18.431  19.467  1.00  0.00     0.157 HD
ATOM     46  H11 UNL     1      -3.694  18.741  20.856  1.00  0.00     0.157 HD
ENDBRANCH  37  44
ENDBRANCH   1  27
TORSDOF 12
ENDMDL
MODEL 4
REMARK VINA RESULT: -5.418156700      3.876      7.118
REMARK  12 active torsions:
REMARK  status: ('A' for Active; 'I' for Inactive)
REMARK    1  A    between atoms: N1_1  and  C1_4 
REMARK    2  A    between atoms: C2_7  and  N3_8 
REMARK    3  A    between atoms: C9_19  and  N5_20 
REMARK    4  A    between atoms: C11_22  and  C12_23 
REMARK    5  A    between atoms: C12_23  and  N6_24 
REMARK    6  A    between atoms: N6_24  and  C13_26 
REMARK    7  A    between atoms: C13_26  and  C14_27 
REMARK    8  A    between atoms: C16_29  and  C17_30 
REMARK    9  A    between atoms: C16_29  and  C18_33 
REMARK   10  A    between atoms: C17_30  and  O1_31 
REMARK   11  A    between atoms: C18_33  and  O2_34 
REMARK   12  A    between atoms: C19_37  and  C20_38 
ROOT
HETATM    1  N5  UNL     1      -7.057  12.208  14.353  1.00  0.00    -0.257 N 
HETATM    2  C10 UNL     1      -7.571  11.026  13.996  1.00  0.00     0.149 A 
HETATM    3  C11 UNL     1      -8.270  11.617  12.970  1.00  0.00     0.081 A 
HETATM    4  N8  UNL     1      -7.733  12.762  13.364  1.00  0.00    -0.291 N 
ATOM      5  H8  UNL     1      -7.812  13.721  13.026  1.00  0.00     0.187 HD
ENDROOT
BRANCH   3   6
HETATM    6  C12 UNL     1      -9.232  11.208  11.863  1.00  0.00     0.119 C 
BRANCH   6   7
HETATM    7  N6  UNL     1      -8.595  11.212  10.634  1.00  0.00    -0.376 N 
ATOM      8  H6  UNL     1      -9.125  11.607   9.857  1.00  0.00     0.164 HD
BRANCH   7   9
HETATM    9  C13 UNL     1      -7.340  10.751  10.332  1.00  0.00     0.068 C 
BRANCH   9  10
HETATM   10  C14 UNL     1      -7.130   9.322   9.994  1.00  0.00     0.064 C 
HETATM   11  C15 UNL     1      -6.877   8.376  11.095  1.00  0.00     0.055 C 
HETATM   12  C16 UNL     1      -5.913   7.379  10.500  1.00  0.00     0.105 C 
HETATM   13  O3  UNL     1      -5.381   7.921   9.363  1.00  0.00    -0.362 OA
HETATM   14  C19 UNL     1      -5.873   9.173   9.138  1.00  0.00     0.206 C 
BRANCH  12  15
HETATM   15  C17 UNL     1      -6.761   6.180  10.028  1.00  0.00     0.204 C 
BRANCH  15  16
HETATM   16  O1  UNL     1      -6.395   5.869   8.735  1.00  0.00    -0.398 OA
ATOM     17  H1  UNL     1      -6.964   6.342   8.140  1.00  0.00     0.209 HD
ENDBRANCH  15  16
ENDBRANCH  12  15
BRANCH  12  18
HETATM   18  C18 UNL     1      -4.929   6.807  11.471  1.00  0.00     0.204 C 
BRANCH  18  19
HETATM   19  O2  UNL     1      -4.230   5.764  10.892  1.00  0.00    -0.398 OA
ATOM     20  H2  UNL     1      -3.337   6.027  10.703  1.00  0.00     0.209 HD
ENDBRANCH  18  19
ENDBRANCH  12  18
BRANCH  14  21
HETATM   21  C20 UNL     1      -6.281   9.297   7.719  1.00  0.00     0.153 A 
HETATM   22  N7  UNL     1      -7.225   8.564   7.113  1.00  0.00    -0.346 N 
HETATM   23  C21 UNL     1      -7.347   8.926   5.839  1.00  0.00     0.114 A 
ATOM     24  H7  UNL     1      -7.773   7.832   7.565  1.00  0.00     0.167 HD
HETATM   25  C22 UNL     1      -6.422   9.939   5.653  1.00  0.00     0.161 A 
HETATM   26  O4  UNL     1      -5.818  10.119   6.802  1.00  0.00    -0.306 OA
ENDBRANCH  14  21
ENDBRANCH   9  10
ENDBRANCH   7   9
ENDBRANCH   6   7
ENDBRANCH   3   6
BRANCH   1  27
HETATM   27  C9  UNL     1      -6.163  12.612  15.384  1.00  0.00     0.114 A 
HETATM   28  S1  UNL     1      -6.507  13.059  17.011  1.00  0.00    -0.055 SA
HETATM   29  C8  UNL     1      -4.934  13.391  17.542  1.00  0.00     0.105 A 
HETATM   30  C7  UNL     1      -4.159  13.145  16.433  1.00  0.00     0.094 A 
HETATM   31 CL1  UNL     1      -4.437  13.927  19.158  1.00  0.00    -0.074 Cl
HETATM   32  N4  UNL     1      -2.788  13.298  16.431  1.00  0.00    -0.188 N 
HETATM   33  C23 UNL     1      -4.789  12.746  15.326  1.00  0.00     0.073 A 
HETATM   34  C2  UNL     1      -2.022  13.064  15.360  1.00  0.00     0.682 A 
ATOM     35  H4  UNL     1      -2.334  13.605  17.292  1.00  0.00     0.184 HD
HETATM   36  N2  UNL     1      -2.654  12.657  14.227  1.00  0.00    -0.176 N 
HETATM   37  C1  UNL     1      -3.984  12.498  14.192  1.00  0.00     0.130 A 
ATOM     38  H2  UNL     1      -2.104  12.469  13.388  1.00  0.00     0.186 HD
BRANCH  34  39
HETATM   39  N3  UNL     1      -0.616  13.229  15.376  1.00  0.00    -0.218 N 
HETATM   40  C3  UNL     1       0.300  12.569  16.274  1.00  0.00     0.141 C 
HETATM   41  C4  UNL     1       1.381  12.112  15.292  1.00  0.00     0.022 C 
HETATM   42  C5  UNL     1       1.542  13.387  14.459  1.00  0.00     0.022 C 
HETATM   43  C6  UNL     1       0.191  14.068  14.528  1.00  0.00     0.141 C 
ENDBRANCH  34  39
BRANCH  37  44
HETATM   44  N1  UNL     1      -4.522  12.106  13.085  1.00  0.00    -0.384 N 
ATOM     45  H12 UNL     1      -4.545  12.726  12.275  1.00  0.00     0.157 HD
ATOM     46  H11 UNL     1      -4.919  11.166  13.049  1.00  0.00     0.157 HD
ENDBRANCH  37  44
ENDBRANCH   1  27
TORSDOF 12
ENDMDL
MODEL 5
REMARK VINA RESULT: -5.386446815      9.484     11.999
REMARK  12 active torsions:
REMARK  status: ('A' for Active; 'I' for Inactive)
REMARK    1  A    between atoms: N1_1  and  C1_4 
REMARK    2  A    between atoms: C2_7  and  N3_8 
REMARK    3  A    between atoms: C9_19  and  N5_20 
REMARK    4  A    between atoms: C11_22  and  C12_23 
REMARK    5  A    between atoms: C12_23  and  N6_24 
REMARK    6  A    between atoms: N6_24  and  C13_26 
REMARK    7  A    between atoms: C13_26  and  C14_27 
REMARK    8  A    between atoms: C16_29  and  C17_30 
REMARK    9  A    between atoms: C16_29  and  C18_33 
REMARK   10  A    between atoms: C17_30  and  O1_31 
REMARK   11  A    between atoms: C18_33  and  O2_34 
REMARK   12  A    between atoms: C19_37  and  C20_38 
ROOT
HETATM    1  N5  UNL     1      -5.699  18.139  20.005  1.00  0.00    -0.257 N 
HETATM    2  C10 UNL     1      -5.521  18.577  18.753  1.00  0.00     0.149 A 
HETATM    3  C11 UNL     1      -6.498  19.528  18.925  1.00  0.00     0.081 A 
HETATM    4  N8  UNL     1      -6.635  19.058  20.156  1.00  0.00    -0.291 N 
ATOM      5  H8  UNL     1      -7.241  19.313  20.935  1.00  0.00     0.187 HD
ENDROOT
BRANCH   3   6
HETATM    6  C12 UNL     1      -7.165  20.635  18.119  1.00  0.00     0.119 C 
BRANCH   6   7
HETATM    7  N6  UNL     1      -6.228  21.332  17.376  1.00  0.00    -0.376 N 
ATOM      8  H6  UNL     1      -5.435  21.707  17.896  1.00  0.00     0.164 HD
BRANCH   7   9
HETATM    9  C13 UNL     1      -6.234  21.581  16.028  1.00  0.00     0.068 C 
BRANCH   9  10
HETATM   10  C14 UNL     1      -5.423  20.744  15.110  1.00  0.00     0.064 C 
HETATM   11  C15 UNL     1      -4.317  19.956  15.681  1.00  0.00     0.055 C 
HETATM   12  C16 UNL     1      -3.264  19.976  14.601  1.00  0.00     0.105 C 
HETATM   13  O3  UNL     1      -3.570  20.977  13.720  1.00  0.00    -0.362 OA
HETATM   14  C19 UNL     1      -4.704  21.634  14.098  1.00  0.00     0.206 C 
BRANCH  12  15
HETATM   15  C17 UNL     1      -3.428  18.664  13.806  1.00  0.00     0.204 C 
BRANCH  15  16
HETATM   16  O1  UNL     1      -2.196  18.052  13.714  1.00  0.00    -0.398 OA
ATOM     17  H1  UNL     1      -1.626  18.423  14.377  1.00  0.00     0.209 HD
ENDBRANCH  15  16
ENDBRANCH  12  15
BRANCH  12  18
HETATM   18  C18 UNL     1      -1.855  19.959  15.102  1.00  0.00     0.204 C 
BRANCH  18  19
HETATM   19  O2  UNL     1      -0.992  20.439  14.135  1.00  0.00    -0.398 OA
ATOM     20  H2  UNL     1      -1.441  20.527  13.303  1.00  0.00     0.209 HD
ENDBRANCH  18  19
ENDBRANCH  12  18
BRANCH  14  21
HETATM   21  C20 UNL     1      -5.598  21.794  12.928  1.00  0.00     0.153 A 
HETATM   22  N7  UNL     1      -6.323  20.818  12.363  1.00  0.00    -0.346 N 
HETATM   23  C21 UNL     1      -7.017  21.293  11.332  1.00  0.00     0.114 A 
ATOM     24  H7  UNL     1      -6.340  19.848  12.678  1.00  0.00     0.167 HD
HETATM   25  C22 UNL     1      -6.698  22.638  11.261  1.00  0.00     0.161 A 
HETATM   26  O4  UNL     1      -5.852  22.881  12.233  1.00  0.00    -0.306 OA
ENDBRANCH  14  21
ENDBRANCH   9  10
ENDBRANCH   7   9
ENDBRANCH   6   7
ENDBRANCH   3   6
BRANCH   1  27
HETATM   27  C9  UNL     1      -5.092  17.106  20.774  1.00  0.00     0.114 A 
HETATM   28  S1  UNL     1      -3.588  17.111  21.609  1.00  0.00    -0.055 SA
HETATM   29  C8  UNL     1      -3.620  15.542  22.242  1.00  0.00     0.105 A 
HETATM   30  C7  UNL     1      -4.816  15.034  21.789  1.00  0.00     0.094 A 
HETATM   31 CL1  UNL     1      -2.386  14.764  23.252  1.00  0.00    -0.074 Cl
HETATM   32  N4  UNL     1      -5.243  13.755  22.081  1.00  0.00    -0.188 N 
HETATM   33  C23 UNL     1      -5.571  15.836  21.036  1.00  0.00     0.073 A 
HETATM   34  C2  UNL     1      -6.402  13.249  21.645  1.00  0.00     0.682 A 
ATOM     35  H4  UNL     1      -4.644  13.165  22.658  1.00  0.00     0.184 HD
HETATM   36  N2  UNL     1      -7.179  14.058  20.877  1.00  0.00    -0.176 N 
HETATM   37  C1  UNL     1      -6.796  15.306  20.574  1.00  0.00     0.130 A 
ATOM     38  H2  UNL     1      -8.070  13.708  20.525  1.00  0.00     0.186 HD
BRANCH  34  39
HETATM   39  N3  UNL     1      -6.822  11.933  21.952  1.00  0.00    -0.218 N 
HETATM   40  C3  UNL     1      -7.935  11.240  21.348  1.00  0.00     0.141 C 
HETATM   41  C4  UNL     1      -7.298   9.882  21.050  1.00  0.00     0.022 C 
HETATM   42  C5  UNL     1      -6.565   9.634  22.372  1.00  0.00     0.022 C 
HETATM   43  C6  UNL     1      -6.253  11.017  22.906  1.00  0.00     0.141 C 
ENDBRANCH  34  39
BRANCH  37  44
HETATM   44  N1  UNL     1      -7.582  16.024  19.841  1.00  0.00    -0.384 N 
ATOM     45  H12 UNL     1      -8.327  16.573  20.271  1.00  0.00     0.157 HD
ATOM     46  H11 UNL     1      -7.434  16.021  18.832  1.00  0.00     0.157 HD
ENDBRANCH  37  44
ENDBRANCH   1  27
TORSDOF 12
ENDMDL
