MODEL 1
REMARK VINA RESULT: -6.832498643      0.000      0.000
REMARK  15 active torsions:
REMARK  status: ('A' for Active; 'I' for Inactive)
REMARK    1  A    between atoms: C3_5  and  C4_6 
REMARK    2  A    between atoms: C6_9  and  O2_10 
REMARK    3  A    between atoms: C7_12  and  C8_13 
REMARK    4  A    between atoms: C8_13  and  O3_14 
REMARK    5  A    between atoms: O3_14  and  C9_15 
REMARK    6  A    between atoms: C9_15  and  O5_17 
REMARK    7  A    between atoms: O5_17  and  C10_18 
REMARK    8  A    between atoms: C11_19  and  C12_20 
REMARK    9  A    between atoms: C12_20  and  C17_28 
REMARK   10  A    between atoms: C13_21  and  C14_22 
REMARK       I    between atoms: N2_23  and  C15_25 
REMARK   11  A    between atoms: C19_31  and  O7_32 
REMARK   12  A    between atoms: C20_34  and  O8_35 
REMARK   13  A    between atoms: C21_37  and  O9_38 
REMARK   14  A    between atoms: C22_40  and  O10_41 
REMARK   15  A    between atoms: C24_43  and  O11_44 
ROOT
HETATM    1  C12 UNL     1      -2.753  12.690  15.509  1.00  0.00    -0.018 C 
HETATM    2  C13 UNL     1      -3.399  13.296  16.526  1.00  0.00     0.029 C 
ENDROOT
BRANCH   1   3
HETATM    3  C11 UNL     1      -3.378  11.603  14.839  1.00  0.00     0.037 C 
HETATM    4  C10 UNL     1      -4.299  11.638  13.926  1.00  0.00     0.149 C 
BRANCH   4   5
HETATM    5  O5  UNL     1      -4.941  12.667  13.318  1.00  0.00    -0.268 OA
BRANCH   5   6
HETATM    6  C9  UNL     1      -5.862  12.528  12.322  1.00  0.00     0.411 C 
HETATM    7  O4  UNL     1      -5.779  11.496  11.589  1.00  0.00    -0.229 OA
BRANCH   6   8
HETATM    8  O3  UNL     1      -6.879  13.438  12.060  1.00  0.00    -0.293 OA
BRANCH   8   9
HETATM    9  C8  UNL     1      -8.205  12.964  12.163  1.00  0.00     0.225 C 
BRANCH   9  10
HETATM   10  C7  UNL     1      -9.032  13.768  13.078  1.00  0.00     0.037 A 
HETATM   11  C6  UNL     1      -8.763  13.592  14.512  1.00  0.00     0.107 A 
HETATM   12  C3  UNL     1      -9.411  14.250  15.456  1.00  0.00     0.113 A 
HETATM   13  N1  UNL     1     -10.423  15.176  15.069  1.00  0.00    -0.349 N 
HETATM   14  C2  UNL     1     -10.720  15.379  13.686  1.00  0.00     0.057 A 
ATOM     15  H1  UNL     1     -10.936  15.695  15.782  1.00  0.00     0.166 HD
HETATM   16  C1  UNL     1     -11.641  16.211  13.271  1.00  0.00     0.046 C 
HETATM   17  C24 UNL     1      -9.958  14.613  12.688  1.00  0.00     0.102 A 
BRANCH  11  18
HETATM   18  O2  UNL     1      -7.773  12.688  14.945  1.00  0.00    -0.358 OA
ATOM     19  H2  UNL     1      -7.136  13.023  15.565  1.00  0.00     0.217 HD
ENDBRANCH  11  18
BRANCH  12  20
HETATM   20  C4  UNL     1      -9.093  14.035  16.886  1.00  0.00     0.174 C 
HETATM   21  C5  UNL     1     -10.089  13.700  17.897  1.00  0.00     0.098 C 
HETATM   22  O1  UNL     1      -7.890  14.149  17.246  1.00  0.00    -0.291 OA
ENDBRANCH  12  20
BRANCH  17  23
HETATM   23  O11 UNL     1     -10.205  14.770  11.329  1.00  0.00    -0.358 OA
ATOM     24  H11 UNL     1      -9.863  14.150  10.697  1.00  0.00     0.217 HD
ENDBRANCH  17  23
ENDBRANCH   9  10
ENDBRANCH   8   9
ENDBRANCH   6   8
ENDBRANCH   5   6
ENDBRANCH   4   5
ENDBRANCH   1   3
BRANCH   1  25
HETATM   25  C17 UNL     1      -1.417  13.179  15.202  1.00  0.00     0.035 A 
HETATM   26  C18 UNL     1      -1.121  14.291  14.474  1.00  0.00     0.084 A 
HETATM   27 CL1  UNL     1      -2.377  15.505  14.106  1.00  0.00    -0.080 Cl
HETATM   28  C19 UNL     1       0.174  14.615  14.106  1.00  0.00     0.124 A 
HETATM   29  C20 UNL     1       1.207  13.764  14.508  1.00  0.00     0.137 A 
HETATM   30  C21 UNL     1       0.901  12.658  15.241  1.00  0.00     0.136 A 
HETATM   31  C22 UNL     1      -0.391  12.318  15.616  1.00  0.00     0.117 A 
BRANCH  28  32
HETATM   32  O7  UNL     1       0.469  15.745  13.361  1.00  0.00    -0.356 OA
ATOM     33  H7  UNL     1       1.347  15.930  13.047  1.00  0.00     0.218 HD
ENDBRANCH  28  32
BRANCH  29  34
HETATM   34  O8  UNL     1       2.497  14.092  14.139  1.00  0.00    -0.356 OA
ATOM     35  H8  UNL     1       3.181  13.450  14.290  1.00  0.00     0.218 HD
ENDBRANCH  29  34
BRANCH  30  36
HETATM   36  O9  UNL     1       1.907  11.774  15.671  1.00  0.00    -0.356 OA
ATOM     37  H9  UNL     1       1.687  10.939  16.068  1.00  0.00     0.218 HD
ENDBRANCH  30  36
BRANCH  31  38
HETATM   38  O10 UNL     1      -0.643  11.196  16.356  1.00  0.00    -0.352 OA
HETATM   39  C23 UNL     1      -0.612  11.074  17.758  1.00  0.00     0.210 C 
ENDBRANCH  31  38
ENDBRANCH   1  25
BRANCH   2  40
HETATM   40  C14 UNL     1      -4.686  12.934  17.005  1.00  0.00     0.092 C 
HETATM   41  N2  UNL     1      -5.121  13.514  18.109  1.00  0.00    -0.337 N 
HETATM   42  C15 UNL     1      -4.373  14.462  18.820  1.00  0.00     0.217 C 
ATOM     43  H2  UNL     1      -6.045  13.260  18.460  1.00  0.00     0.168 HD
HETATM   44  C16 UNL     1      -3.634  14.151  20.068  1.00  0.00     0.117 C 
HETATM   45  O6  UNL     1      -4.308  15.666  18.392  1.00  0.00    -0.274 OA
ENDBRANCH   2  40
TORSDOF 15
ENDMDL
MODEL 2
REMARK VINA RESULT: -6.783776221      3.295      5.253
REMARK  15 active torsions:
REMARK  status: ('A' for Active; 'I' for Inactive)
REMARK    1  A    between atoms: C3_5  and  C4_6 
REMARK    2  A    between atoms: C6_9  and  O2_10 
REMARK    3  A    between atoms: C7_12  and  C8_13 
REMARK    4  A    between atoms: C8_13  and  O3_14 
REMARK    5  A    between atoms: O3_14  and  C9_15 
REMARK    6  A    between atoms: C9_15  and  O5_17 
REMARK    7  A    between atoms: O5_17  and  C10_18 
REMARK    8  A    between atoms: C11_19  and  C12_20 
REMARK    9  A    between atoms: C12_20  and  C17_28 
REMARK   10  A    between atoms: C13_21  and  C14_22 
REMARK       I    between atoms: N2_23  and  C15_25 
REMARK   11  A    between atoms: C19_31  and  O7_32 
REMARK   12  A    between atoms: C20_34  and  O8_35 
REMARK   13  A    between atoms: C21_37  and  O9_38 
REMARK   14  A    between atoms: C22_40  and  O10_41 
REMARK   15  A    between atoms: C24_43  and  O11_44 
ROOT
HETATM    1  C12 UNL     1      -2.219  12.605  15.989  1.00  0.00    -0.018 C 
HETATM    2  C13 UNL     1      -2.677  13.084  17.163  1.00  0.00     0.029 C 
ENDROOT
BRANCH   1   3
HETATM    3  C11 UNL     1      -2.941  11.570  15.332  1.00  0.00     0.037 C 
HETATM    4  C10 UNL     1      -3.991  11.672  14.577  1.00  0.00     0.149 C 
BRANCH   4   5
HETATM    5  O5  UNL     1      -4.718  12.741  14.166  1.00  0.00    -0.268 OA
BRANCH   5   6
HETATM    6  C9  UNL     1      -4.934  13.079  12.862  1.00  0.00     0.411 C 
HETATM    7  O4  UNL     1      -4.234  14.021  12.379  1.00  0.00    -0.229 OA
BRANCH   6   8
HETATM    8  O3  UNL     1      -5.863  12.461  12.034  1.00  0.00    -0.293 OA
BRANCH   8   9
HETATM    9  C8  UNL     1      -6.467  11.280  12.518  1.00  0.00     0.225 C 
BRANCH   9  10
HETATM   10  C7  UNL     1      -6.206  10.111  11.663  1.00  0.00     0.037 A 
HETATM   11  C6  UNL     1      -6.624  10.233  10.259  1.00  0.00     0.107 A 
HETATM   12  C3  UNL     1      -6.448   9.277   9.365  1.00  0.00     0.113 A 
HETATM   13  N1  UNL     1      -5.823   8.065   9.778  1.00  0.00    -0.349 N 
HETATM   14  C2  UNL     1      -5.401   7.900  11.133  1.00  0.00     0.057 A 
ATOM     15  H1  UNL     1      -5.677   7.314   9.104  1.00  0.00     0.166 HD
HETATM   16  C1  UNL     1      -4.828   6.809  11.572  1.00  0.00     0.046 C 
HETATM   17  C24 UNL     1      -5.628   9.007  12.076  1.00  0.00     0.102 A 
BRANCH  11  18
HETATM   18  O2  UNL     1      -7.247  11.412   9.802  1.00  0.00    -0.358 OA
ATOM     19  H2  UNL     1      -8.015  11.697  10.282  1.00  0.00     0.217 HD
ENDBRANCH  11  18
BRANCH  12  20
HETATM   20  C4  UNL     1      -6.885   9.460   7.963  1.00  0.00     0.174 C 
HETATM   21  C5  UNL     1      -5.990   9.843   6.877  1.00  0.00     0.098 C 
HETATM   22  O1  UNL     1      -8.103   9.272   7.695  1.00  0.00    -0.291 OA
ENDBRANCH  12  20
BRANCH  17  23
HETATM   23  O11 UNL     1      -5.238   8.901  13.406  1.00  0.00    -0.358 OA
ATOM     24  H11 UNL     1      -5.781   8.444  14.037  1.00  0.00     0.217 HD
ENDBRANCH  17  23
ENDBRANCH   9  10
ENDBRANCH   8   9
ENDBRANCH   6   8
ENDBRANCH   5   6
ENDBRANCH   4   5
ENDBRANCH   1   3
BRANCH   1  25
HETATM   25  C17 UNL     1      -0.968  13.165  15.500  1.00  0.00     0.035 A 
HETATM   26  C18 UNL     1      -0.843  14.241  14.675  1.00  0.00     0.084 A 
HETATM   27 CL1  UNL     1      -2.224  15.334  14.381  1.00  0.00    -0.080 Cl
HETATM   28  C19 UNL     1       0.373  14.631  14.141  1.00  0.00     0.124 A 
HETATM   29  C20 UNL     1       1.508  13.887  14.472  1.00  0.00     0.137 A 
HETATM   30  C21 UNL     1       1.374  12.816  15.301  1.00  0.00     0.136 A 
HETATM   31  C22 UNL     1       0.163  12.411  15.844  1.00  0.00     0.117 A 
BRANCH  28  32
HETATM   32  O7  UNL     1       0.494  15.725  13.298  1.00  0.00    -0.356 OA
ATOM     33  H7  UNL     1       0.440  16.618  13.616  1.00  0.00     0.218 HD
ENDBRANCH  28  32
BRANCH  29  34
HETATM   34  O8  UNL     1       2.720  14.279  13.936  1.00  0.00    -0.356 OA
ATOM     35  H8  UNL     1       3.513  14.029  14.395  1.00  0.00     0.218 HD
ENDBRANCH  29  34
BRANCH  30  36
HETATM   36  O9  UNL     1       2.488  12.037  15.665  1.00  0.00    -0.356 OA
ATOM     37  H9  UNL     1       2.541  11.119  15.429  1.00  0.00     0.218 HD
ENDBRANCH  30  36
BRANCH  31  38
HETATM   38  O10 UNL     1       0.084  11.328  16.675  1.00  0.00    -0.352 OA
HETATM   39  C23 UNL     1       0.229   9.972  16.328  1.00  0.00     0.210 C 
ENDBRANCH  31  38
ENDBRANCH   1  25
BRANCH   2  40
HETATM   40  C14 UNL     1      -3.849  12.634  17.826  1.00  0.00     0.092 C 
HETATM   41  N2  UNL     1      -3.720  12.116  19.033  1.00  0.00    -0.337 N 
HETATM   42  C15 UNL     1      -2.483  11.992  19.682  1.00  0.00     0.217 C 
ATOM     43  H2  UNL     1      -4.557  11.791  19.516  1.00  0.00     0.168 HD
HETATM   44  C16 UNL     1      -1.734  10.716  19.778  1.00  0.00     0.117 C 
HETATM   45  O6  UNL     1      -1.951  13.019  20.228  1.00  0.00    -0.274 OA
ENDBRANCH   2  40
TORSDOF 15
ENDMDL
MODEL 3
REMARK VINA RESULT: -6.782843919      0.558      2.358
REMARK  15 active torsions:
REMARK  status: ('A' for Active; 'I' for Inactive)
REMARK    1  A    between atoms: C3_5  and  C4_6 
REMARK    2  A    between atoms: C6_9  and  O2_10 
REMARK    3  A    between atoms: C7_12  and  C8_13 
REMARK    4  A    between atoms: C8_13  and  O3_14 
REMARK    5  A    between atoms: O3_14  and  C9_15 
REMARK    6  A    between atoms: C9_15  and  O5_17 
REMARK    7  A    between atoms: O5_17  and  C10_18 
REMARK    8  A    between atoms: C11_19  and  C12_20 
REMARK    9  A    between atoms: C12_20  and  C17_28 
REMARK   10  A    between atoms: C13_21  and  C14_22 
REMARK       I    between atoms: N2_23  and  C15_25 
REMARK   11  A    between atoms: C19_31  and  O7_32 
REMARK   12  A    between atoms: C20_34  and  O8_35 
REMARK   13  A    between atoms: C21_37  and  O9_38 
REMARK   14  A    between atoms: C22_40  and  O10_41 
REMARK   15  A    between atoms: C24_43  and  O11_44 
ROOT
HETATM    1  C12 UNL     1      -2.810  12.711  15.542  1.00  0.00    -0.018 C 
HETATM    2  C13 UNL     1      -3.450  13.342  16.547  1.00  0.00     0.029 C 
ENDROOT
BRANCH   1   3
HETATM    3  C11 UNL     1      -3.452  11.627  14.881  1.00  0.00     0.037 C 
HETATM    4  C10 UNL     1      -4.358  11.669  13.954  1.00  0.00     0.149 C 
BRANCH   4   5
HETATM    5  O5  UNL     1      -4.966  12.702  13.319  1.00  0.00    -0.268 OA
BRANCH   5   6
HETATM    6  C9  UNL     1      -5.886  12.568  12.321  1.00  0.00     0.411 C 
HETATM    7  O4  UNL     1      -5.805  11.538  11.586  1.00  0.00    -0.229 OA
BRANCH   6   8
HETATM    8  O3  UNL     1      -6.900  13.481  12.060  1.00  0.00    -0.293 OA
BRANCH   8   9
HETATM    9  C8  UNL     1      -8.228  13.026  12.216  1.00  0.00     0.225 C 
BRANCH   9  10
HETATM   10  C7  UNL     1      -8.975  13.779  13.237  1.00  0.00     0.037 A 
HETATM   11  C6  UNL     1     -10.111  14.574  12.748  1.00  0.00     0.107 A 
HETATM   12  C3  UNL     1     -10.885  15.293  13.540  1.00  0.00     0.113 A 
HETATM   13  N1  UNL     1     -10.609  15.302  14.937  1.00  0.00    -0.349 N 
HETATM   14  C2  UNL     1      -9.515  14.545  15.458  1.00  0.00     0.057 A 
ATOM     15  H1  UNL     1     -11.195  15.850  15.568  1.00  0.00     0.166 HD
HETATM   16  C1  UNL     1      -9.209  14.519  16.731  1.00  0.00     0.046 C 
HETATM   17  C24 UNL     1      -8.694  13.766  14.519  1.00  0.00     0.102 A 
BRANCH  11  18
HETATM   18  O2  UNL     1     -10.424  14.598  11.375  1.00  0.00    -0.358 OA
ATOM     19  H2  UNL     1     -10.123  15.355  10.885  1.00  0.00     0.217 HD
ENDBRANCH  11  18
BRANCH  12  20
HETATM   20  C4  UNL     1     -12.019  16.070  12.991  1.00  0.00     0.174 C 
HETATM   21  C5  UNL     1     -12.188  17.506  13.183  1.00  0.00     0.098 C 
HETATM   22  O1  UNL     1     -12.888  15.452  12.318  1.00  0.00    -0.291 OA
ENDBRANCH  12  20
BRANCH  17  23
HETATM   23  O11 UNL     1      -7.617  13.012  14.970  1.00  0.00    -0.358 OA
ATOM     24  H11 UNL     1      -6.724  13.271  14.772  1.00  0.00     0.217 HD
ENDBRANCH  17  23
ENDBRANCH   9  10
ENDBRANCH   8   9
ENDBRANCH   6   8
ENDBRANCH   5   6
ENDBRANCH   4   5
ENDBRANCH   1   3
BRANCH   1  25
HETATM   25  C17 UNL     1      -1.463  13.170  15.238  1.00  0.00     0.035 A 
HETATM   26  C18 UNL     1      -1.140  14.259  14.488  1.00  0.00     0.084 A 
HETATM   27 CL1  UNL     1      -2.371  15.487  14.080  1.00  0.00    -0.080 Cl
HETATM   28  C19 UNL     1       0.164  14.553  14.127  1.00  0.00     0.124 A 
HETATM   29  C20 UNL     1       1.178  13.694  14.557  1.00  0.00     0.137 A 
HETATM   30  C21 UNL     1       0.845  12.610  15.311  1.00  0.00     0.136 A 
HETATM   31  C22 UNL     1      -0.456  12.300  15.680  1.00  0.00     0.117 A 
BRANCH  28  32
HETATM   32  O7  UNL     1       0.486  15.661  13.359  1.00  0.00    -0.356 OA
ATOM     33  H7  UNL     1       1.380  15.861  13.108  1.00  0.00     0.218 HD
ENDBRANCH  28  32
BRANCH  29  34
HETATM   34  O8  UNL     1       2.477  13.990  14.194  1.00  0.00    -0.356 OA
ATOM     35  H8  UNL     1       2.789  13.674  13.354  1.00  0.00     0.218 HD
ENDBRANCH  29  34
BRANCH  30  36
HETATM   36  O9  UNL     1       1.831  11.717  15.771  1.00  0.00    -0.356 OA
ATOM     37  H9  UNL     1       1.606  10.990  16.339  1.00  0.00     0.218 HD
ENDBRANCH  30  36
BRANCH  31  38
HETATM   38  O10 UNL     1      -0.735  11.200  16.442  1.00  0.00    -0.352 OA
HETATM   39  C23 UNL     1      -0.729  11.110  17.848  1.00  0.00     0.210 C 
ENDBRANCH  31  38
ENDBRANCH   1  25
BRANCH   2  40
HETATM   40  C14 UNL     1      -4.747  13.012  17.022  1.00  0.00     0.092 C 
HETATM   41  N2  UNL     1      -5.171  13.599  18.126  1.00  0.00    -0.337 N 
HETATM   42  C15 UNL     1      -4.399  14.525  18.842  1.00  0.00     0.217 C 
ATOM     43  H2  UNL     1      -6.101  13.368  18.474  1.00  0.00     0.168 HD
HETATM   44  C16 UNL     1      -3.671  14.191  20.091  1.00  0.00     0.117 C 
HETATM   45  O6  UNL     1      -4.303  15.728  18.419  1.00  0.00    -0.274 OA
ENDBRANCH   2  40
TORSDOF 15
ENDMDL
MODEL 4
REMARK VINA RESULT: -6.715283342      2.837      4.731
REMARK  15 active torsions:
REMARK  status: ('A' for Active; 'I' for Inactive)
REMARK    1  A    between atoms: C3_5  and  C4_6 
REMARK    2  A    between atoms: C6_9  and  O2_10 
REMARK    3  A    between atoms: C7_12  and  C8_13 
REMARK    4  A    between atoms: C8_13  and  O3_14 
REMARK    5  A    between atoms: O3_14  and  C9_15 
REMARK    6  A    between atoms: C9_15  and  O5_17 
REMARK    7  A    between atoms: O5_17  and  C10_18 
REMARK    8  A    between atoms: C11_19  and  C12_20 
REMARK    9  A    between atoms: C12_20  and  C17_28 
REMARK   10  A    between atoms: C13_21  and  C14_22 
REMARK       I    between atoms: N2_23  and  C15_25 
REMARK   11  A    between atoms: C19_31  and  O7_32 
REMARK   12  A    between atoms: C20_34  and  O8_35 
REMARK   13  A    between atoms: C21_37  and  O9_38 
REMARK   14  A    between atoms: C22_40  and  O10_41 
REMARK   15  A    between atoms: C24_43  and  O11_44 
ROOT
HETATM    1  C12 UNL     1      -1.320  11.049  16.850  1.00  0.00    -0.018 C 
HETATM    2  C13 UNL     1      -1.357  11.437  18.140  1.00  0.00     0.029 C 
ENDROOT
BRANCH   1   3
HETATM    3  C11 UNL     1      -1.842   9.775  16.492  1.00  0.00     0.037 C 
HETATM    4  C10 UNL     1      -3.075   9.440  16.272  1.00  0.00     0.149 C 
BRANCH   4   5
HETATM    5  O5  UNL     1      -4.230  10.151  16.293  1.00  0.00    -0.268 OA
BRANCH   5   6
HETATM    6  C9  UNL     1      -5.139  10.188  15.276  1.00  0.00     0.411 C 
HETATM    7  O4  UNL     1      -6.339  10.471  15.575  1.00  0.00    -0.229 OA
BRANCH   6   8
HETATM    8  O3  UNL     1      -4.836   9.938  13.943  1.00  0.00    -0.293 OA
BRANCH   8   9
HETATM    9  C8  UNL     1      -4.656  11.061  13.106  1.00  0.00     0.225 C 
BRANCH   9  10
HETATM   10  C7  UNL     1      -5.852  11.379  12.309  1.00  0.00     0.037 A 
HETATM   11  C6  UNL     1      -6.042  10.584  11.086  1.00  0.00     0.107 A 
HETATM   12  C3  UNL     1      -7.070  10.742  10.273  1.00  0.00     0.113 A 
HETATM   13  N1  UNL     1      -8.046  11.730  10.592  1.00  0.00    -0.349 N 
HETATM   14  C2  UNL     1      -7.903  12.527  11.769  1.00  0.00     0.057 A 
ATOM     15  H1  UNL     1      -8.849  11.868   9.978  1.00  0.00     0.166 HD
HETATM   16  C1  UNL     1      -8.762  13.453  12.111  1.00  0.00     0.046 C 
HETATM   17  C24 UNL     1      -6.732  12.298  12.631  1.00  0.00     0.102 A 
BRANCH  11  18
HETATM   18  O2  UNL     1      -5.105   9.596  10.728  1.00  0.00    -0.358 OA
ATOM     19  H2  UNL     1      -5.301   8.708  11.002  1.00  0.00     0.217 HD
ENDBRANCH  11  18
BRANCH  12  20
HETATM   20  C4  UNL     1      -7.212   9.908   9.058  1.00  0.00     0.174 C 
HETATM   21  C5  UNL     1      -8.104   8.758   8.962  1.00  0.00     0.098 C 
HETATM   22  O1  UNL     1      -6.519  10.212   8.049  1.00  0.00    -0.291 OA
ENDBRANCH  12  20
BRANCH  17  23
HETATM   23  O11 UNL     1      -6.542  13.045  13.788  1.00  0.00    -0.358 OA
ATOM     24  H11 UNL     1      -5.824  13.662  13.856  1.00  0.00     0.217 HD
ENDBRANCH  17  23
ENDBRANCH   9  10
ENDBRANCH   8   9
ENDBRANCH   6   8
ENDBRANCH   5   6
ENDBRANCH   4   5
ENDBRANCH   1   3
BRANCH   1  25
HETATM   25  C17 UNL     1      -0.692  11.966  15.910  1.00  0.00     0.035 A 
HETATM   26  C18 UNL     1       0.634  12.012  15.603  1.00  0.00     0.084 A 
HETATM   27 CL1  UNL     1       1.727  10.678  16.065  1.00  0.00    -0.080 Cl
HETATM   28  C19 UNL     1       1.177  13.004  14.804  1.00  0.00     0.124 A 
HETATM   29  C20 UNL     1       0.322  13.986  14.296  1.00  0.00     0.137 A 
HETATM   30  C21 UNL     1      -1.003  13.927  14.605  1.00  0.00     0.136 A 
HETATM   31  C22 UNL     1      -1.563  12.942  15.405  1.00  0.00     0.117 A 
BRANCH  28  32
HETATM   32  O7  UNL     1       2.528  13.049  14.499  1.00  0.00    -0.356 OA
ATOM     33  H7  UNL     1       2.997  13.869  14.392  1.00  0.00     0.218 HD
ENDBRANCH  28  32
BRANCH  29  34
HETATM   34  O8  UNL     1       0.869  14.973  13.500  1.00  0.00    -0.356 OA
ATOM     35  H8  UNL     1       0.538  15.859  13.598  1.00  0.00     0.218 HD
ENDBRANCH  29  34
BRANCH  30  36
HETATM   36  O9  UNL     1      -1.903  14.891  14.115  1.00  0.00    -0.356 OA
ATOM     37  H9  UNL     1      -2.724  14.633  13.713  1.00  0.00     0.218 HD
ENDBRANCH  30  36
BRANCH  31  38
HETATM   38  O10 UNL     1      -2.902  12.928  15.681  1.00  0.00    -0.352 OA
HETATM   39  C23 UNL     1      -3.612  13.815  16.513  1.00  0.00     0.210 C 
ENDBRANCH  31  38
ENDBRANCH   1  25
BRANCH   2  40
HETATM   40  C14 UNL     1      -1.884  10.666  19.209  1.00  0.00     0.092 C 
HETATM   41  N2  UNL     1      -2.303  11.305  20.286  1.00  0.00    -0.337 N 
HETATM   42  C15 UNL     1      -2.250  12.700  20.416  1.00  0.00     0.217 C 
ATOM     43  H2  UNL     1      -2.684  10.759  21.059  1.00  0.00     0.168 HD
HETATM   44  C16 UNL     1      -1.217  13.408  21.210  1.00  0.00     0.117 C 
HETATM   45  O6  UNL     1      -3.126  13.423  19.828  1.00  0.00    -0.274 OA
ENDBRANCH   2  40
TORSDOF 15
ENDMDL
MODEL 5
REMARK VINA RESULT: -6.617371266      2.905      4.755
REMARK  15 active torsions:
REMARK  status: ('A' for Active; 'I' for Inactive)
REMARK    1  A    between atoms: C3_5  and  C4_6 
REMARK    2  A    between atoms: C6_9  and  O2_10 
REMARK    3  A    between atoms: C7_12  and  C8_13 
REMARK    4  A    between atoms: C8_13  and  O3_14 
REMARK    5  A    between atoms: O3_14  and  C9_15 
REMARK    6  A    between atoms: C9_15  and  O5_17 
REMARK    7  A    between atoms: O5_17  and  C10_18 
REMARK    8  A    between atoms: C11_19  and  C12_20 
REMARK    9  A    between atoms: C12_20  and  C17_28 
REMARK   10  A    between atoms: C13_21  and  C14_22 
REMARK       I    between atoms: N2_23  and  C15_25 
REMARK   11  A    between atoms: C19_31  and  O7_32 
REMARK   12  A    between atoms: C20_34  and  O8_35 
REMARK   13  A    between atoms: C21_37  and  O9_38 
REMARK   14  A    between atoms: C22_40  and  O10_41 
REMARK   15  A    between atoms: C24_43  and  O11_44 
ROOT
HETATM    1  C12 UNL     1      -2.835  12.792  15.296  1.00  0.00    -0.018 C 
HETATM    2  C13 UNL     1      -3.543  13.442  16.240  1.00  0.00     0.029 C 
ENDROOT
BRANCH   1   3
HETATM    3  C11 UNL     1      -3.422  11.681  14.629  1.00  0.00     0.037 C 
HETATM    4  C10 UNL     1      -4.241  11.683  13.622  1.00  0.00     0.149 C 
BRANCH   4   5
HETATM    5  O5  UNL     1      -4.781  12.688  12.890  1.00  0.00    -0.268 OA
BRANCH   5   6
HETATM    6  C9  UNL     1      -6.097  12.774  12.540  1.00  0.00     0.411 C 
HETATM    7  O4  UNL     1      -6.934  13.005  13.466  1.00  0.00    -0.229 OA
BRANCH   6   8
HETATM    8  O3  UNL     1      -6.577  12.627  11.245  1.00  0.00    -0.293 OA
BRANCH   8   9
HETATM    9  C8  UNL     1      -7.803  11.943  11.089  1.00  0.00     0.225 C 
BRANCH   9  10
HETATM   10  C7  UNL     1      -7.658  10.480  11.172  1.00  0.00     0.037 A 
HETATM   11  C6  UNL     1      -7.103   9.819   9.982  1.00  0.00     0.107 A 
HETATM   12  C3  UNL     1      -6.901   8.516   9.905  1.00  0.00     0.113 A 
HETATM   13  N1  UNL     1      -7.237   7.708  11.029  1.00  0.00    -0.349 N 
HETATM   14  C2  UNL     1      -7.780   8.306  12.208  1.00  0.00     0.057 A 
ATOM     15  H1  UNL     1      -7.089   6.699  10.993  1.00  0.00     0.166 HD
HETATM   16  C1  UNL     1      -8.113   7.616  13.269  1.00  0.00     0.046 C 
HETATM   17  C24 UNL     1      -7.978   9.764  12.224  1.00  0.00     0.102 A 
BRANCH  11  18
HETATM   18  O2  UNL     1      -6.756  10.575   8.845  1.00  0.00    -0.358 OA
ATOM     19  H2  UNL     1      -6.130  10.181   8.250  1.00  0.00     0.217 HD
ENDBRANCH  11  18
BRANCH  12  20
HETATM   20  C4  UNL     1      -6.334   7.907   8.682  1.00  0.00     0.174 C 
HETATM   21  C5  UNL     1      -5.046   7.225   8.637  1.00  0.00     0.098 C 
HETATM   22  O1  UNL     1      -7.007   7.983   7.618  1.00  0.00    -0.291 OA
ENDBRANCH  12  20
BRANCH  17  23
HETATM   23  O11 UNL     1      -8.504  10.399  13.344  1.00  0.00    -0.358 OA
ATOM     24  H11 UNL     1      -9.428  10.330  13.554  1.00  0.00     0.217 HD
ENDBRANCH  17  23
ENDBRANCH   9  10
ENDBRANCH   8   9
ENDBRANCH   6   8
ENDBRANCH   5   6
ENDBRANCH   4   5
ENDBRANCH   1   3
BRANCH   1  25
HETATM   25  C17 UNL     1      -1.477  13.260  15.060  1.00  0.00     0.035 A 
HETATM   26  C18 UNL     1      -1.126  14.372  14.357  1.00  0.00     0.084 A 
HETATM   27 CL1  UNL     1      -2.342  15.610  13.937  1.00  0.00    -0.080 Cl
HETATM   28  C19 UNL     1       0.190  14.677  14.059  1.00  0.00     0.124 A 
HETATM   29  C20 UNL     1       1.188  13.806  14.505  1.00  0.00     0.137 A 
HETATM   30  C21 UNL     1       0.827  12.700  15.211  1.00  0.00     0.136 A 
HETATM   31  C22 UNL     1      -0.488  12.378  15.518  1.00  0.00     0.117 A 
BRANCH  28  32
HETATM   32  O7  UNL     1       0.542  15.808  13.339  1.00  0.00    -0.356 OA
ATOM     33  H7  UNL     1       1.441  15.993  13.091  1.00  0.00     0.218 HD
ENDBRANCH  28  32
BRANCH  29  34
HETATM   34  O8  UNL     1       2.500  14.114  14.204  1.00  0.00    -0.356 OA
ATOM     35  H8  UNL     1       3.072  13.408  13.926  1.00  0.00     0.218 HD
ENDBRANCH  29  34
BRANCH  30  36
HETATM   36  O9  UNL     1       1.795  11.795  15.684  1.00  0.00    -0.356 OA
ATOM     37  H9  UNL     1       1.763  10.876  15.445  1.00  0.00     0.218 HD
ENDBRANCH  30  36
BRANCH  31  38
HETATM   38  O10 UNL     1      -0.795  11.255  16.234  1.00  0.00    -0.352 OA
HETATM   39  C23 UNL     1      -0.795  11.109  17.635  1.00  0.00     0.210 C 
ENDBRANCH  31  38
ENDBRANCH   1  25
BRANCH   2  40
HETATM   40  C14 UNL     1      -4.862  13.107  16.645  1.00  0.00     0.092 C 
HETATM   41  N2  UNL     1      -5.291  13.570  17.805  1.00  0.00    -0.337 N 
HETATM   42  C15 UNL     1      -4.505  14.371  18.645  1.00  0.00     0.217 C 
ATOM     43  H2  UNL     1      -6.238  13.335  18.103  1.00  0.00     0.168 HD
HETATM   44  C16 UNL     1      -3.820  13.858  19.857  1.00  0.00     0.117 C 
HETATM   45  O6  UNL     1      -4.353  15.612  18.375  1.00  0.00    -0.274 OA
ENDBRANCH   2  40
TORSDOF 15
ENDMDL
