MODEL 1
REMARK VINA RESULT: -5.154164929      0.000      0.000
REMARK  13 active torsions:
REMARK  status: ('A' for Active; 'I' for Inactive)
REMARK    1  A    between atoms: O1_2  and  C2_3 
REMARK    2  A    between atoms: C2_3  and  C3_5 
REMARK    3  A    between atoms: C3_5  and  O3_6 
REMARK    4  A    between atoms: O3_6  and  C4_7 
REMARK    5  A    between atoms: C4_7  and  C5_9 
REMARK    6  A    between atoms: C10_14  and  O5_15 
REMARK    7  A    between atoms: C13_19  and  N1_20 
REMARK    8  A    between atoms: C15_22  and  O6_23 
REMARK    9  A    between atoms: C19_27  and  C20_28 
REMARK   10  A    between atoms: C20_28  and  O7_30 
REMARK   11  A    between atoms: C24_37  and  O8_38 
REMARK   12  A    between atoms: C24_37  and  C25_40 
REMARK   13  A    between atoms: C25_40  and  N3_41 
ROOT
HETATM    1  C3  UNL     1      -7.660  10.844  12.146  1.00  0.00     0.240 C 
HETATM    2  C9  UNL     1      -7.582  10.009  10.956  1.00  0.00     0.054 A 
HETATM    3  C10 UNL     1      -6.597   9.363  10.199  1.00  0.00     0.086 A 
HETATM    4  C11 UNL     1      -6.900   8.681   8.993  1.00  0.00     0.000 A 
HETATM    5  C12 UNL     1      -5.757   7.988   8.283  1.00  0.00     0.054 C 
HETATM    6  C13 UNL     1      -8.176   8.656   8.565  1.00  0.00     0.063 A 
HETATM    7  C22 UNL     1      -9.157   9.290   9.312  1.00  0.00     0.088 A 
HETATM    8 CL1  UNL     1     -10.812   9.235   8.705  1.00  0.00    -0.079 Cl
HETATM    9  C23 UNL     1      -8.905   9.952  10.475  1.00  0.00     0.067 A 
HETATM   10  N2  UNL     1      -9.775  10.603  11.446  1.00  0.00    -0.352 N 
ATOM     11  H2  UNL     1     -10.645  11.115  11.294  1.00  0.00     0.163 HD
HETATM   12  C24 UNL     1      -9.076  10.329  12.686  1.00  0.00     0.203 C 
ENDROOT
BRANCH   6  13
HETATM   13  N1  UNL     1      -8.526   8.013   7.330  1.00  0.00    -0.369 N 
HETATM   14  C14 UNL     1      -8.566   6.546   7.203  1.00  0.00     0.156 C 
HETATM   15  C15 UNL     1      -8.326   6.321   5.704  1.00  0.00     0.144 C 
HETATM   16  C17 UNL     1      -9.154   7.461   5.168  1.00  0.00     0.037 C 
HETATM   17  C18 UNL     1      -9.029   7.642   3.693  1.00  0.00     0.015 C 
HETATM   18  C19 UNL     1      -8.952   8.562   6.074  1.00  0.00     0.119 C 
BRANCH  15  19
HETATM   19  O6  UNL     1      -8.836   5.093   5.301  1.00  0.00    -0.389 OA
HETATM   20  C16 UNL     1     -10.008   4.813   6.014  1.00  0.00     0.202 C 
ENDBRANCH  15  19
BRANCH  18  21
HETATM   21  C20 UNL     1      -8.082   9.696   5.682  1.00  0.00     0.137 C 
HETATM   22  C21 UNL     1      -6.709   9.326   5.183  1.00  0.00     0.041 C 
BRANCH  21  23
HETATM   23  O7  UNL     1      -8.693  10.303   4.580  1.00  0.00    -0.394 OA
ATOM     24  H7  UNL     1      -8.022  10.387   3.912  1.00  0.00     0.210 HD
ENDBRANCH  21  23
ENDBRANCH  18  21
ENDBRANCH   6  13
BRANCH   3  25
HETATM   25  O5  UNL     1      -5.284   9.317  10.533  1.00  0.00    -0.359 OA
ATOM     26  H5  UNL     1      -4.960   9.249  11.424  1.00  0.00     0.217 HD
ENDBRANCH   3  25
BRANCH   1  27
HETATM   27  C2  UNL     1      -7.978  12.269  11.704  1.00  0.00     0.304 C 
HETATM   28  O2  UNL     1      -7.577  12.747  10.619  1.00  0.00    -0.261 OA
BRANCH  27  29
HETATM   29  O1  UNL     1      -8.740  13.126  12.478  1.00  0.00    -0.324 OA
HETATM   30  C1  UNL     1      -9.587  14.111  11.969  1.00  0.00     0.213 C 
ENDBRANCH  27  29
ENDBRANCH   1  27
BRANCH   1  31
HETATM   31  O3  UNL     1      -6.822  10.796  13.195  1.00  0.00    -0.289 OA
BRANCH  31  32
HETATM   32  C4  UNL     1      -5.546  11.222  13.305  1.00  0.00     0.264 C 
HETATM   33  O4  UNL     1      -4.599  10.513  12.903  1.00  0.00    -0.265 OA
BRANCH  32  34
HETATM   34  C5  UNL     1      -5.232  12.558  13.915  1.00  0.00     0.085 C 
HETATM   35  C6  UNL     1      -3.939  12.575  14.681  1.00  0.00     0.014 C 
HETATM   36  C7  UNL     1      -3.509  13.773  13.874  1.00  0.00     0.002 C 
HETATM   37  C8  UNL     1      -4.577  13.452  12.869  1.00  0.00     0.014 C 
ENDBRANCH  32  34
ENDBRANCH  31  32
ENDBRANCH   1  31
BRANCH  12  38
HETATM   38  O8  UNL     1      -8.914   8.973  12.826  1.00  0.00    -0.366 OA
ATOM     39  H8  UNL     1      -9.591   8.597  12.278  1.00  0.00     0.212 HD
ENDBRANCH  12  38
BRANCH  12  40
HETATM   40  C25 UNL     1      -9.486  11.091  13.863  1.00  0.00     0.294 C 
BRANCH  40  41
HETATM   41  N3  UNL     1     -10.917  11.316  13.807  1.00  0.00    -0.075 N 
ATOM     42  H33 UNL     1     -11.160  12.129  13.241  1.00  0.00     0.274 HD
ATOM     43  H32 UNL     1     -11.399  10.608  13.253  1.00  0.00     0.274 HD
ATOM     44  H31 UNL     1     -11.283  11.381  14.757  1.00  0.00     0.274 HD
ENDBRANCH  40  41
ENDBRANCH  12  40
TORSDOF 13
ENDMDL
MODEL 2
REMARK VINA RESULT: -4.963700927      1.016      2.208
REMARK  13 active torsions:
REMARK  status: ('A' for Active; 'I' for Inactive)
REMARK    1  A    between atoms: O1_2  and  C2_3 
REMARK    2  A    between atoms: C2_3  and  C3_5 
REMARK    3  A    between atoms: C3_5  and  O3_6 
REMARK    4  A    between atoms: O3_6  and  C4_7 
REMARK    5  A    between atoms: C4_7  and  C5_9 
REMARK    6  A    between atoms: C10_14  and  O5_15 
REMARK    7  A    between atoms: C13_19  and  N1_20 
REMARK    8  A    between atoms: C15_22  and  O6_23 
REMARK    9  A    between atoms: C19_27  and  C20_28 
REMARK   10  A    between atoms: C20_28  and  O7_30 
REMARK   11  A    between atoms: C24_37  and  O8_38 
REMARK   12  A    between atoms: C24_37  and  C25_40 
REMARK   13  A    between atoms: C25_40  and  N3_41 
ROOT
HETATM    1  C3  UNL     1      -7.731  11.043  12.266  1.00  0.00     0.240 C 
HETATM    2  C9  UNL     1      -7.521  10.222  11.082  1.00  0.00     0.054 A 
HETATM    3  C10 UNL     1      -6.449   9.636  10.397  1.00  0.00     0.086 A 
HETATM    4  C11 UNL     1      -6.626   8.947   9.170  1.00  0.00     0.000 A 
HETATM    5  C12 UNL     1      -5.398   8.323   8.543  1.00  0.00     0.054 C 
HETATM    6  C13 UNL     1      -7.864   8.856   8.650  1.00  0.00     0.063 A 
HETATM    7  C22 UNL     1      -8.930   9.430   9.325  1.00  0.00     0.088 A 
HETATM    8 CL1  UNL     1     -10.530   9.289   8.598  1.00  0.00    -0.079 Cl
HETATM    9  C23 UNL     1      -8.800  10.097  10.505  1.00  0.00     0.067 A 
HETATM   10  N2  UNL     1      -9.773  10.691  11.412  1.00  0.00    -0.352 N 
ATOM     11  H2  UNL     1     -10.656  11.156  11.199  1.00  0.00     0.163 HD
HETATM   12  C24 UNL     1      -9.152  10.447  12.699  1.00  0.00     0.203 C 
ENDROOT
BRANCH   6  13
HETATM   13  N1  UNL     1      -8.087   8.204   7.389  1.00  0.00    -0.369 N 
HETATM   14  C14 UNL     1      -8.308   8.968   6.150  1.00  0.00     0.156 C 
HETATM   15  C15 UNL     1      -9.107   7.989   5.279  1.00  0.00     0.144 C 
HETATM   16  C17 UNL     1      -8.376   6.720   5.633  1.00  0.00     0.037 C 
HETATM   17  C18 UNL     1      -9.003   5.494   5.057  1.00  0.00     0.015 C 
HETATM   18  C19 UNL     1      -8.072   6.812   7.037  1.00  0.00     0.119 C 
BRANCH  15  19
HETATM   19  O6  UNL     1      -8.964   8.296   3.931  1.00  0.00    -0.389 OA
HETATM   20  C16 UNL     1     -10.219   8.567   3.373  1.00  0.00     0.202 C 
ENDBRANCH  15  19
BRANCH  18  21
HETATM   21  C20 UNL     1      -8.851   6.021   8.020  1.00  0.00     0.137 C 
HETATM   22  C21 UNL     1     -10.317   5.857   7.713  1.00  0.00     0.041 C 
BRANCH  21  23
HETATM   23  O7  UNL     1      -8.345   4.719   7.970  1.00  0.00    -0.394 OA
ATOM     24  H7  UNL     1      -8.917   4.186   8.511  1.00  0.00     0.210 HD
ENDBRANCH  21  23
ENDBRANCH  18  21
ENDBRANCH   6  13
BRANCH   3  25
HETATM   25  O5  UNL     1      -5.163   9.660  10.826  1.00  0.00    -0.359 OA
ATOM     26  H5  UNL     1      -4.902   9.791  11.730  1.00  0.00     0.217 HD
ENDBRANCH   3  25
BRANCH   1  27
HETATM   27  C2  UNL     1      -8.094  12.452  11.806  1.00  0.00     0.304 C 
HETATM   28  O2  UNL     1      -7.626  12.966  10.765  1.00  0.00    -0.261 OA
BRANCH  27  29
HETATM   29  O1  UNL     1      -8.973  13.252  12.514  1.00  0.00    -0.324 OA
HETATM   30  C1  UNL     1      -9.771  14.245  11.946  1.00  0.00     0.213 C 
ENDBRANCH  27  29
ENDBRANCH   1  27
BRANCH   1  31
HETATM   31  O3  UNL     1      -6.970  11.033  13.372  1.00  0.00    -0.289 OA
BRANCH  31  32
HETATM   32  C4  UNL     1      -6.121  11.968  13.850  1.00  0.00     0.264 C 
HETATM   33  O4  UNL     1      -6.478  12.749  14.757  1.00  0.00    -0.265 OA
BRANCH  32  34
HETATM   34  C5  UNL     1      -4.728  12.091  13.304  1.00  0.00     0.085 C 
HETATM   35  C6  UNL     1      -4.329  13.509  13.004  1.00  0.00     0.014 C 
HETATM   36  C7  UNL     1      -3.090  13.307  13.839  1.00  0.00     0.002 C 
HETATM   37  C8  UNL     1      -3.729  12.096  14.456  1.00  0.00     0.014 C 
ENDBRANCH  32  34
ENDBRANCH  31  32
ENDBRANCH   1  31
BRANCH  12  38
HETATM   38  O8  UNL     1      -8.926   9.101  12.846  1.00  0.00    -0.366 OA
ATOM     39  H8  UNL     1      -9.790   8.730  12.979  1.00  0.00     0.212 HD
ENDBRANCH  12  38
BRANCH  12  40
HETATM   40  C25 UNL     1      -9.688  11.177  13.846  1.00  0.00     0.294 C 
BRANCH  40  41
HETATM   41  N3  UNL     1      -9.320  10.482  15.064  1.00  0.00    -0.075 N 
ATOM     42  H33 UNL     1      -9.905   9.664  15.235  1.00  0.00     0.274 HD
ATOM     43  H32 UNL     1      -8.424  10.003  14.981  1.00  0.00     0.274 HD
ATOM     44  H31 UNL     1      -9.338  11.141  15.842  1.00  0.00     0.274 HD
ENDBRANCH  40  41
ENDBRANCH  12  40
TORSDOF 13
ENDMDL
MODEL 3
REMARK VINA RESULT: -4.917777993      3.045      8.618
REMARK  13 active torsions:
REMARK  status: ('A' for Active; 'I' for Inactive)
REMARK    1  A    between atoms: O1_2  and  C2_3 
REMARK    2  A    between atoms: C2_3  and  C3_5 
REMARK    3  A    between atoms: C3_5  and  O3_6 
REMARK    4  A    between atoms: O3_6  and  C4_7 
REMARK    5  A    between atoms: C4_7  and  C5_9 
REMARK    6  A    between atoms: C10_14  and  O5_15 
REMARK    7  A    between atoms: C13_19  and  N1_20 
REMARK    8  A    between atoms: C15_22  and  O6_23 
REMARK    9  A    between atoms: C19_27  and  C20_28 
REMARK   10  A    between atoms: C20_28  and  O7_30 
REMARK   11  A    between atoms: C24_37  and  O8_38 
REMARK   12  A    between atoms: C24_37  and  C25_40 
REMARK   13  A    between atoms: C25_40  and  N3_41 
ROOT
HETATM    1  C3  UNL     1      -6.801   8.126  10.346  1.00  0.00     0.240 C 
HETATM    2  C9  UNL     1      -6.506   9.276  11.189  1.00  0.00     0.054 A 
HETATM    3  C10 UNL     1      -6.616  10.671  11.126  1.00  0.00     0.086 A 
HETATM    4  C11 UNL     1      -6.119  11.513  12.152  1.00  0.00     0.000 A 
HETATM    5  C12 UNL     1      -6.332  13.003  11.989  1.00  0.00     0.054 C 
HETATM    6  C13 UNL     1      -5.522  10.952  13.220  1.00  0.00     0.063 A 
HETATM    7  C22 UNL     1      -5.413   9.572  13.291  1.00  0.00     0.088 A 
HETATM    8 CL1  UNL     1      -4.615   8.886  14.706  1.00  0.00    -0.079 Cl
HETATM    9  C23 UNL     1      -5.880   8.731  12.327  1.00  0.00     0.067 A 
HETATM   10  N2  UNL     1      -5.949   7.278  12.237  1.00  0.00    -0.352 N 
ATOM     11  H2  UNL     1      -5.298   6.577  12.592  1.00  0.00     0.163 HD
HETATM   12  C24 UNL     1      -7.188   7.094  11.506  1.00  0.00     0.203 C 
ENDROOT
BRANCH   6  13
HETATM   13  N1  UNL     1      -4.966  11.766  14.264  1.00  0.00    -0.369 N 
HETATM   14  C14 UNL     1      -3.524  12.051  14.340  1.00  0.00     0.156 C 
HETATM   15  C15 UNL     1      -3.305  12.339  15.832  1.00  0.00     0.144 C 
HETATM   16  C17 UNL     1      -4.564  13.124  16.098  1.00  0.00     0.037 C 
HETATM   17  C18 UNL     1      -4.763  13.454  17.540  1.00  0.00     0.015 C 
HETATM   18  C19 UNL     1      -5.602  12.489  15.328  1.00  0.00     0.119 C 
BRANCH  15  19
HETATM   19  O6  UNL     1      -2.172  13.120  16.024  1.00  0.00    -0.389 OA
HETATM   20  C16 UNL     1      -1.641  13.493  14.783  1.00  0.00     0.202 C 
ENDBRANCH  15  19
BRANCH  18  21
HETATM   21  C20 UNL     1      -6.612  11.639  16.003  1.00  0.00     0.137 C 
HETATM   22  C21 UNL     1      -6.128  10.883  17.213  1.00  0.00     0.041 C 
BRANCH  21  23
HETATM   23  O7  UNL     1      -7.586  12.505  16.509  1.00  0.00    -0.394 OA
ATOM     24  H7  UNL     1      -8.171  12.705  15.787  1.00  0.00     0.210 HD
ENDBRANCH  21  23
ENDBRANCH  18  21
ENDBRANCH   6  13
BRANCH   3  25
HETATM   25  O5  UNL     1      -7.200  11.345  10.105  1.00  0.00    -0.359 OA
ATOM     26  H5  UNL     1      -7.884  11.996  10.214  1.00  0.00     0.217 HD
ENDBRANCH   3  25
BRANCH   1  27
HETATM   27  C2  UNL     1      -5.479   7.563   9.835  1.00  0.00     0.304 C 
HETATM   28  O2  UNL     1      -4.445   8.260   9.718  1.00  0.00    -0.261 OA
BRANCH  27  29
HETATM   29  O1  UNL     1      -5.338   6.236   9.469  1.00  0.00    -0.324 OA
HETATM   30  C1  UNL     1      -4.673   5.797   8.324  1.00  0.00     0.213 C 
ENDBRANCH  27  29
ENDBRANCH   1  27
BRANCH   1  31
HETATM   31  O3  UNL     1      -7.788   8.052   9.439  1.00  0.00    -0.289 OA
BRANCH  31  32
HETATM   32  C4  UNL     1      -7.730   8.075   8.090  1.00  0.00     0.264 C 
HETATM   33  O4  UNL     1      -7.793   7.015   7.431  1.00  0.00    -0.265 OA
BRANCH  32  34
HETATM   34  C5  UNL     1      -7.589   9.372   7.348  1.00  0.00     0.085 C 
HETATM   35  C6  UNL     1      -6.160   9.747   7.069  1.00  0.00     0.014 C 
HETATM   36  C7  UNL     1      -6.517   9.913   5.615  1.00  0.00     0.002 C 
HETATM   37  C8  UNL     1      -7.774   9.127   5.855  1.00  0.00     0.014 C 
ENDBRANCH  32  34
ENDBRANCH  31  32
ENDBRANCH   1  31
BRANCH  12  38
HETATM   38  O8  UNL     1      -8.210   7.711  12.185  1.00  0.00    -0.366 OA
ATOM     39  H8  UNL     1      -8.067   7.475  13.093  1.00  0.00     0.212 HD
ENDBRANCH  12  38
BRANCH  12  40
HETATM   40  C25 UNL     1      -7.442   5.767  10.952  1.00  0.00     0.294 C 
BRANCH  40  41
HETATM   41  N3  UNL     1      -8.862   5.623  10.698  1.00  0.00    -0.075 N 
ATOM     42  H33 UNL     1      -9.389   5.424  11.548  1.00  0.00     0.274 HD
ATOM     43  H32 UNL     1      -9.305   6.511  10.460  1.00  0.00     0.274 HD
ATOM     44  H31 UNL     1      -9.002   4.914   9.978  1.00  0.00     0.274 HD
ENDBRANCH  40  41
ENDBRANCH  12  40
TORSDOF 13
ENDMDL
MODEL 4
REMARK VINA RESULT: -4.916095030      5.630      7.848
REMARK  13 active torsions:
REMARK  status: ('A' for Active; 'I' for Inactive)
REMARK    1  A    between atoms: O1_2  and  C2_3 
REMARK    2  A    between atoms: C2_3  and  C3_5 
REMARK    3  A    between atoms: C3_5  and  O3_6 
REMARK    4  A    between atoms: O3_6  and  C4_7 
REMARK    5  A    between atoms: C4_7  and  C5_9 
REMARK    6  A    between atoms: C10_14  and  O5_15 
REMARK    7  A    between atoms: C13_19  and  N1_20 
REMARK    8  A    between atoms: C15_22  and  O6_23 
REMARK    9  A    between atoms: C19_27  and  C20_28 
REMARK   10  A    between atoms: C20_28  and  O7_30 
REMARK   11  A    between atoms: C24_37  and  O8_38 
REMARK   12  A    between atoms: C24_37  and  C25_40 
REMARK   13  A    between atoms: C25_40  and  N3_41 
ROOT
HETATM    1  C3  UNL     1      -3.279  11.996  15.982  1.00  0.00     0.240 C 
HETATM    2  C9  UNL     1      -4.549  12.066  15.273  1.00  0.00     0.054 A 
HETATM    3  C10 UNL     1      -5.044  12.584  14.069  1.00  0.00     0.086 A 
HETATM    4  C11 UNL     1      -6.423  12.538  13.740  1.00  0.00     0.000 A 
HETATM    5  C12 UNL     1      -6.832  13.095  12.393  1.00  0.00     0.054 C 
HETATM    6  C13 UNL     1      -7.280  11.979  14.614  1.00  0.00     0.063 A 
HETATM    7  C22 UNL     1      -6.796  11.461  15.805  1.00  0.00     0.088 A 
HETATM    8 CL1  UNL     1      -7.961  10.746  16.920  1.00  0.00    -0.079 Cl
HETATM    9  C23 UNL     1      -5.481  11.485  16.155  1.00  0.00     0.067 A 
HETATM   10  N2  UNL     1      -4.754  10.934  17.292  1.00  0.00    -0.352 N 
ATOM     11  H2  UNL     1      -5.053  10.832  18.262  1.00  0.00     0.163 HD
HETATM   12  C24 UNL     1      -3.492  10.571  16.678  1.00  0.00     0.203 C 
ENDROOT
BRANCH   6  13
HETATM   13  N1  UNL     1      -8.690  11.946  14.343  1.00  0.00    -0.369 N 
HETATM   14  C14 UNL     1      -9.297  10.884  13.523  1.00  0.00     0.156 C 
HETATM   15  C15 UNL     1     -10.564  11.552  12.973  1.00  0.00     0.144 C 
HETATM   16  C17 UNL     1     -10.975  12.313  14.208  1.00  0.00     0.037 C 
HETATM   17  C18 UNL     1     -12.133  13.226  13.984  1.00  0.00     0.015 C 
HETATM   18  C19 UNL     1      -9.755  12.788  14.808  1.00  0.00     0.119 C 
BRANCH  15  19
HETATM   19  O6  UNL     1     -11.515  10.600  12.626  1.00  0.00    -0.389 OA
HETATM   20  C16 UNL     1     -11.379   9.477  13.452  1.00  0.00     0.202 C 
ENDBRANCH  15  19
BRANCH  18  21
HETATM   21  C20 UNL     1      -9.376  14.216  14.689  1.00  0.00     0.137 C 
HETATM   22  C21 UNL     1     -10.135  15.011  13.658  1.00  0.00     0.041 C 
BRANCH  21  23
HETATM   23  O7  UNL     1      -9.716  14.820  15.903  1.00  0.00    -0.394 OA
ATOM     24  H7  UNL     1      -9.000  14.644  16.502  1.00  0.00     0.210 HD
ENDBRANCH  21  23
ENDBRANCH  18  21
ENDBRANCH   6  13
BRANCH   3  25
HETATM   25  O5  UNL     1      -4.277  13.164  13.114  1.00  0.00    -0.359 OA
ATOM     26  H5  UNL     1      -4.345  14.075  12.852  1.00  0.00     0.217 HD
ENDBRANCH   3  25
BRANCH   1  27
HETATM   27  C2  UNL     1      -3.347  12.953  17.168  1.00  0.00     0.304 C 
HETATM   28  O2  UNL     1      -2.613  12.837  18.175  1.00  0.00    -0.261 OA
BRANCH  27  29
HETATM   29  O1  UNL     1      -4.227  14.020  17.202  1.00  0.00    -0.324 OA
HETATM   30  C1  UNL     1      -4.619  14.685  18.364  1.00  0.00     0.213 C 
ENDBRANCH  27  29
ENDBRANCH   1  27
BRANCH   1  31
HETATM   31  O3  UNL     1      -2.064  11.954  15.411  1.00  0.00    -0.289 OA
BRANCH  31  32
HETATM   32  C4  UNL     1      -1.213  12.957  15.105  1.00  0.00     0.264 C 
HETATM   33  O4  UNL     1      -1.568  13.885  14.347  1.00  0.00    -0.265 OA
BRANCH  32  34
HETATM   34  C5  UNL     1       0.178  12.983  15.667  1.00  0.00     0.085 C 
HETATM   35  C6  UNL     1       0.796  11.617  15.792  1.00  0.00     0.014 C 
HETATM   36  C7  UNL     1       1.991  12.119  15.023  1.00  0.00     0.002 C 
HETATM   37  C8  UNL     1       1.171  13.286  14.551  1.00  0.00     0.014 C 
ENDBRANCH  32  34
ENDBRANCH  31  32
ENDBRANCH   1  31
BRANCH  12  38
HETATM   38  O8  UNL     1      -3.727   9.713  15.632  1.00  0.00    -0.366 OA
ATOM     39  H8  UNL     1      -4.403   9.129  15.953  1.00  0.00     0.212 HD
ENDBRANCH  12  38
BRANCH  12  40
HETATM   40  C25 UNL     1      -2.380  10.265  17.574  1.00  0.00     0.294 C 
BRANCH  40  41
HETATM   41  N3  UNL     1      -1.517   9.287  16.941  1.00  0.00    -0.075 N 
ATOM     42  H33 UNL     1      -1.670   8.344  17.301  1.00  0.00     0.274 HD
ATOM     43  H32 UNL     1      -1.775   9.113  15.970  1.00  0.00     0.274 HD
ATOM     44  H31 UNL     1      -0.546   9.586  17.037  1.00  0.00     0.274 HD
ENDBRANCH  40  41
ENDBRANCH  12  40
TORSDOF 13
ENDMDL
MODEL 5
REMARK VINA RESULT: -4.834192867      5.736      8.166
REMARK  13 active torsions:
REMARK  status: ('A' for Active; 'I' for Inactive)
REMARK    1  A    between atoms: O1_2  and  C2_3 
REMARK    2  A    between atoms: C2_3  and  C3_5 
REMARK    3  A    between atoms: C3_5  and  O3_6 
REMARK    4  A    between atoms: O3_6  and  C4_7 
REMARK    5  A    between atoms: C4_7  and  C5_9 
REMARK    6  A    between atoms: C10_14  and  O5_15 
REMARK    7  A    between atoms: C13_19  and  N1_20 
REMARK    8  A    between atoms: C15_22  and  O6_23 
REMARK    9  A    between atoms: C19_27  and  C20_28 
REMARK   10  A    between atoms: C20_28  and  O7_30 
REMARK   11  A    between atoms: C24_37  and  O8_38 
REMARK   12  A    between atoms: C24_37  and  C25_40 
REMARK   13  A    between atoms: C25_40  and  N3_41 
ROOT
HETATM    1  C3  UNL     1      -3.243  12.271  16.308  1.00  0.00     0.240 C 
HETATM    2  C9  UNL     1      -4.440  12.380  15.486  1.00  0.00     0.054 A 
HETATM    3  C10 UNL     1      -4.769  12.688  14.160  1.00  0.00     0.086 A 
HETATM    4  C11 UNL     1      -6.114  12.787  13.721  1.00  0.00     0.000 A 
HETATM    5  C12 UNL     1      -6.343  13.089  12.256  1.00  0.00     0.054 C 
HETATM    6  C13 UNL     1      -7.103  12.576  14.609  1.00  0.00     0.063 A 
HETATM    7  C22 UNL     1      -6.784  12.265  15.922  1.00  0.00     0.088 A 
HETATM    8 CL1  UNL     1      -8.116  12.006  17.048  1.00  0.00    -0.079 Cl
HETATM    9  C23 UNL     1      -5.506  12.160  16.379  1.00  0.00     0.067 A 
HETATM   10  N2  UNL     1      -4.951  11.769  17.669  1.00  0.00    -0.352 N 
ATOM     11  H2  UNL     1      -5.318  11.932  18.607  1.00  0.00     0.163 HD
HETATM   12  C24 UNL     1      -3.738  11.086  17.264  1.00  0.00     0.203 C 
ENDROOT
BRANCH   6  13
HETATM   13  N1  UNL     1      -8.480  12.704  14.221  1.00  0.00    -0.369 N 
HETATM   14  C14 UNL     1      -9.257  13.921  14.512  1.00  0.00     0.156 C 
HETATM   15  C15 UNL     1     -10.703  13.409  14.543  1.00  0.00     0.144 C 
HETATM   16  C17 UNL     1     -10.627  12.442  13.388  1.00  0.00     0.037 C 
HETATM   17  C18 UNL     1     -11.863  11.625  13.217  1.00  0.00     0.015 C 
HETATM   18  C19 UNL     1      -9.329  11.824  13.470  1.00  0.00     0.119 C 
BRANCH  15  19
HETATM   19  O6  UNL     1     -11.598  14.439  14.281  1.00  0.00    -0.389 OA
HETATM   20  C16 UNL     1     -10.941  15.472  13.601  1.00  0.00     0.202 C 
ENDBRANCH  15  19
BRANCH  18  21
HETATM   21  C20 UNL     1      -9.200  10.432  13.965  1.00  0.00     0.137 C 
HETATM   22  C21 UNL     1     -10.214  10.007  14.996  1.00  0.00     0.041 C 
BRANCH  21  23
HETATM   23  O7  UNL     1      -9.454   9.598  12.873  1.00  0.00    -0.394 OA
ATOM     24  H7  UNL     1      -9.369   8.705  13.190  1.00  0.00     0.210 HD
ENDBRANCH  21  23
ENDBRANCH  18  21
ENDBRANCH   6  13
BRANCH   3  25
HETATM   25  O5  UNL     1      -3.860  12.915  13.180  1.00  0.00    -0.359 OA
ATOM     26  H5  UNL     1      -4.021  12.770  12.255  1.00  0.00     0.217 HD
ENDBRANCH   3  25
BRANCH   1  27
HETATM   27  C2  UNL     1      -3.212  13.465  17.257  1.00  0.00     0.304 C 
HETATM   28  O2  UNL     1      -3.834  14.527  17.031  1.00  0.00    -0.261 OA
BRANCH  27  29
HETATM   29  O1  UNL     1      -2.491  13.446  18.438  1.00  0.00    -0.324 OA
HETATM   30  C1  UNL     1      -2.761  14.254  19.542  1.00  0.00     0.213 C 
ENDBRANCH  27  29
ENDBRANCH   1  27
BRANCH   1  31
HETATM   31  O3  UNL     1      -2.023  11.914  15.874  1.00  0.00    -0.289 OA
BRANCH  31  32
HETATM   32  C4  UNL     1      -1.036  12.667  15.343  1.00  0.00     0.264 C 
HETATM   33  O4  UNL     1      -1.265  13.431  14.381  1.00  0.00    -0.265 OA
BRANCH  32  34
HETATM   34  C5  UNL     1       0.358  12.606  15.895  1.00  0.00     0.085 C 
HETATM   35  C6  UNL     1       0.948  11.223  15.874  1.00  0.00     0.014 C 
HETATM   36  C7  UNL     1       2.149  11.777  15.153  1.00  0.00     0.002 C 
HETATM   37  C8  UNL     1       1.352  13.003  14.809  1.00  0.00     0.014 C 
ENDBRANCH  32  34
ENDBRANCH  31  32
ENDBRANCH   1  31
BRANCH  12  38
HETATM   38  O8  UNL     1      -4.057  10.065  16.403  1.00  0.00    -0.366 OA
ATOM     39  H8  UNL     1      -4.321   9.352  16.972  1.00  0.00     0.212 HD
ENDBRANCH  12  38
BRANCH  12  40
HETATM   40  C25 UNL     1      -2.748  10.816  18.304  1.00  0.00     0.294 C 
BRANCH  40  41
HETATM   41  N3  UNL     1      -1.821   9.809  17.826  1.00  0.00    -0.075 N 
ATOM     42  H33 UNL     1      -1.864   8.951  18.375  1.00  0.00     0.274 HD
ATOM     43  H32 UNL     1      -2.103   9.418  16.927  1.00  0.00     0.274 HD
ATOM     44  H31 UNL     1      -0.882  10.207  17.798  1.00  0.00     0.274 HD
ENDBRANCH  40  41
ENDBRANCH  12  40
TORSDOF 13
ENDMDL
