MODEL 1
REMARK VINA RESULT: -5.060170506      0.000      0.000
REMARK  10 active torsions:
REMARK  status: ('A' for Active; 'I' for Inactive)
REMARK    1  A    between atoms: O1_2  and  C2_3 
REMARK    2  A    between atoms: C3_4  and  N1_5 
REMARK       I    between atoms: N1_5  and  C4_7 
REMARK    3  A    between atoms: C4_7  and  C5_9 
REMARK    4  A    between atoms: C7_13  and  C8_14 
REMARK    5  A    between atoms: C15_23  and  C16_24 
REMARK    6  A    between atoms: C15_23  and  C17_27 
REMARK    7  A    between atoms: C17_27  and  O6_28 
REMARK    8  A    between atoms: C17_27  and  N4_30 
REMARK    9  A    between atoms: N4_30  and  C19_32 
REMARK   10  A    between atoms: C19_32  and  C20_33 
ROOT
HETATM    1  C2  UNL     1      -7.630   9.878  11.256  1.00  0.00     0.106 A 
HETATM    2  C3  UNL     1      -7.010  10.797  12.130  1.00  0.00     0.069 A 
HETATM    3  C11 UNL     1      -5.658  10.851  12.181  1.00  0.00     0.035 A 
HETATM    4  C12 UNL     1      -4.947  10.001  11.377  1.00  0.00     0.032 A 
HETATM    5  C13 UNL     1      -5.523   9.074  10.495  1.00  0.00     0.045 A 
HETATM    6  C14 UNL     1      -6.912   9.042  10.454  1.00  0.00     0.042 A 
HETATM    7  C15 UNL     1      -7.561   8.251   9.370  1.00  0.00     0.199 C 
HETATM    8  S2  UNL     1      -6.775   6.615   9.375  1.00  0.00    -0.059 SA
HETATM    9  C21 UNL     1      -5.028   7.062   9.076  1.00  0.00     0.140 C 
HETATM   10  N5  UNL     1      -4.295   6.430   8.264  1.00  0.00    -0.380 N 
ATOM     11  H51 UNL     1      -3.321   6.680   8.096  1.00  0.00     0.158 HD
ATOM     12  H52 UNL     1      -4.585   5.633   7.698  1.00  0.00     0.158 HD
HETATM   13  N6  UNL     1      -4.627   8.165   9.858  1.00  0.00    -0.337 N 
ATOM     14  H6  UNL     1      -3.626   8.324   9.976  1.00  0.00     0.168 HD
ENDROOT
BRANCH   2  15
HETATM   15  N1  UNL     1      -7.820  11.656  12.895  1.00  0.00    -0.320 N 
HETATM   16  C4  UNL     1      -8.158  12.991  12.696  1.00  0.00     0.260 C 
HETATM   17  O2  UNL     1      -7.668  13.538  11.677  1.00  0.00    -0.267 OA
ATOM     18  H1  UNL     1      -8.225  11.232  13.730  1.00  0.00     0.169 HD
BRANCH  16  19
HETATM   19  C5  UNL     1      -9.029  13.828  13.555  1.00  0.00     0.089 A 
HETATM   20  C6  UNL     1      -8.786  13.808  14.932  1.00  0.00     0.105 A 
HETATM   21  N2  UNL     1      -7.812  13.101  15.690  1.00  0.00    -0.093 NA
HETATM   22  S1  UNL     1      -9.952  14.858  15.568  1.00  0.00    -0.069 SA
HETATM   23  C7  UNL     1     -10.733  15.316  14.128  1.00  0.00     0.077 A 
HETATM   24  C10 UNL     1     -10.040  14.613  13.165  1.00  0.00     0.085 A 
HETATM   25  N3  UNL     1     -10.494  14.808  11.791  1.00  0.00    -0.100 NA
BRANCH  23  26
HETATM   26  C8  UNL     1     -11.875  16.243  13.981  1.00  0.00     0.164 C 
HETATM   27  C9  UNL     1     -13.238  15.718  14.004  1.00  0.00     0.097 C 
HETATM   28  O3  UNL     1     -11.640  17.452  13.840  1.00  0.00    -0.292 OA
ENDBRANCH  23  26
ENDBRANCH  16  19
ENDBRANCH   2  15
BRANCH   1  29
HETATM   29  O1  UNL     1      -9.052   9.881  11.279  1.00  0.00    -0.353 OA
HETATM   30  C1  UNL     1      -9.626   9.300  12.490  1.00  0.00     0.210 C 
ENDBRANCH   1  29
BRANCH   7  31
HETATM   31  C16 UNL     1      -6.950   8.937   8.107  1.00  0.00     0.206 C 
HETATM   32  O4  UNL     1      -6.593  10.111   8.123  1.00  0.00    -0.646 OA
HETATM   33  O5  UNL     1      -6.864   8.099   7.008  1.00  0.00    -0.646 OA
ENDBRANCH   7  31
BRANCH   7  34
HETATM   34  C17 UNL     1      -8.956   8.299   9.125  1.00  0.00     0.149 C 
BRANCH  34  35
HETATM   35  O6  UNL     1      -9.333   9.359   8.425  1.00  0.00    -0.348 OA
ATOM     36  H6  UNL     1      -8.712   9.610   7.752  1.00  0.00     0.219 HD
ENDBRANCH  34  35
BRANCH  34  37
HETATM   37  N4  UNL     1     -10.018   7.475   9.453  1.00  0.00    -0.367 N 
HETATM   38  C18 UNL     1      -9.807   6.406  10.456  1.00  0.00     0.151 C 
BRANCH  37  39
HETATM   39  C19 UNL     1     -11.349   7.555   8.949  1.00  0.00     0.139 C 
BRANCH  39  40
HETATM   40  C20 UNL     1     -12.380   7.960   9.995  1.00  0.00     0.134 C 
HETATM   41 CL1  UNL     1     -12.393   9.732  10.080  1.00  0.00    -0.129 Cl
ENDBRANCH  39  40
ENDBRANCH  37  39
ENDBRANCH  34  37
ENDBRANCH   7  34
TORSDOF 10
ENDMDL
MODEL 2
REMARK VINA RESULT: -5.052716681      0.970      1.095
REMARK  10 active torsions:
REMARK  status: ('A' for Active; 'I' for Inactive)
REMARK    1  A    between atoms: O1_2  and  C2_3 
REMARK    2  A    between atoms: C3_4  and  N1_5 
REMARK       I    between atoms: N1_5  and  C4_7 
REMARK    3  A    between atoms: C4_7  and  C5_9 
REMARK    4  A    between atoms: C7_13  and  C8_14 
REMARK    5  A    between atoms: C15_23  and  C16_24 
REMARK    6  A    between atoms: C15_23  and  C17_27 
REMARK    7  A    between atoms: C17_27  and  O6_28 
REMARK    8  A    between atoms: C17_27  and  N4_30 
REMARK    9  A    between atoms: N4_30  and  C19_32 
REMARK   10  A    between atoms: C19_32  and  C20_33 
ROOT
HETATM    1  C2  UNL     1      -7.646   9.913  11.248  1.00  0.00     0.106 A 
HETATM    2  C3  UNL     1      -7.021  10.806  12.145  1.00  0.00     0.069 A 
HETATM    3  C11 UNL     1      -5.670  10.836  12.215  1.00  0.00     0.035 A 
HETATM    4  C12 UNL     1      -4.962   9.989  11.404  1.00  0.00     0.032 A 
HETATM    5  C13 UNL     1      -5.543   9.087  10.499  1.00  0.00     0.045 A 
HETATM    6  C14 UNL     1      -6.931   9.079  10.439  1.00  0.00     0.042 A 
HETATM    7  C15 UNL     1      -7.579   8.319   9.333  1.00  0.00     0.199 C 
HETATM    8  S2  UNL     1      -6.820   6.669   9.319  1.00  0.00    -0.059 SA
HETATM    9  C21 UNL     1      -5.063   7.092   9.050  1.00  0.00     0.140 C 
HETATM   10  N5  UNL     1      -4.330   6.463   8.236  1.00  0.00    -0.380 N 
ATOM     11  H51 UNL     1      -3.350   6.699   8.085  1.00  0.00     0.158 HD
ATOM     12  H52 UNL     1      -4.626   5.681   7.652  1.00  0.00     0.158 HD
HETATM   13  N6  UNL     1      -4.653   8.175   9.857  1.00  0.00    -0.337 N 
ATOM     14  H6  UNL     1      -3.652   8.315   9.991  1.00  0.00     0.168 HD
ENDROOT
BRANCH   2  15
HETATM   15  N1  UNL     1      -7.827  11.665  12.915  1.00  0.00    -0.320 N 
HETATM   16  C4  UNL     1      -8.154  13.004  12.727  1.00  0.00     0.260 C 
HETATM   17  O2  UNL     1      -7.657  13.556  11.714  1.00  0.00    -0.267 OA
ATOM     18  H1  UNL     1      -8.238  11.237  13.745  1.00  0.00     0.169 HD
BRANCH  16  19
HETATM   19  C5  UNL     1      -9.021  13.840  13.590  1.00  0.00     0.089 A 
HETATM   20  C6  UNL     1      -8.769  13.823  14.966  1.00  0.00     0.105 A 
HETATM   21  N2  UNL     1      -7.788  13.119  15.718  1.00  0.00    -0.093 NA
HETATM   22  S1  UNL     1      -9.932  14.872  15.608  1.00  0.00    -0.069 SA
HETATM   23  C7  UNL     1     -10.724  15.326  14.173  1.00  0.00     0.077 A 
HETATM   24  C10 UNL     1     -10.036  14.623  13.206  1.00  0.00     0.085 A 
HETATM   25  N3  UNL     1     -10.500  14.814  11.834  1.00  0.00    -0.100 NA
BRANCH  23  26
HETATM   26  C8  UNL     1     -11.869  16.250  14.032  1.00  0.00     0.164 C 
HETATM   27  C9  UNL     1     -13.231  15.722  14.061  1.00  0.00     0.097 C 
HETATM   28  O3  UNL     1     -11.638  17.459  13.891  1.00  0.00    -0.292 OA
ENDBRANCH  23  26
ENDBRANCH  16  19
ENDBRANCH   2  15
BRANCH   1  29
HETATM   29  O1  UNL     1      -9.067   9.940  11.253  1.00  0.00    -0.353 OA
HETATM   30  C1  UNL     1      -9.665   9.423  12.481  1.00  0.00     0.210 C 
ENDBRANCH   1  29
BRANCH   7  31
HETATM   31  C16 UNL     1      -6.941   9.017   8.090  1.00  0.00     0.206 C 
HETATM   32  O4  UNL     1      -6.529  10.172   8.143  1.00  0.00    -0.646 OA
HETATM   33  O5  UNL     1      -6.897   8.212   6.965  1.00  0.00    -0.646 OA
ENDBRANCH   7  31
BRANCH   7  34
HETATM   34  C17 UNL     1      -8.969   8.394   9.072  1.00  0.00     0.149 C 
BRANCH  34  35
HETATM   35  O6  UNL     1      -9.358   9.577   8.617  1.00  0.00    -0.348 OA
ATOM     36  H6  UNL     1     -10.291   9.630   8.448  1.00  0.00     0.219 HD
ENDBRANCH  34  35
BRANCH  34  37
HETATM   37  N4  UNL     1     -10.018   7.499   9.182  1.00  0.00    -0.367 N 
HETATM   38  C18 UNL     1     -10.205   6.774  10.461  1.00  0.00     0.151 C 
BRANCH  37  39
HETATM   39  C19 UNL     1     -10.998   7.203   8.189  1.00  0.00     0.139 C 
BRANCH  39  40
HETATM   40  C20 UNL     1     -10.418   6.622   6.906  1.00  0.00     0.134 C 
HETATM   41 CL1  UNL     1     -10.318   7.936   5.717  1.00  0.00    -0.129 Cl
ENDBRANCH  39  40
ENDBRANCH  37  39
ENDBRANCH  34  37
ENDBRANCH   7  34
TORSDOF 10
ENDMDL
MODEL 3
REMARK VINA RESULT: -5.018528032      1.104      1.307
REMARK  10 active torsions:
REMARK  status: ('A' for Active; 'I' for Inactive)
REMARK    1  A    between atoms: O1_2  and  C2_3 
REMARK    2  A    between atoms: C3_4  and  N1_5 
REMARK       I    between atoms: N1_5  and  C4_7 
REMARK    3  A    between atoms: C4_7  and  C5_9 
REMARK    4  A    between atoms: C7_13  and  C8_14 
REMARK    5  A    between atoms: C15_23  and  C16_24 
REMARK    6  A    between atoms: C15_23  and  C17_27 
REMARK    7  A    between atoms: C17_27  and  O6_28 
REMARK    8  A    between atoms: C17_27  and  N4_30 
REMARK    9  A    between atoms: N4_30  and  C19_32 
REMARK   10  A    between atoms: C19_32  and  C20_33 
ROOT
HETATM    1  C2  UNL     1      -7.626   9.877  11.254  1.00  0.00     0.106 A 
HETATM    2  C3  UNL     1      -7.007  10.798  12.126  1.00  0.00     0.069 A 
HETATM    3  C11 UNL     1      -5.655  10.856  12.175  1.00  0.00     0.035 A 
HETATM    4  C12 UNL     1      -4.943  10.007  11.370  1.00  0.00     0.032 A 
HETATM    5  C13 UNL     1      -5.519   9.078  10.490  1.00  0.00     0.045 A 
HETATM    6  C14 UNL     1      -6.907   9.043  10.451  1.00  0.00     0.042 A 
HETATM    7  C15 UNL     1      -7.556   8.249   9.368  1.00  0.00     0.199 C 
HETATM    8  S2  UNL     1      -6.765   6.615   9.373  1.00  0.00    -0.059 SA
HETATM    9  C21 UNL     1      -5.020   7.066   9.071  1.00  0.00     0.140 C 
HETATM   10  N5  UNL     1      -4.287   6.436   8.258  1.00  0.00    -0.380 N 
ATOM     11  H51 UNL     1      -3.314   6.688   8.089  1.00  0.00     0.158 HD
ATOM     12  H52 UNL     1      -4.576   5.637   7.693  1.00  0.00     0.158 HD
HETATM   13  N6  UNL     1      -4.621   8.171   9.852  1.00  0.00    -0.337 N 
ATOM     14  H6  UNL     1      -3.621   8.332   9.969  1.00  0.00     0.168 HD
ENDROOT
BRANCH   2  15
HETATM   15  N1  UNL     1      -7.819  11.656  12.891  1.00  0.00    -0.320 N 
HETATM   16  C4  UNL     1      -8.153  12.993  12.698  1.00  0.00     0.260 C 
HETATM   17  O2  UNL     1      -7.657  13.543  11.683  1.00  0.00    -0.267 OA
ATOM     18  H1  UNL     1      -8.228  11.229  13.723  1.00  0.00     0.169 HD
BRANCH  16  19
HETATM   19  C5  UNL     1      -9.025  13.827  13.556  1.00  0.00     0.089 A 
HETATM   20  C6  UNL     1      -8.785  13.803  14.935  1.00  0.00     0.105 A 
HETATM   21  N2  UNL     1      -7.814  13.093  15.692  1.00  0.00    -0.093 NA
HETATM   22  S1  UNL     1      -9.952  14.853  15.571  1.00  0.00    -0.069 SA
HETATM   23  C7  UNL     1     -10.729  15.315  14.130  1.00  0.00     0.077 A 
HETATM   24  C10 UNL     1     -10.034  14.615  13.167  1.00  0.00     0.085 A 
HETATM   25  N3  UNL     1     -10.485  14.813  11.791  1.00  0.00    -0.100 NA
BRANCH  23  26
HETATM   26  C8  UNL     1     -11.871  16.243  13.982  1.00  0.00     0.164 C 
HETATM   27  C9  UNL     1     -13.232  15.716  13.969  1.00  0.00     0.097 C 
HETATM   28  O3  UNL     1     -11.635  17.455  13.873  1.00  0.00    -0.292 OA
ENDBRANCH  23  26
ENDBRANCH  16  19
ENDBRANCH   2  15
BRANCH   1  29
HETATM   29  O1  UNL     1      -9.048   9.877  11.279  1.00  0.00    -0.353 OA
HETATM   30  C1  UNL     1      -9.619   9.285  12.486  1.00  0.00     0.210 C 
ENDBRANCH   1  29
BRANCH   7  31
HETATM   31  C16 UNL     1      -6.949   8.936   8.104  1.00  0.00     0.206 C 
HETATM   32  O4  UNL     1      -6.586  10.109   8.121  1.00  0.00    -0.646 OA
HETATM   33  O5  UNL     1      -6.872   8.101   7.003  1.00  0.00    -0.646 OA
ENDBRANCH   7  31
BRANCH   7  34
HETATM   34  C17 UNL     1      -8.951   8.294   9.125  1.00  0.00     0.149 C 
BRANCH  34  35
HETATM   35  O6  UNL     1      -9.345   9.398   8.508  1.00  0.00    -0.348 OA
ATOM     36  H6  UNL     1     -10.255   9.376   8.235  1.00  0.00     0.219 HD
ENDBRANCH  34  35
BRANCH  34  37
HETATM   37  N4  UNL     1     -10.000   7.430   9.387  1.00  0.00    -0.367 N 
HETATM   38  C18 UNL     1     -11.169   7.433   8.476  1.00  0.00     0.151 C 
BRANCH  37  39
HETATM   39  C19 UNL     1     -10.081   6.480  10.446  1.00  0.00     0.139 C 
BRANCH  39  40
HETATM   40  C20 UNL     1     -10.795   5.190  10.063  1.00  0.00     0.134 C 
HETATM   41 CL1  UNL     1      -9.629   4.163   9.207  1.00  0.00    -0.129 Cl
ENDBRANCH  39  40
ENDBRANCH  37  39
ENDBRANCH  34  37
ENDBRANCH   7  34
TORSDOF 10
ENDMDL
MODEL 4
REMARK VINA RESULT: -4.930727153      4.678      7.997
REMARK  10 active torsions:
REMARK  status: ('A' for Active; 'I' for Inactive)
REMARK    1  A    between atoms: O1_2  and  C2_3 
REMARK    2  A    between atoms: C3_4  and  N1_5 
REMARK       I    between atoms: N1_5  and  C4_7 
REMARK    3  A    between atoms: C4_7  and  C5_9 
REMARK    4  A    between atoms: C7_13  and  C8_14 
REMARK    5  A    between atoms: C15_23  and  C16_24 
REMARK    6  A    between atoms: C15_23  and  C17_27 
REMARK    7  A    between atoms: C17_27  and  O6_28 
REMARK    8  A    between atoms: C17_27  and  N4_30 
REMARK    9  A    between atoms: N4_30  and  C19_32 
REMARK   10  A    between atoms: C19_32  and  C20_33 
ROOT
HETATM    1  C2  UNL     1      -6.650  12.528  14.133  1.00  0.00     0.106 A 
HETATM    2  C3  UNL     1      -6.100  12.569  15.432  1.00  0.00     0.069 A 
HETATM    3  C11 UNL     1      -6.890  12.917  16.475  1.00  0.00     0.035 A 
HETATM    4  C12 UNL     1      -8.202  13.219  16.218  1.00  0.00     0.032 A 
HETATM    5  C13 UNL     1      -8.788  13.190  14.943  1.00  0.00     0.045 A 
HETATM    6  C14 UNL     1      -7.959  12.822  13.890  1.00  0.00     0.042 A 
HETATM    7  C15 UNL     1      -8.589  12.547  12.568  1.00  0.00     0.199 C 
HETATM    8  S2  UNL     1      -9.679  13.953  12.206  1.00  0.00    -0.059 SA
HETATM    9  C21 UNL     1     -10.814  13.897  13.637  1.00  0.00     0.140 C 
HETATM   10  N5  UNL     1     -12.063  14.039  13.519  1.00  0.00    -0.380 N 
ATOM     11  H51 UNL     1     -12.697  14.008  14.318  1.00  0.00     0.158 HD
ATOM     12  H52 UNL     1     -12.564  14.190  12.644  1.00  0.00     0.158 HD
HETATM   13  N6  UNL     1     -10.121  13.689  14.849  1.00  0.00    -0.337 N 
ATOM     14  H6  UNL     1     -10.608  13.910  15.718  1.00  0.00     0.168 HD
ENDROOT
BRANCH   2  15
HETATM   15  N1  UNL     1      -4.750  12.210  15.607  1.00  0.00    -0.320 N 
HETATM   16  C4  UNL     1      -3.663  12.968  16.030  1.00  0.00     0.260 C 
HETATM   17  O2  UNL     1      -3.901  14.171  16.299  1.00  0.00    -0.267 OA
ATOM     18  H1  UNL     1      -4.535  11.237  15.389  1.00  0.00     0.169 HD
BRANCH  16  19
HETATM   19  C5  UNL     1      -2.264  12.506  16.193  1.00  0.00     0.089 A 
HETATM   20  C6  UNL     1      -2.008  11.571  17.201  1.00  0.00     0.105 A 
HETATM   21  N2  UNL     1      -2.884  10.956  18.137  1.00  0.00    -0.093 NA
HETATM   22  S1  UNL     1      -0.342  11.291  17.086  1.00  0.00    -0.069 SA
HETATM   23  C7  UNL     1       0.029  12.332  15.792  1.00  0.00     0.077 A 
HETATM   24  C10 UNL     1      -1.196  12.883  15.480  1.00  0.00     0.085 A 
HETATM   25  N3  UNL     1      -1.196  13.842  14.378  1.00  0.00    -0.100 NA
BRANCH  23  26
HETATM   26  C8  UNL     1       1.352  12.565  15.177  1.00  0.00     0.164 C 
HETATM   27  C9  UNL     1       2.327  11.479  15.129  1.00  0.00     0.097 C 
HETATM   28  O3  UNL     1       1.598  13.689  14.715  1.00  0.00    -0.292 OA
ENDBRANCH  23  26
ENDBRANCH  16  19
ENDBRANCH   2  15
BRANCH   1  29
HETATM   29  O1  UNL     1      -5.743  12.166  13.099  1.00  0.00    -0.353 OA
HETATM   30  C1  UNL     1      -4.813  13.229  12.729  1.00  0.00     0.210 C 
ENDBRANCH   1  29
BRANCH   7  31
HETATM   31  C16 UNL     1      -9.588  11.410  12.955  1.00  0.00     0.206 C 
HETATM   32  O4  UNL     1      -9.358  10.642  13.884  1.00  0.00    -0.646 OA
HETATM   33  O5  UNL     1     -10.719  11.371  12.157  1.00  0.00    -0.646 OA
ENDBRANCH   7  31
BRANCH   7  34
HETATM   34  C17 UNL     1      -7.867  11.991  11.483  1.00  0.00     0.149 C 
BRANCH  34  35
HETATM   35  O6  UNL     1      -7.311  12.901  10.696  1.00  0.00    -0.348 OA
ATOM     36  H6  UNL     1      -6.711  12.534  10.058  1.00  0.00     0.219 HD
ENDBRANCH  34  35
BRANCH  34  37
HETATM   37  N4  UNL     1      -7.608  10.698  11.063  1.00  0.00    -0.367 N 
HETATM   38  C18 UNL     1      -8.307  10.186   9.861  1.00  0.00     0.151 C 
BRANCH  37  39
HETATM   39  C19 UNL     1      -6.690   9.777  11.648  1.00  0.00     0.139 C 
BRANCH  39  40
HETATM   40  C20 UNL     1      -5.444   9.531  10.806  1.00  0.00     0.134 C 
HETATM   41 CL1  UNL     1      -5.080   7.796  10.876  1.00  0.00    -0.129 Cl
ENDBRANCH  39  40
ENDBRANCH  37  39
ENDBRANCH  34  37
ENDBRANCH   7  34
TORSDOF 10
ENDMDL
MODEL 5
REMARK VINA RESULT: -4.917030573      4.162      5.527
REMARK  10 active torsions:
REMARK  status: ('A' for Active; 'I' for Inactive)
REMARK    1  A    between atoms: O1_2  and  C2_3 
REMARK    2  A    between atoms: C3_4  and  N1_5 
REMARK       I    between atoms: N1_5  and  C4_7 
REMARK    3  A    between atoms: C4_7  and  C5_9 
REMARK    4  A    between atoms: C7_13  and  C8_14 
REMARK    5  A    between atoms: C15_23  and  C16_24 
REMARK    6  A    between atoms: C15_23  and  C17_27 
REMARK    7  A    between atoms: C17_27  and  O6_28 
REMARK    8  A    between atoms: C17_27  and  N4_30 
REMARK    9  A    between atoms: N4_30  and  C19_32 
REMARK   10  A    between atoms: C19_32  and  C20_33 
ROOT
HETATM    1  C2  UNL     1      -7.504   8.152   7.865  1.00  0.00     0.106 A 
HETATM    2  C3  UNL     1      -6.538   9.159   8.078  1.00  0.00     0.069 A 
HETATM    3  C11 UNL     1      -6.111   9.900   7.029  1.00  0.00     0.035 A 
HETATM    4  C12 UNL     1      -6.640   9.634   5.794  1.00  0.00     0.032 A 
HETATM    5  C13 UNL     1      -7.601   8.643   5.538  1.00  0.00     0.045 A 
HETATM    6  C14 UNL     1      -8.029   7.901   6.632  1.00  0.00     0.042 A 
HETATM    7  C15 UNL     1      -9.211   7.011   6.453  1.00  0.00     0.199 C 
HETATM    8  S2  UNL     1      -8.904   6.029   4.957  1.00  0.00    -0.059 SA
HETATM    9  C21 UNL     1      -8.723   7.346   3.703  1.00  0.00     0.140 C 
HETATM   10  N5  UNL     1      -9.264   7.277   2.564  1.00  0.00    -0.380 N 
ATOM     11  H51 UNL     1      -9.163   8.012   1.864  1.00  0.00     0.158 HD
ATOM     12  H52 UNL     1      -9.848   6.511   2.228  1.00  0.00     0.158 HD
HETATM   13  N6  UNL     1      -7.915   8.406   4.167  1.00  0.00    -0.337 N 
ATOM     14  H6  UNL     1      -7.528   9.046   3.473  1.00  0.00     0.168 HD
ENDROOT
BRANCH   2  15
HETATM   15  N1  UNL     1      -6.075   9.385   9.388  1.00  0.00    -0.320 N 
HETATM   16  C4  UNL     1      -6.440  10.353  10.319  1.00  0.00     0.260 C 
HETATM   17  O2  UNL     1      -7.320  11.169   9.949  1.00  0.00    -0.267 OA
ATOM     18  H1  UNL     1      -5.356   8.736   9.706  1.00  0.00     0.169 HD
BRANCH  16  19
HETATM   19  C5  UNL     1      -5.902  10.520  11.689  1.00  0.00     0.089 A 
HETATM   20  C6  UNL     1      -5.534   9.361  12.382  1.00  0.00     0.105 A 
HETATM   21  N2  UNL     1      -5.584   7.995  11.992  1.00  0.00    -0.093 NA
HETATM   22  S1  UNL     1      -4.980   9.937  13.875  1.00  0.00    -0.069 SA
HETATM   23  C7  UNL     1      -5.206  11.606  13.634  1.00  0.00     0.077 A 
HETATM   24  C10 UNL     1      -5.724  11.665  12.358  1.00  0.00     0.085 A 
HETATM   25  N3  UNL     1      -6.028  13.004  11.860  1.00  0.00    -0.100 NA
BRANCH  23  26
HETATM   26  C8  UNL     1      -4.910  12.699  14.584  1.00  0.00     0.164 C 
HETATM   27  C9  UNL     1      -3.690  13.484  14.424  1.00  0.00     0.097 C 
HETATM   28  O3  UNL     1      -5.717  12.919  15.499  1.00  0.00    -0.292 OA
ENDBRANCH  23  26
ENDBRANCH  16  19
ENDBRANCH   2  15
BRANCH   1  29
HETATM   29  O1  UNL     1      -7.881   7.415   9.021  1.00  0.00    -0.353 OA
HETATM   30  C1  UNL     1      -6.933   6.369   9.392  1.00  0.00     0.210 C 
ENDBRANCH   1  29
BRANCH   7  31
HETATM   31  C16 UNL     1     -10.285   8.046   5.988  1.00  0.00     0.206 C 
HETATM   32  O4  UNL     1     -10.209   9.232   6.294  1.00  0.00    -0.646 OA
HETATM   33  O5  UNL     1     -11.293   7.490   5.220  1.00  0.00    -0.646 OA
ENDBRANCH   7  31
BRANCH   7  34
HETATM   34  C17 UNL     1      -9.840   6.355   7.541  1.00  0.00     0.149 C 
BRANCH  34  35
HETATM   35  O6  UNL     1     -10.629   7.149   8.251  1.00  0.00    -0.348 OA
ATOM     36  H6  UNL     1     -11.012   6.723   9.009  1.00  0.00     0.219 HD
ENDBRANCH  34  35
BRANCH  34  37
HETATM   37  N4  UNL     1      -9.817   5.059   8.025  1.00  0.00    -0.367 N 
HETATM   38  C18 UNL     1     -10.303   4.805   9.402  1.00  0.00     0.151 C 
BRANCH  37  39
HETATM   39  C19 UNL     1      -9.400   3.891   7.323  1.00  0.00     0.139 C 
BRANCH  39  40
HETATM   40  C20 UNL     1      -8.155   3.234   7.906  1.00  0.00     0.134 C 
HETATM   41 CL1  UNL     1      -6.773   3.714   6.903  1.00  0.00    -0.129 Cl
ENDBRANCH  39  40
ENDBRANCH  37  39
ENDBRANCH  34  37
ENDBRANCH   7  34
TORSDOF 10
ENDMDL
