MODEL 1
REMARK VINA RESULT: -6.857769805      0.000      0.000
REMARK  11 active torsions:
REMARK  status: ('A' for Active; 'I' for Inactive)
REMARK    1  A    between atoms: N1_1  and  C1_4 
REMARK    2  A    between atoms: C3_9  and  N4_10 
REMARK    3  A    between atoms: N5_13  and  N6_14 
REMARK    4  A    between atoms: N7_16  and  C6_18 
REMARK    5  A    between atoms: C7_19  and  O1_20 
REMARK    6  A    between atoms: O1_20  and  C8_21 
REMARK    7  A    between atoms: C8_21  and  C9_22 
REMARK    8  A    between atoms: C9_22  and  C10_23 
REMARK    9  A    between atoms: C10_23  and  S1_24 
REMARK   10  A    between atoms: C14_32  and  C15_33 
REMARK   11  A    between atoms: C19_40  and  N9_41 
ROOT
HETATM    1  N6  UNL     1      -9.289  14.831 -34.744  1.00  0.00    -0.244 N 
ATOM      2  H6  UNL     1      -8.959  14.926 -33.783  1.00  0.00     0.208 HD
HETATM    3  N7  UNL     1      -9.583  13.666 -35.151  1.00  0.00    -0.282 N 
ATOM      4  H7  UNL     1      -9.914  13.551 -36.108  1.00  0.00     0.188 HD
ENDROOT
BRANCH   1   5
HETATM    5  N5  UNL     1      -9.383  15.974 -35.503  1.00  0.00    -0.310 N 
HETATM    6  C5  UNL     1      -8.618  17.128 -35.082  1.00  0.00     0.163 C 
HETATM    7  C4  UNL     1      -9.280  18.366 -35.595  1.00  0.00     0.144 C 
HETATM    8  N4  UNL     1     -10.715  18.190 -35.580  1.00  0.00    -0.372 N 
HETATM    9  C18 UNL     1     -11.278  17.151 -36.429  1.00  0.00     0.144 C 
HETATM   10  C17 UNL     1     -10.201  16.091 -36.694  1.00  0.00     0.163 C 
BRANCH   8  11
HETATM   11  C3  UNL     1     -11.518  19.020 -34.763  1.00  0.00     0.117 A 
HETATM   12  C2  UNL     1     -11.740  18.778 -33.434  1.00  0.00     0.162 A 
HETATM   13  N2  UNL     1     -12.528  19.635 -32.716  1.00  0.00    -0.177 N 
HETATM   14  N3  UNL     1     -11.181  17.659 -32.767  1.00  0.00    -0.080 NA
HETATM   15  C1  UNL     1     -13.094  20.719 -33.290  1.00  0.00     0.678 A 
ATOM     16  H2  UNL     1     -12.691  19.452 -31.726  1.00  0.00     0.185 HD
HETATM   17  N10 UNL     1     -12.886  20.968 -34.594  1.00  0.00    -0.175 N 
HETATM   18  C19 UNL     1     -12.108  20.131 -35.320  1.00  0.00     0.145 A 
ATOM     19  H10 UNL     1     -13.310  21.785 -35.033  1.00  0.00     0.186 HD
BRANCH  15  20
HETATM   20  N1  UNL     1     -13.841  21.521 -32.580  1.00  0.00    -0.234 N 
ATOM     21  H12 UNL     1     -14.016  21.322 -31.595  1.00  0.00     0.174 HD
ATOM     22  H11 UNL     1     -14.254  22.350 -33.009  1.00  0.00     0.174 HD
ENDBRANCH  15  20
BRANCH  18  23
HETATM   23  N9  UNL     1     -11.929  20.397 -36.558  1.00  0.00    -0.383 N 
ATOM     24  H92 UNL     1     -11.482  21.282 -36.800  1.00  0.00     0.157 HD
ATOM     25  H91 UNL     1     -12.229  19.733 -37.271  1.00  0.00     0.157 HD
ENDBRANCH  18  23
ENDBRANCH   8  11
ENDBRANCH   1   5
BRANCH   3  26
HETATM   26  C6  UNL     1      -9.468  12.520 -34.329  1.00  0.00     0.110 A 
HETATM   27  C7  UNL     1     -10.556  12.159 -33.551  1.00  0.00     0.099 A 
HETATM   28  C11 UNL     1     -10.563  11.065 -32.718  1.00  0.00     0.040 A 
HETATM   29  C12 UNL     1      -9.401  10.310 -32.681  1.00  0.00     0.024 A 
HETATM   30  C13 UNL     1      -8.301  10.666 -33.458  1.00  0.00     0.036 A 
HETATM   31  S2  UNL     1      -6.716  10.035 -33.711  1.00  0.00    -0.073 SA
HETATM   32  C16 UNL     1      -8.297  11.751 -34.287  1.00  0.00     0.081 A 
HETATM   33  C14 UNL     1      -6.166  11.187 -34.840  1.00  0.00     0.066 A 
HETATM   34  N8  UNL     1      -7.199  11.983 -34.970  1.00  0.00    -0.350 N 
ATOM     35  H8  UNL     1      -7.150  12.783 -35.601  1.00  0.00     0.166 HD
BRANCH  27  36
HETATM   36  O1  UNL     1     -11.693  12.934 -33.623  1.00  0.00    -0.349 OA
BRANCH  36  37
HETATM   37  C8  UNL     1     -12.734  13.115 -32.765  1.00  0.00     0.176 C 
BRANCH  37  38
HETATM   38  C9  UNL     1     -13.866  12.144 -32.815  1.00  0.00     0.044 C 
BRANCH  38  39
HETATM   39  C10 UNL     1     -15.192  12.702 -33.194  1.00  0.00     0.167 C 
BRANCH  39  40
HETATM   40  S1  UNL     1     -16.581  11.678 -32.955  1.00  0.00     0.101 S 
HETATM   41  O2  UNL     1     -16.236  10.356 -32.357  1.00  0.00    -0.595 OA
HETATM   42  O3  UNL     1     -17.639  12.389 -32.134  1.00  0.00    -0.595 OA
HETATM   43  O4  UNL     1     -17.239  11.394 -34.509  1.00  0.00    -0.595 OA
ENDBRANCH  39  40
ENDBRANCH  38  39
ENDBRANCH  37  38
ENDBRANCH  36  37
ENDBRANCH  27  36
BRANCH  33  44
HETATM   44  C15 UNL     1      -4.858  11.344 -35.565  1.00  0.00     0.179 C 
HETATM   45 CL1  UNL     1      -4.101  12.815 -34.911  1.00  0.00    -0.123 Cl
ENDBRANCH  33  44
ENDBRANCH   3  26
TORSDOF 11
ENDMDL
MODEL 2
REMARK VINA RESULT: -6.597559808      4.131      7.665
REMARK  11 active torsions:
REMARK  status: ('A' for Active; 'I' for Inactive)
REMARK    1  A    between atoms: N1_1  and  C1_4 
REMARK    2  A    between atoms: C3_9  and  N4_10 
REMARK    3  A    between atoms: N5_13  and  N6_14 
REMARK    4  A    between atoms: N7_16  and  C6_18 
REMARK    5  A    between atoms: C7_19  and  O1_20 
REMARK    6  A    between atoms: O1_20  and  C8_21 
REMARK    7  A    between atoms: C8_21  and  C9_22 
REMARK    8  A    between atoms: C9_22  and  C10_23 
REMARK    9  A    between atoms: C10_23  and  S1_24 
REMARK   10  A    between atoms: C14_32  and  C15_33 
REMARK   11  A    between atoms: C19_40  and  N9_41 
ROOT
HETATM    1  N6  UNL     1     -11.386  13.895 -33.975  1.00  0.00    -0.244 N 
ATOM      2  H6  UNL     1     -11.191  13.175 -34.672  1.00  0.00     0.208 HD
HETATM    3  N7  UNL     1     -12.088  13.567 -32.972  1.00  0.00    -0.282 N 
ATOM      4  H7  UNL     1     -12.293  14.274 -32.266  1.00  0.00     0.188 HD
ENDROOT
BRANCH   1   5
HETATM    5  N5  UNL     1     -10.867  15.150 -34.194  1.00  0.00    -0.310 N 
HETATM    6  C5  UNL     1     -10.817  15.632 -35.558  1.00  0.00     0.163 C 
HETATM    7  C4  UNL     1      -9.728  16.649 -35.677  1.00  0.00     0.144 C 
HETATM    8  N4  UNL     1      -8.626  16.282 -34.817  1.00  0.00    -0.372 N 
HETATM    9  C18 UNL     1      -8.871  16.242 -33.383  1.00  0.00     0.144 C 
HETATM   10  C17 UNL     1     -10.369  16.016 -33.143  1.00  0.00     0.163 C 
BRANCH   8  11
HETATM   11  C3  UNL     1      -7.362  15.985 -35.379  1.00  0.00     0.117 A 
HETATM   12  C2  UNL     1      -6.323  16.877 -35.406  1.00  0.00     0.162 A 
HETATM   13  N2  UNL     1      -5.132  16.506 -35.966  1.00  0.00    -0.177 N 
HETATM   14  N3  UNL     1      -6.438  18.186 -34.873  1.00  0.00    -0.080 NA
HETATM   15  C1  UNL     1      -4.956  15.276 -36.496  1.00  0.00     0.678 A 
ATOM     16  H2  UNL     1      -4.361  17.172 -35.985  1.00  0.00     0.185 HD
HETATM   17  N10 UNL     1      -5.967  14.391 -36.476  1.00  0.00    -0.175 N 
HETATM   18  C19 UNL     1      -7.153  14.740 -35.926  1.00  0.00     0.145 A 
ATOM     19  H10 UNL     1      -5.841  13.460 -36.875  1.00  0.00     0.186 HD
BRANCH  15  20
HETATM   20  N1  UNL     1      -3.807  14.948 -37.024  1.00  0.00    -0.234 N 
ATOM     21  H12 UNL     1      -2.941  15.337 -36.650  1.00  0.00     0.174 HD
ATOM     22  H11 UNL     1      -3.771  14.301 -37.812  1.00  0.00     0.174 HD
ENDBRANCH  15  20
BRANCH  18  23
HETATM   23  N9  UNL     1      -8.094  13.874 -35.923  1.00  0.00    -0.383 N 
ATOM     24  H92 UNL     1      -8.307  13.398 -35.046  1.00  0.00     0.157 HD
ATOM     25  H91 UNL     1      -8.609  13.678 -36.781  1.00  0.00     0.157 HD
ENDBRANCH  18  23
ENDBRANCH   8  11
ENDBRANCH   1   5
BRANCH   3  26
HETATM   26  C6  UNL     1     -12.598  12.260 -32.793  1.00  0.00     0.110 A 
HETATM   27  C7  UNL     1     -11.699  11.225 -32.595  1.00  0.00     0.099 A 
HETATM   28  C11 UNL     1     -12.076   9.917 -32.407  1.00  0.00     0.040 A 
HETATM   29  C12 UNL     1     -13.439   9.659 -32.425  1.00  0.00     0.024 A 
HETATM   30  C13 UNL     1     -14.352  10.693 -32.624  1.00  0.00     0.036 A 
HETATM   31  S2  UNL     1     -16.069  10.818 -32.716  1.00  0.00    -0.073 SA
HETATM   32  C16 UNL     1     -13.974  11.992 -32.809  1.00  0.00     0.081 A 
HETATM   33  C14 UNL     1     -16.183  12.497 -32.981  1.00  0.00     0.066 A 
HETATM   34  N8  UNL     1     -14.929  12.876 -32.986  1.00  0.00    -0.350 N 
ATOM     35  H8  UNL     1     -14.694  13.859 -33.128  1.00  0.00     0.166 HD
BRANCH  27  36
HETATM   36  O1  UNL     1     -10.354  11.526 -32.581  1.00  0.00    -0.349 OA
BRANCH  36  37
HETATM   37  C8  UNL     1      -9.241  10.759 -32.743  1.00  0.00     0.176 C 
BRANCH  37  38
HETATM   38  C9  UNL     1      -8.301  11.106 -33.848  1.00  0.00     0.044 C 
BRANCH  38  39
HETATM   39  C10 UNL     1      -6.929  10.541 -33.744  1.00  0.00     0.167 C 
BRANCH  39  40
HETATM   40  S1  UNL     1      -5.773  11.035 -34.949  1.00  0.00     0.101 S 
HETATM   41  O2  UNL     1      -4.980  12.232 -34.542  1.00  0.00    -0.595 OA
HETATM   42  O3  UNL     1      -4.866   9.882 -35.330  1.00  0.00    -0.595 OA
HETATM   43  O4  UNL     1      -6.681  11.458 -36.338  1.00  0.00    -0.595 OA
ENDBRANCH  39  40
ENDBRANCH  38  39
ENDBRANCH  37  38
ENDBRANCH  36  37
ENDBRANCH  27  36
BRANCH  33  44
HETATM   44  C15 UNL     1     -17.363  13.411 -33.172  1.00  0.00     0.179 C 
HETATM   45 CL1  UNL     1     -17.915  13.166 -34.844  1.00  0.00    -0.123 Cl
ENDBRANCH  33  44
ENDBRANCH   3  26
TORSDOF 11
ENDMDL
MODEL 3
REMARK VINA RESULT: -6.499773621      1.698      2.222
REMARK  11 active torsions:
REMARK  status: ('A' for Active; 'I' for Inactive)
REMARK    1  A    between atoms: N1_1  and  C1_4 
REMARK    2  A    between atoms: C3_9  and  N4_10 
REMARK    3  A    between atoms: N5_13  and  N6_14 
REMARK    4  A    between atoms: N7_16  and  C6_18 
REMARK    5  A    between atoms: C7_19  and  O1_20 
REMARK    6  A    between atoms: O1_20  and  C8_21 
REMARK    7  A    between atoms: C8_21  and  C9_22 
REMARK    8  A    between atoms: C9_22  and  C10_23 
REMARK    9  A    between atoms: C10_23  and  S1_24 
REMARK   10  A    between atoms: C14_32  and  C15_33 
REMARK   11  A    between atoms: C19_40  and  N9_41 
ROOT
HETATM    1  N6  UNL     1      -9.441  14.908 -34.613  1.00  0.00    -0.244 N 
ATOM      2  H6  UNL     1      -9.123  14.975 -33.646  1.00  0.00     0.208 HD
HETATM    3  N7  UNL     1      -9.668  13.751 -35.078  1.00  0.00    -0.282 N 
ATOM      4  H7  UNL     1      -9.986  13.665 -36.043  1.00  0.00     0.188 HD
ENDROOT
BRANCH   1   5
HETATM    5  N5  UNL     1      -9.592  16.081 -35.316  1.00  0.00    -0.310 N 
HETATM    6  C5  UNL     1      -8.403  16.854 -35.602  1.00  0.00     0.163 C 
HETATM    7  C4  UNL     1      -8.786  18.288 -35.786  1.00  0.00     0.144 C 
HETATM    8  N4  UNL     1      -9.875  18.617 -34.893  1.00  0.00    -0.372 N 
HETATM    9  C18 UNL     1     -11.139  17.921 -35.083  1.00  0.00     0.144 C 
HETATM   10  C17 UNL     1     -10.868  16.585 -35.786  1.00  0.00     0.163 C 
BRANCH   8  11
HETATM   11  C3  UNL     1      -9.689  19.592 -33.885  1.00  0.00     0.117 A 
HETATM   12  C2  UNL     1      -9.902  20.929 -34.084  1.00  0.00     0.162 A 
HETATM   13  N2  UNL     1      -9.702  21.805 -33.053  1.00  0.00    -0.177 N 
HETATM   14  N3  UNL     1     -10.324  21.448 -35.335  1.00  0.00    -0.080 NA
HETATM   15  C1  UNL     1      -9.297  21.378 -31.837  1.00  0.00     0.678 A 
ATOM     16  H2  UNL     1      -9.863  22.800 -33.204  1.00  0.00     0.185 HD
HETATM   17  N10 UNL     1      -9.083  20.068 -31.627  1.00  0.00    -0.175 N 
HETATM   18  C19 UNL     1      -9.276  19.188 -32.636  1.00  0.00     0.145 A 
ATOM     19  H10 UNL     1      -8.777  19.740 -30.711  1.00  0.00     0.186 HD
BRANCH  15  20
HETATM   20  N1  UNL     1      -9.115  22.236 -30.868  1.00  0.00    -0.234 N 
ATOM     21  H12 UNL     1      -8.204  22.310 -30.414  1.00  0.00     0.174 HD
ATOM     22  H11 UNL     1      -9.882  22.834 -30.563  1.00  0.00     0.174 HD
ENDBRANCH  15  20
BRANCH  18  23
HETATM   23  N9  UNL     1      -9.065  17.948 -32.404  1.00  0.00    -0.383 N 
ATOM     24  H92 UNL     1      -8.104  17.648 -32.236  1.00  0.00     0.157 HD
ATOM     25  H91 UNL     1      -9.845  17.291 -32.389  1.00  0.00     0.157 HD
ENDBRANCH  18  23
ENDBRANCH   8  11
ENDBRANCH   1   5
BRANCH   3  26
HETATM   26  C6  UNL     1      -9.497  12.574 -34.311  1.00  0.00     0.110 A 
HETATM   27  C7  UNL     1     -10.563  12.127 -33.548  1.00  0.00     0.099 A 
HETATM   28  C11 UNL     1     -10.516  10.996 -32.768  1.00  0.00     0.040 A 
HETATM   29  C12 UNL     1      -9.320  10.295 -32.769  1.00  0.00     0.024 A 
HETATM   30  C13 UNL     1      -8.241  10.737 -33.532  1.00  0.00     0.036 A 
HETATM   31  S2  UNL     1      -6.631  10.193 -33.819  1.00  0.00    -0.073 SA
HETATM   32  C16 UNL     1      -8.291  11.859 -34.309  1.00  0.00     0.081 A 
HETATM   33  C14 UNL     1      -6.140  11.420 -34.894  1.00  0.00     0.066 A 
HETATM   34  N8  UNL     1      -7.209  12.173 -34.983  1.00  0.00    -0.350 N 
ATOM     35  H8  UNL     1      -7.200  13.003 -35.576  1.00  0.00     0.166 HD
BRANCH  27  36
HETATM   36  O1  UNL     1     -11.735  12.852 -33.580  1.00  0.00    -0.349 OA
BRANCH  36  37
HETATM   37  C8  UNL     1     -12.761  12.973 -32.694  1.00  0.00     0.176 C 
BRANCH  37  38
HETATM   38  C9  UNL     1     -13.924  12.048 -32.831  1.00  0.00     0.044 C 
BRANCH  38  39
HETATM   39  C10 UNL     1     -15.228  12.680 -33.169  1.00  0.00     0.167 C 
BRANCH  39  40
HETATM   40  S1  UNL     1     -16.658  11.709 -32.958  1.00  0.00     0.101 S 
HETATM   41  O2  UNL     1     -16.375  10.376 -32.349  1.00  0.00    -0.595 OA
HETATM   42  O3  UNL     1     -17.707  12.461 -32.162  1.00  0.00    -0.595 OA
HETATM   43  O4  UNL     1     -17.293  11.444 -34.525  1.00  0.00    -0.595 OA
ENDBRANCH  39  40
ENDBRANCH  38  39
ENDBRANCH  37  38
ENDBRANCH  36  37
ENDBRANCH  27  36
BRANCH  33  44
HETATM   44  C15 UNL     1      -4.844  11.672 -35.614  1.00  0.00     0.179 C 
HETATM   45 CL1  UNL     1      -4.424  10.148 -36.429  1.00  0.00    -0.123 Cl
ENDBRANCH  33  44
ENDBRANCH   3  26
TORSDOF 11
ENDMDL
MODEL 4
REMARK VINA RESULT: -6.479184659      1.019      1.045
REMARK  11 active torsions:
REMARK  status: ('A' for Active; 'I' for Inactive)
REMARK    1  A    between atoms: N1_1  and  C1_4 
REMARK    2  A    between atoms: C3_9  and  N4_10 
REMARK    3  A    between atoms: N5_13  and  N6_14 
REMARK    4  A    between atoms: N7_16  and  C6_18 
REMARK    5  A    between atoms: C7_19  and  O1_20 
REMARK    6  A    between atoms: O1_20  and  C8_21 
REMARK    7  A    between atoms: C8_21  and  C9_22 
REMARK    8  A    between atoms: C9_22  and  C10_23 
REMARK    9  A    between atoms: C10_23  and  S1_24 
REMARK   10  A    between atoms: C14_32  and  C15_33 
REMARK   11  A    between atoms: C19_40  and  N9_41 
ROOT
HETATM    1  N6  UNL     1      -9.815  13.848 -36.027  1.00  0.00    -0.244 N 
ATOM      2  H6  UNL     1     -10.006  12.979 -36.527  1.00  0.00     0.208 HD
HETATM    3  N7  UNL     1      -9.521  13.765 -34.796  1.00  0.00    -0.282 N 
ATOM      4  H7  UNL     1      -9.328  14.623 -34.280  1.00  0.00     0.188 HD
ENDROOT
BRANCH   1   5
HETATM    5  N5  UNL     1      -9.896  15.022 -36.737  1.00  0.00    -0.310 N 
HETATM    6  C5  UNL     1      -8.838  15.994 -36.557  1.00  0.00     0.163 C 
HETATM    7  C4  UNL     1      -9.368  17.356 -36.874  1.00  0.00     0.144 C 
HETATM    8  N4  UNL     1     -10.749  17.448 -36.455  1.00  0.00    -0.372 N 
HETATM    9  C18 UNL     1     -11.712  16.571 -37.105  1.00  0.00     0.144 C 
HETATM   10  C17 UNL     1     -10.974  15.344 -37.653  1.00  0.00     0.163 C 
BRANCH   8  11
HETATM   11  C3  UNL     1     -11.121  18.374 -35.453  1.00  0.00     0.117 A 
HETATM   12  C2  UNL     1     -11.158  18.063 -34.120  1.00  0.00     0.162 A 
HETATM   13  N2  UNL     1     -11.525  19.021 -33.215  1.00  0.00    -0.177 N 
HETATM   14  N3  UNL     1     -10.830  16.771 -33.636  1.00  0.00    -0.080 NA
HETATM   15  C1  UNL     1     -11.854  20.271 -33.608  1.00  0.00     0.678 A 
ATOM     16  H2  UNL     1     -11.552  18.787 -32.223  1.00  0.00     0.185 HD
HETATM   17  N10 UNL     1     -11.822  20.590 -34.913  1.00  0.00    -0.175 N 
HETATM   18  C19 UNL     1     -11.461  19.654 -35.822  1.00  0.00     0.145 A 
ATOM     19  H10 UNL     1     -12.069  21.532 -35.217  1.00  0.00     0.186 HD
BRANCH  15  20
HETATM   20  N1  UNL     1     -12.200  21.167 -32.722  1.00  0.00    -0.234 N 
ATOM     21  H12 UNL     1     -12.550  20.876 -31.809  1.00  0.00     0.174 HD
ATOM     22  H11 UNL     1     -12.123  22.160 -32.942  1.00  0.00     0.174 HD
ENDBRANCH  15  20
BRANCH  18  23
HETATM   23  N9  UNL     1     -11.440  19.990 -37.056  1.00  0.00    -0.383 N 
ATOM     24  H92 UNL     1     -10.560  19.900 -37.564  1.00  0.00     0.157 HD
ATOM     25  H91 UNL     1     -12.288  20.336 -37.505  1.00  0.00     0.157 HD
ENDBRANCH  18  23
ENDBRANCH   8  11
ENDBRANCH   1   5
BRANCH   3  26
HETATM   26  C6  UNL     1      -9.451  12.529 -34.110  1.00  0.00     0.110 A 
HETATM   27  C7  UNL     1     -10.573  12.096 -33.422  1.00  0.00     0.099 A 
HETATM   28  C11 UNL     1     -10.624  10.913 -32.723  1.00  0.00     0.040 A 
HETATM   29  C12 UNL     1      -9.471  10.142 -32.730  1.00  0.00     0.024 A 
HETATM   30  C13 UNL     1      -8.338  10.570 -33.419  1.00  0.00     0.036 A 
HETATM   31  S2  UNL     1      -6.752   9.949 -33.683  1.00  0.00    -0.073 SA
HETATM   32  C16 UNL     1      -8.290  11.744 -34.114  1.00  0.00     0.081 A 
HETATM   33  C14 UNL     1      -6.146  11.216 -34.649  1.00  0.00     0.066 A 
HETATM   34  N8  UNL     1      -7.164  12.036 -34.723  1.00  0.00    -0.350 N 
ATOM     35  H8  UNL     1      -7.083  12.904 -35.255  1.00  0.00     0.166 HD
BRANCH  27  36
HETATM   36  O1  UNL     1     -11.698  12.892 -33.445  1.00  0.00    -0.349 OA
BRANCH  36  37
HETATM   37  C8  UNL     1     -12.804  12.938 -32.653  1.00  0.00     0.176 C 
BRANCH  37  38
HETATM   38  C9  UNL     1     -13.968  12.080 -33.018  1.00  0.00     0.044 C 
BRANCH  38  39
HETATM   39  C10 UNL     1     -15.292  12.758 -33.067  1.00  0.00     0.167 C 
BRANCH  39  40
HETATM   40  S1  UNL     1     -16.706  11.747 -32.960  1.00  0.00     0.101 S 
HETATM   41  O2  UNL     1     -16.424  10.410 -32.361  1.00  0.00    -0.595 OA
HETATM   42  O3  UNL     1     -17.820  12.455 -32.214  1.00  0.00    -0.595 OA
HETATM   43  O4  UNL     1     -17.239  11.498 -34.568  1.00  0.00    -0.595 OA
ENDBRANCH  39  40
ENDBRANCH  38  39
ENDBRANCH  37  38
ENDBRANCH  36  37
ENDBRANCH  27  36
BRANCH  33  44
HETATM   44  C15 UNL     1      -4.808  11.437 -35.300  1.00  0.00     0.179 C 
HETATM   45 CL1  UNL     1      -4.926  10.732 -36.928  1.00  0.00    -0.123 Cl
ENDBRANCH  33  44
ENDBRANCH   3  26
TORSDOF 11
ENDMDL
MODEL 5
REMARK VINA RESULT: -6.306297265      2.155      3.302
REMARK  11 active torsions:
REMARK  status: ('A' for Active; 'I' for Inactive)
REMARK    1  A    between atoms: N1_1  and  C1_4 
REMARK    2  A    between atoms: C3_9  and  N4_10 
REMARK    3  A    between atoms: N5_13  and  N6_14 
REMARK    4  A    between atoms: N7_16  and  C6_18 
REMARK    5  A    between atoms: C7_19  and  O1_20 
REMARK    6  A    between atoms: O1_20  and  C8_21 
REMARK    7  A    between atoms: C8_21  and  C9_22 
REMARK    8  A    between atoms: C9_22  and  C10_23 
REMARK    9  A    between atoms: C10_23  and  S1_24 
REMARK   10  A    between atoms: C14_32  and  C15_33 
REMARK   11  A    between atoms: C19_40  and  N9_41 
ROOT
HETATM    1  N6  UNL     1     -10.038  14.903 -33.553  1.00  0.00    -0.244 N 
ATOM      2  H6  UNL     1      -9.663  14.770 -32.613  1.00  0.00     0.208 HD
HETATM    3  N7  UNL     1     -10.056  13.898 -34.326  1.00  0.00    -0.282 N 
ATOM      4  H7  UNL     1     -10.427  14.012 -35.268  1.00  0.00     0.188 HD
ENDROOT
BRANCH   1   5
HETATM    5  N5  UNL     1     -10.487  16.159 -33.888  1.00  0.00    -0.310 N 
HETATM    6  C5  UNL     1     -10.575  16.491 -35.294  1.00  0.00     0.163 C 
HETATM    7  C4  UNL     1     -10.468  17.974 -35.452  1.00  0.00     0.144 C 
HETATM    8  N4  UNL     1      -9.556  18.502 -34.463  1.00  0.00    -0.372 N 
HETATM    9  C18 UNL     1      -9.919  18.356 -33.061  1.00  0.00     0.144 C 
HETATM   10  C17 UNL     1     -10.876  17.166 -32.920  1.00  0.00     0.163 C 
BRANCH   8  11
HETATM   11  C3  UNL     1      -8.363  19.142 -34.875  1.00  0.00     0.117 A 
HETATM   12  C2  UNL     1      -7.192  18.471 -35.105  1.00  0.00     0.162 A 
HETATM   13  N2  UNL     1      -6.084  19.166 -35.505  1.00  0.00    -0.177 N 
HETATM   14  N3  UNL     1      -7.081  17.066 -34.939  1.00  0.00    -0.080 NA
HETATM   15  C1  UNL     1      -6.119  20.505 -35.679  1.00  0.00     0.678 A 
ATOM     16  H2  UNL     1      -5.214  18.663 -35.677  1.00  0.00     0.185 HD
HETATM   17  N10 UNL     1      -7.262  21.177 -35.456  1.00  0.00    -0.175 N 
HETATM   18  C19 UNL     1      -8.368  20.505 -35.059  1.00  0.00     0.145 A 
ATOM     19  H10 UNL     1      -7.295  22.188 -35.585  1.00  0.00     0.186 HD
BRANCH  15  20
HETATM   20  N1  UNL     1      -5.047  21.145 -36.063  1.00  0.00    -0.234 N 
ATOM     21  H12 UNL     1      -4.430  20.736 -36.765  1.00  0.00     0.174 HD
ATOM     22  H11 UNL     1      -4.822  22.056 -35.662  1.00  0.00     0.174 HD
ENDBRANCH  15  20
BRANCH  18  23
HETATM   23  N9  UNL     1      -9.439  21.173 -34.856  1.00  0.00    -0.383 N 
ATOM     24  H92 UNL     1      -9.869  21.122 -33.933  1.00  0.00     0.157 HD
ATOM     25  H91 UNL     1      -9.838  21.737 -35.606  1.00  0.00     0.157 HD
ENDBRANCH  18  23
ENDBRANCH   8  11
ENDBRANCH   1   5
BRANCH   3  26
HETATM   26  C6  UNL     1      -9.581  12.624 -33.932  1.00  0.00     0.110 A 
HETATM   27  C7  UNL     1     -10.401  11.834 -33.143  1.00  0.00     0.099 A 
HETATM   28  C11 UNL     1     -10.049  10.580 -32.702  1.00  0.00     0.040 A 
HETATM   29  C12 UNL     1      -8.800  10.118 -33.087  1.00  0.00     0.024 A 
HETATM   30  C13 UNL     1      -7.968  10.906 -33.880  1.00  0.00     0.036 A 
HETATM   31  S2  UNL     1      -6.396  10.733 -34.566  1.00  0.00    -0.073 SA
HETATM   32  C16 UNL     1      -8.320  12.150 -34.318  1.00  0.00     0.081 A 
HETATM   33  C14 UNL     1      -6.298  12.242 -35.352  1.00  0.00     0.066 A 
HETATM   34  N8  UNL     1      -7.450  12.795 -35.061  1.00  0.00    -0.350 N 
ATOM     35  H8  UNL     1      -7.670  13.728 -35.410  1.00  0.00     0.166 HD
BRANCH  27  36
HETATM   36  O1  UNL     1     -11.636  12.330 -32.786  1.00  0.00    -0.349 OA
BRANCH  36  37
HETATM   37  C8  UNL     1     -12.862  11.747 -32.681  1.00  0.00     0.176 C 
BRANCH  37  38
HETATM   38  C9  UNL     1     -14.068  12.610 -32.839  1.00  0.00     0.044 C 
BRANCH  38  39
HETATM   39  C10 UNL     1     -15.382  11.911 -32.824  1.00  0.00     0.167 C 
BRANCH  39  40
HETATM   40  S1  UNL     1     -16.788  12.855 -33.228  1.00  0.00     0.101 S 
HETATM   41  O2  UNL     1     -16.812  14.185 -32.551  1.00  0.00    -0.595 OA
HETATM   42  O3  UNL     1     -16.924  13.004 -34.730  1.00  0.00    -0.595 OA
HETATM   43  O4  UNL     1     -18.139  11.962 -32.674  1.00  0.00    -0.595 OA
ENDBRANCH  39  40
ENDBRANCH  38  39
ENDBRANCH  37  38
ENDBRANCH  36  37
ENDBRANCH  27  36
BRANCH  33  44
HETATM   44  C15 UNL     1      -5.222  12.875 -36.190  1.00  0.00     0.179 C 
HETATM   45 CL1  UNL     1      -3.879  13.238 -35.083  1.00  0.00    -0.123 Cl
ENDBRANCH  33  44
ENDBRANCH   3  26
TORSDOF 11
ENDMDL
