MODEL 1
REMARK VINA RESULT: -6.025403706      0.000      0.000
REMARK  11 active torsions:
REMARK  status: ('A' for Active; 'I' for Inactive)
REMARK    1  A    between atoms: C2_2  and  N2_6 
REMARK    2  A    between atoms: N2_6  and  C3_8 
REMARK    3  A    between atoms: C3_8  and  C4_9 
REMARK    4  A    between atoms: C4_9  and  N3_11 
REMARK    5  A    between atoms: N3_11  and  C6_13 
REMARK    6  A    between atoms: C8_16  and  C9_17 
REMARK    7  A    between atoms: C10_18  and  N4_19 
REMARK    8  A    between atoms: N4_19  and  C11_21 
REMARK    9  A    between atoms: C12_22  and  N5_23 
REMARK   10  A    between atoms: C22_36  and  C23_37 
REMARK   11  A    between atoms: C25_40  and  O4_41 
ROOT
HETATM    1  C9  UNL     1      -8.927  12.541 -34.681  1.00  0.00     0.093 A 
HETATM    2  C10 UNL     1      -7.634  12.206 -34.948  1.00  0.00     0.069 A 
HETATM    3  C22 UNL     1      -7.005  11.124 -34.322  1.00  0.00     0.088 A 
HETATM    4  C25 UNL     1      -7.732  10.401 -33.415  1.00  0.00     0.159 A 
HETATM    5  N6  UNL     1      -9.028  10.726 -33.135  1.00  0.00    -0.302 N 
ATOM      6  H6  UNL     1      -9.553  10.175 -32.456  1.00  0.00     0.171 HD
HETATM    7  C26 UNL     1      -9.614  11.761 -33.744  1.00  0.00     0.262 A 
HETATM    8  O5  UNL     1     -10.814  12.081 -33.499  1.00  0.00    -0.267 OA
ENDROOT
BRANCH   1   9
HETATM    9  C8  UNL     1      -9.605  13.641 -35.353  1.00  0.00     0.093 A 
HETATM   10  S1  UNL     1      -9.553  15.318 -35.124  1.00  0.00    -0.079 SA
HETATM   11  C7  UNL     1     -10.666  15.783 -36.348  1.00  0.00     0.100 A 
HETATM   12  C6  UNL     1     -11.013  14.557 -36.869  1.00  0.00     0.108 A 
HETATM   13  N7  UNL     1     -10.462  13.507 -36.347  1.00  0.00    -0.336 N 
ATOM     14  H7  UNL     1     -10.691  12.580 -36.704  1.00  0.00     0.168 HD
BRANCH  12  15
HETATM   15  N3  UNL     1     -11.977  14.494 -37.955  1.00  0.00    -0.370 N 
ATOM     16  H3  UNL     1     -12.269  15.364 -38.401  1.00  0.00     0.161 HD
BRANCH  15  17
HETATM   17  C4  UNL     1     -12.530  13.274 -38.424  1.00  0.00     0.096 C 
HETATM   18  C5  UNL     1     -14.030  13.378 -38.578  1.00  0.00     0.034 C 
BRANCH  17  19
HETATM   19  C3  UNL     1     -11.969  12.776 -39.738  1.00  0.00     0.145 C 
BRANCH  19  20
HETATM   20  N2  UNL     1     -11.508  11.420 -39.512  1.00  0.00    -0.379 N 
ATOM     21  H2  UNL     1     -10.578  11.273 -39.118  1.00  0.00     0.160 HD
BRANCH  20  22
HETATM   22  C2  UNL     1     -12.318  10.276 -39.825  1.00  0.00     0.066 C 
HETATM   23  C1  UNL     1     -13.316  10.413 -40.909  1.00  0.00     0.088 C 
HETATM   24  N1  UNL     1     -12.169   9.175 -39.173  1.00  0.00    -0.389 N 
ATOM     25  H12 UNL     1     -12.744   8.363 -39.395  1.00  0.00     0.157 HD
ATOM     26  H11 UNL     1     -11.482   9.081 -38.426  1.00  0.00     0.157 HD
ENDBRANCH  20  22
ENDBRANCH  19  20
ENDBRANCH  17  19
ENDBRANCH  15  17
ENDBRANCH  12  15
ENDBRANCH   1   9
BRANCH   2  27
HETATM   27  N4  UNL     1      -6.875  12.961 -35.850  1.00  0.00    -0.349 N 
ATOM     28  H4  UNL     1      -6.447  13.839 -35.556  1.00  0.00     0.166 HD
BRANCH  27  29
HETATM   29  C11 UNL     1      -6.708  12.485 -37.195  1.00  0.00     0.118 A 
HETATM   30  C12 UNL     1      -5.672  12.170 -38.021  1.00  0.00     0.116 A 
HETATM   31  C20 UNL     1      -6.554  11.824 -39.038  1.00  0.00     0.252 A 
HETATM   32  O1  UNL     1      -6.460  11.405 -40.207  1.00  0.00    -0.281 OA
HETATM   33  C21 UNL     1      -7.594  12.137 -38.222  1.00  0.00     0.253 A 
HETATM   34  O2  UNL     1      -8.841  12.134 -38.300  1.00  0.00    -0.281 OA
BRANCH  30  35
HETATM   35  N5  UNL     1      -4.251  12.139 -38.023  1.00  0.00    -0.372 N 
HETATM   36  C13 UNL     1      -3.585  10.972 -38.570  1.00  0.00     0.160 C 
HETATM   37  C14 UNL     1      -2.415  10.544 -37.712  1.00  0.00     0.188 C 
HETATM   38  F1  UNL     1      -2.598   9.264 -37.189  1.00  0.00    -0.248 F 
HETATM   39  C15 UNL     1      -2.176  11.474 -36.564  1.00  0.00     0.049 C 
HETATM   40  C16 UNL     1      -2.196  12.922 -36.925  1.00  0.00    -0.029 C 
HETATM   41  C17 UNL     1      -1.989  13.720 -35.638  1.00  0.00     0.016 C 
HETATM   42  C18 UNL     1      -1.110  13.294 -37.912  1.00  0.00     0.016 C 
HETATM   43  C19 UNL     1      -3.561  13.268 -37.469  1.00  0.00     0.132 C 
ENDBRANCH  30  35
ENDBRANCH  27  29
ENDBRANCH   2  27
BRANCH   3  44
HETATM   44  C23 UNL     1      -5.639  10.776 -34.642  1.00  0.00     0.162 C 
HETATM   45  C24 UNL     1      -4.507  11.371 -33.886  1.00  0.00     0.097 C 
HETATM   46  O3  UNL     1      -5.292   9.970 -35.555  1.00  0.00    -0.293 OA
ENDBRANCH   3  44
BRANCH   4  47
HETATM   47  O4  UNL     1      -7.202   9.292 -32.723  1.00  0.00    -0.345 OA
ATOM     48  H4  UNL     1      -7.748   8.607 -32.356  1.00  0.00     0.219 HD
ENDBRANCH   4  47
TORSDOF 11
ENDMDL
MODEL 2
REMARK VINA RESULT: -5.960176055      3.810      6.343
REMARK  11 active torsions:
REMARK  status: ('A' for Active; 'I' for Inactive)
REMARK    1  A    between atoms: C2_2  and  N2_6 
REMARK    2  A    between atoms: N2_6  and  C3_8 
REMARK    3  A    between atoms: C3_8  and  C4_9 
REMARK    4  A    between atoms: C4_9  and  N3_11 
REMARK    5  A    between atoms: N3_11  and  C6_13 
REMARK    6  A    between atoms: C8_16  and  C9_17 
REMARK    7  A    between atoms: C10_18  and  N4_19 
REMARK    8  A    between atoms: N4_19  and  C11_21 
REMARK    9  A    between atoms: C12_22  and  N5_23 
REMARK   10  A    between atoms: C22_36  and  C23_37 
REMARK   11  A    between atoms: C25_40  and  O4_41 
ROOT
HETATM    1  C9  UNL     1      -9.020  11.767 -33.766  1.00  0.00     0.093 A 
HETATM    2  C10 UNL     1      -8.179  12.339 -34.671  1.00  0.00     0.069 A 
HETATM    3  C22 UNL     1      -6.960  11.749 -35.027  1.00  0.00     0.088 A 
HETATM    4  C25 UNL     1      -6.628  10.563 -34.429  1.00  0.00     0.159 A 
HETATM    5  N6  UNL     1      -7.460   9.978 -33.518  1.00  0.00    -0.302 N 
ATOM      6  H6  UNL     1      -7.194   9.094 -33.084  1.00  0.00     0.171 HD
HETATM    7  C26 UNL     1      -8.621  10.554 -33.192  1.00  0.00     0.262 A 
HETATM    8  O5  UNL     1      -9.407  10.030 -32.350  1.00  0.00    -0.267 OA
ENDROOT
BRANCH   1   9
HETATM    9  C8  UNL     1     -10.307  12.351 -33.415  1.00  0.00     0.093 A 
HETATM   10  S1  UNL     1     -10.835  13.956 -33.306  1.00  0.00    -0.079 SA
HETATM   11  C7  UNL     1     -12.459  13.665 -32.828  1.00  0.00     0.100 A 
HETATM   12  C6  UNL     1     -12.479  12.290 -32.784  1.00  0.00     0.108 A 
HETATM   13  N7  UNL     1     -11.385  11.665 -33.084  1.00  0.00    -0.336 N 
ATOM     14  H7  UNL     1     -11.357  10.646 -33.066  1.00  0.00     0.168 HD
BRANCH  12  15
HETATM   15  N3  UNL     1     -13.704  11.609 -32.395  1.00  0.00    -0.370 N 
ATOM     16  H3  UNL     1     -13.694  11.028 -31.556  1.00  0.00     0.161 HD
BRANCH  15  17
HETATM   17  C4  UNL     1     -14.911  11.716 -33.132  1.00  0.00     0.096 C 
HETATM   18  C5  UNL     1     -15.801  10.516 -32.901  1.00  0.00     0.034 C 
BRANCH  17  19
HETATM   19  C3  UNL     1     -15.732  12.955 -32.845  1.00  0.00     0.145 C 
BRANCH  19  20
HETATM   20  N2  UNL     1     -16.782  13.006 -33.844  1.00  0.00    -0.379 N 
ATOM     21  H2  UNL     1     -16.586  12.661 -34.784  1.00  0.00     0.160 HD
BRANCH  20  22
HETATM   22  C2  UNL     1     -18.088  13.527 -33.553  1.00  0.00     0.066 C 
HETATM   23  C1  UNL     1     -18.183  14.671 -32.619  1.00  0.00     0.088 C 
HETATM   24  N1  UNL     1     -19.132  13.003 -34.095  1.00  0.00    -0.389 N 
ATOM     25  H12 UNL     1     -20.060  13.373 -33.888  1.00  0.00     0.157 HD
ATOM     26  H11 UNL     1     -19.067  12.214 -34.738  1.00  0.00     0.157 HD
ENDBRANCH  20  22
ENDBRANCH  19  20
ENDBRANCH  17  19
ENDBRANCH  15  17
ENDBRANCH  12  15
ENDBRANCH   1   9
BRANCH   2  27
HETATM   27  N4  UNL     1      -8.498  13.568 -35.261  1.00  0.00    -0.349 N 
ATOM     28  H4  UNL     1      -8.175  14.440 -34.843  1.00  0.00     0.166 HD
BRANCH  27  29
HETATM   29  C11 UNL     1      -9.287  13.584 -36.461  1.00  0.00     0.118 A 
HETATM   30  C12 UNL     1      -9.996  14.501 -37.176  1.00  0.00     0.116 A 
HETATM   31  C20 UNL     1     -10.343  13.536 -38.116  1.00  0.00     0.252 A 
HETATM   32  O1  UNL     1     -11.013  13.502 -39.165  1.00  0.00    -0.281 OA
HETATM   33  C21 UNL     1      -9.639  12.616 -37.408  1.00  0.00     0.253 A 
HETATM   34  O2  UNL     1      -9.377  11.397 -37.511  1.00  0.00    -0.281 OA
BRANCH  30  35
HETATM   35  N5  UNL     1     -10.343  15.878 -37.142  1.00  0.00    -0.372 N 
HETATM   36  C13 UNL     1      -9.822  16.749 -38.179  1.00  0.00     0.160 C 
HETATM   37  C14 UNL     1      -9.348  18.069 -37.613  1.00  0.00     0.188 C 
HETATM   38  F1  UNL     1      -7.980  18.258 -37.815  1.00  0.00    -0.248 F 
HETATM   39  C15 UNL     1      -9.611  18.190 -36.145  1.00  0.00     0.049 C 
HETATM   40  C16 UNL     1     -10.984  17.782 -35.726  1.00  0.00    -0.029 C 
HETATM   41  C17 UNL     1     -11.061  17.919 -34.205  1.00  0.00     0.016 C 
HETATM   42  C18 UNL     1     -12.065  18.639 -36.350  1.00  0.00     0.016 C 
HETATM   43  C19 UNL     1     -11.184  16.325 -36.070  1.00  0.00     0.132 C 
ENDBRANCH  30  35
ENDBRANCH  27  29
ENDBRANCH   2  27
BRANCH   3  44
HETATM   44  C23 UNL     1      -6.097  12.367 -36.007  1.00  0.00     0.162 C 
HETATM   45  C24 UNL     1      -5.965  11.796 -37.372  1.00  0.00     0.097 C 
HETATM   46  O3  UNL     1      -5.402  13.407 -35.807  1.00  0.00    -0.293 OA
ENDBRANCH   3  44
BRANCH   4  47
HETATM   47  O4  UNL     1      -5.427   9.878 -34.708  1.00  0.00    -0.345 OA
ATOM     48  H4  UNL     1      -5.247   9.004 -34.384  1.00  0.00     0.219 HD
ENDBRANCH   4  47
TORSDOF 11
ENDMDL
MODEL 3
REMARK VINA RESULT: -5.866140224      3.067      4.938
REMARK  11 active torsions:
REMARK  status: ('A' for Active; 'I' for Inactive)
REMARK    1  A    between atoms: C2_2  and  N2_6 
REMARK    2  A    between atoms: N2_6  and  C3_8 
REMARK    3  A    between atoms: C3_8  and  C4_9 
REMARK    4  A    between atoms: C4_9  and  N3_11 
REMARK    5  A    between atoms: N3_11  and  C6_13 
REMARK    6  A    between atoms: C8_16  and  C9_17 
REMARK    7  A    between atoms: C10_18  and  N4_19 
REMARK    8  A    between atoms: N4_19  and  C11_21 
REMARK    9  A    between atoms: C12_22  and  N5_23 
REMARK   10  A    between atoms: C22_36  and  C23_37 
REMARK   11  A    between atoms: C25_40  and  O4_41 
ROOT
HETATM    1  C9  UNL     1      -9.905  13.650 -36.783  1.00  0.00     0.093 A 
HETATM    2  C10 UNL     1      -8.604  13.393 -37.095  1.00  0.00     0.069 A 
HETATM    3  C22 UNL     1      -8.214  13.002 -38.381  1.00  0.00     0.088 A 
HETATM    4  C25 UNL     1      -9.189  12.877 -39.333  1.00  0.00     0.159 A 
HETATM    5  N6  UNL     1     -10.498  13.129 -39.035  1.00  0.00    -0.302 N 
ATOM      6  H6  UNL     1     -11.210  13.030 -39.759  1.00  0.00     0.171 HD
HETATM    7  C26 UNL     1     -10.853  13.503 -37.802  1.00  0.00     0.262 A 
HETATM    8  O5  UNL     1     -12.060  13.741 -37.504  1.00  0.00    -0.267 OA
ENDROOT
BRANCH   1   9
HETATM    9  C8  UNL     1     -10.320  14.093 -35.459  1.00  0.00     0.093 A 
HETATM   10  S1  UNL     1      -9.904  15.448 -34.533  1.00  0.00    -0.079 SA
HETATM   11  C7  UNL     1     -10.864  15.121 -33.146  1.00  0.00     0.100 A 
HETATM   12  C6  UNL     1     -11.464  13.938 -33.513  1.00  0.00     0.108 A 
HETATM   13  N7  UNL     1     -11.169  13.453 -34.677  1.00  0.00    -0.336 N 
ATOM     14  H7  UNL     1     -11.592  12.579 -34.989  1.00  0.00     0.168 HD
BRANCH  12  15
HETATM   15  N3  UNL     1     -12.377  13.286 -32.588  1.00  0.00    -0.370 N 
ATOM     16  H3  UNL     1     -12.305  13.508 -31.594  1.00  0.00     0.161 HD
BRANCH  15  17
HETATM   17  C4  UNL     1     -13.363  12.356 -33.005  1.00  0.00     0.096 C 
HETATM   18  C5  UNL     1     -13.144  11.004 -32.367  1.00  0.00     0.034 C 
BRANCH  17  19
HETATM   19  C3  UNL     1     -14.793  12.767 -32.728  1.00  0.00     0.145 C 
BRANCH  19  20
HETATM   20  N2  UNL     1     -15.608  11.576 -32.866  1.00  0.00    -0.379 N 
ATOM     21  H2  UNL     1     -15.252  10.689 -32.508  1.00  0.00     0.160 HD
BRANCH  20  22
HETATM   22  C2  UNL     1     -16.901  11.604 -33.490  1.00  0.00     0.066 C 
HETATM   23  C1  UNL     1     -17.107  12.547 -34.611  1.00  0.00     0.088 C 
HETATM   24  N1  UNL     1     -17.841  10.827 -33.073  1.00  0.00    -0.389 N 
ATOM     25  H12 UNL     1     -18.759  10.847 -33.516  1.00  0.00     0.157 HD
ATOM     26  H11 UNL     1     -17.699  10.178 -32.300  1.00  0.00     0.157 HD
ENDBRANCH  20  22
ENDBRANCH  19  20
ENDBRANCH  17  19
ENDBRANCH  15  17
ENDBRANCH  12  15
ENDBRANCH   1   9
BRANCH   2  27
HETATM   27  N4  UNL     1      -7.607  13.488 -36.117  1.00  0.00    -0.349 N 
ATOM     28  H4  UNL     1      -7.160  14.383 -35.920  1.00  0.00     0.166 HD
BRANCH  27  29
HETATM   29  C11 UNL     1      -7.221  12.308 -35.394  1.00  0.00     0.118 A 
HETATM   30  C12 UNL     1      -6.080  11.595 -35.183  1.00  0.00     0.116 A 
HETATM   31  C20 UNL     1      -6.762  10.693 -34.375  1.00  0.00     0.252 A 
HETATM   32  O1  UNL     1      -6.475   9.668 -33.729  1.00  0.00    -0.281 OA
HETATM   33  C21 UNL     1      -7.905  11.396 -34.581  1.00  0.00     0.253 A 
HETATM   34  O2  UNL     1      -9.100  11.314 -34.221  1.00  0.00    -0.281 OA
BRANCH  30  35
HETATM   35  N5  UNL     1      -4.704  11.611 -35.539  1.00  0.00    -0.372 N 
HETATM   36  C13 UNL     1      -3.925  12.799 -35.244  1.00  0.00     0.160 C 
HETATM   37  C14 UNL     1      -3.010  13.165 -36.391  1.00  0.00     0.188 C 
HETATM   38  F1  UNL     1      -3.322  14.416 -36.924  1.00  0.00    -0.248 F 
HETATM   39  C15 UNL     1      -3.064  12.169 -37.507  1.00  0.00     0.049 C 
HETATM   40  C16 UNL     1      -2.988  10.744 -37.070  1.00  0.00    -0.029 C 
HETATM   41  C17 UNL     1      -3.108   9.873 -38.321  1.00  0.00     0.016 C 
HETATM   42  C18 UNL     1      -1.687  10.416 -36.367  1.00  0.00     0.016 C 
HETATM   43  C19 UNL     1      -4.172  10.445 -36.182  1.00  0.00     0.132 C 
ENDBRANCH  30  35
ENDBRANCH  27  29
ENDBRANCH   2  27
BRANCH   3  44
HETATM   44  C23 UNL     1      -6.823  12.759 -38.689  1.00  0.00     0.162 C 
HETATM   45  C24 UNL     1      -5.926  13.874 -39.085  1.00  0.00     0.097 C 
HETATM   46  O3  UNL     1      -6.262  11.624 -38.654  1.00  0.00    -0.293 OA
ENDBRANCH   3  44
BRANCH   4  47
HETATM   47  O4  UNL     1      -8.914  12.489 -40.660  1.00  0.00    -0.345 OA
ATOM     48  H4  UNL     1      -9.364  11.771 -41.089  1.00  0.00     0.219 HD
ENDBRANCH   4  47
TORSDOF 11
ENDMDL
MODEL 4
REMARK VINA RESULT: -5.839706731      2.796      6.306
REMARK  11 active torsions:
REMARK  status: ('A' for Active; 'I' for Inactive)
REMARK    1  A    between atoms: C2_2  and  N2_6 
REMARK    2  A    between atoms: N2_6  and  C3_8 
REMARK    3  A    between atoms: C3_8  and  C4_9 
REMARK    4  A    between atoms: C4_9  and  N3_11 
REMARK    5  A    between atoms: N3_11  and  C6_13 
REMARK    6  A    between atoms: C8_16  and  C9_17 
REMARK    7  A    between atoms: C10_18  and  N4_19 
REMARK    8  A    between atoms: N4_19  and  C11_21 
REMARK    9  A    between atoms: C12_22  and  N5_23 
REMARK   10  A    between atoms: C22_36  and  C23_37 
REMARK   11  A    between atoms: C25_40  and  O4_41 
ROOT
HETATM    1  C9  UNL     1      -7.457  11.531 -34.633  1.00  0.00     0.093 A 
HETATM    2  C10 UNL     1      -8.481  12.423 -34.515  1.00  0.00     0.069 A 
HETATM    3  C22 UNL     1      -9.561  12.201 -33.653  1.00  0.00     0.088 A 
HETATM    4  C25 UNL     1      -9.566  11.044 -32.922  1.00  0.00     0.159 A 
HETATM    5  N6  UNL     1      -8.548  10.139 -33.031  1.00  0.00    -0.302 N 
ATOM      6  H6  UNL     1      -8.571   9.283 -32.477  1.00  0.00     0.171 HD
HETATM    7  C26 UNL     1      -7.523  10.368 -33.857  1.00  0.00     0.262 A 
HETATM    8  O5  UNL     1      -6.570   9.544 -33.974  1.00  0.00    -0.267 OA
ENDROOT
BRANCH   1   9
HETATM    9  C8  UNL     1      -6.309  11.767 -35.498  1.00  0.00     0.093 A 
HETATM   10  S1  UNL     1      -4.810  12.503 -35.220  1.00  0.00    -0.079 SA
HETATM   11  C7  UNL     1      -4.138  12.327 -36.791  1.00  0.00     0.100 A 
HETATM   12  C6  UNL     1      -5.163  11.685 -37.446  1.00  0.00     0.108 A 
HETATM   13  N7  UNL     1      -6.234  11.420 -36.768  1.00  0.00    -0.336 N 
ATOM     14  H7  UNL     1      -7.018  10.945 -37.216  1.00  0.00     0.168 HD
BRANCH  12  15
HETATM   15  N3  UNL     1      -5.008  11.350 -38.853  1.00  0.00    -0.370 N 
ATOM     16  H3  UNL     1      -4.349  10.615 -39.110  1.00  0.00     0.161 HD
BRANCH  15  17
HETATM   17  C4  UNL     1      -5.734  12.000 -39.884  1.00  0.00     0.096 C 
HETATM   18  C5  UNL     1      -4.808  12.738 -40.822  1.00  0.00     0.034 C 
BRANCH  17  19
HETATM   19  C3  UNL     1      -6.609  11.094 -40.724  1.00  0.00     0.145 C 
BRANCH  19  20
HETATM   20  N2  UNL     1      -7.984  11.456 -40.441  1.00  0.00    -0.379 N 
ATOM     21  H2  UNL     1      -8.171  12.200 -39.770  1.00  0.00     0.160 HD
BRANCH  20  22
HETATM   22  C2  UNL     1      -9.092  10.799 -41.076  1.00  0.00     0.066 C 
HETATM   23  C1  UNL     1      -8.891  10.271 -42.444  1.00  0.00     0.088 C 
HETATM   24  N1  UNL     1     -10.218  10.682 -40.461  1.00  0.00    -0.389 N 
ATOM     25  H12 UNL     1     -11.005  10.216 -40.912  1.00  0.00     0.157 HD
ATOM     26  H11 UNL     1     -10.357  11.046 -39.519  1.00  0.00     0.157 HD
ENDBRANCH  20  22
ENDBRANCH  19  20
ENDBRANCH  17  19
ENDBRANCH  15  17
ENDBRANCH  12  15
ENDBRANCH   1   9
BRANCH   2  27
HETATM   27  N4  UNL     1      -8.497  13.592 -35.285  1.00  0.00    -0.349 N 
ATOM     28  H4  UNL     1      -7.991  14.421 -34.975  1.00  0.00     0.166 HD
BRANCH  27  29
HETATM   29  C11 UNL     1      -9.236  13.609 -36.516  1.00  0.00     0.118 A 
HETATM   30  C12 UNL     1      -9.924  14.524 -37.255  1.00  0.00     0.116 A 
HETATM   31  C20 UNL     1     -10.223  13.562 -38.213  1.00  0.00     0.252 A 
HETATM   32  O1  UNL     1     -10.849  13.529 -39.289  1.00  0.00    -0.281 OA
HETATM   33  C21 UNL     1      -9.541  12.643 -37.483  1.00  0.00     0.253 A 
HETATM   34  O2  UNL     1      -9.265  11.428 -37.582  1.00  0.00    -0.281 OA
BRANCH  30  35
HETATM   35  N5  UNL     1     -10.283  15.898 -37.227  1.00  0.00    -0.372 N 
HETATM   36  C13 UNL     1      -9.752  16.774 -38.254  1.00  0.00     0.160 C 
HETATM   37  C14 UNL     1      -9.300  18.098 -37.680  1.00  0.00     0.188 C 
HETATM   38  F1  UNL     1      -7.931  18.299 -37.856  1.00  0.00    -0.248 F 
HETATM   39  C15 UNL     1      -9.592  18.216 -36.216  1.00  0.00     0.049 C 
HETATM   40  C16 UNL     1     -10.968  17.796 -35.822  1.00  0.00    -0.029 C 
HETATM   41  C17 UNL     1     -11.074  17.931 -34.303  1.00  0.00     0.016 C 
HETATM   42  C18 UNL     1     -12.045  18.642 -36.466  1.00  0.00     0.016 C 
HETATM   43  C19 UNL     1     -11.148  16.337 -36.170  1.00  0.00     0.132 C 
ENDBRANCH  30  35
ENDBRANCH  27  29
ENDBRANCH   2  27
BRANCH   3  44
HETATM   44  C23 UNL     1     -10.622  13.174 -33.531  1.00  0.00     0.162 C 
HETATM   45  C24 UNL     1     -10.334  14.559 -33.080  1.00  0.00     0.097 C 
HETATM   46  O3  UNL     1     -11.843  12.950 -33.785  1.00  0.00    -0.293 OA
ENDBRANCH   3  44
BRANCH   4  47
HETATM   47  O4  UNL     1     -10.601  10.713 -32.024  1.00  0.00    -0.345 OA
ATOM     48  H4  UNL     1     -11.521  10.822 -32.237  1.00  0.00     0.219 HD
ENDBRANCH   4  47
TORSDOF 11
ENDMDL
MODEL 5
REMARK VINA RESULT: -5.786104298      2.863      5.512
REMARK  11 active torsions:
REMARK  status: ('A' for Active; 'I' for Inactive)
REMARK    1  A    between atoms: C2_2  and  N2_6 
REMARK    2  A    between atoms: N2_6  and  C3_8 
REMARK    3  A    between atoms: C3_8  and  C4_9 
REMARK    4  A    between atoms: C4_9  and  N3_11 
REMARK    5  A    between atoms: N3_11  and  C6_13 
REMARK    6  A    between atoms: C8_16  and  C9_17 
REMARK    7  A    between atoms: C10_18  and  N4_19 
REMARK    8  A    between atoms: N4_19  and  C11_21 
REMARK    9  A    between atoms: C12_22  and  N5_23 
REMARK   10  A    between atoms: C22_36  and  C23_37 
REMARK   11  A    between atoms: C25_40  and  O4_41 
ROOT
HETATM    1  C9  UNL     1     -10.321  15.745 -36.775  1.00  0.00     0.093 A 
HETATM    2  C10 UNL     1      -9.990  15.975 -35.474  1.00  0.00     0.069 A 
HETATM    3  C22 UNL     1     -10.544  17.034 -34.745  1.00  0.00     0.088 A 
HETATM    4  C25 UNL     1     -11.438  17.850 -35.384  1.00  0.00     0.159 A 
HETATM    5  N6  UNL     1     -11.778  17.633 -36.689  1.00  0.00    -0.302 N 
ATOM      6  H6  UNL     1     -12.447  18.253 -37.147  1.00  0.00     0.171 HD
HETATM    7  C26 UNL     1     -11.242  16.616 -37.370  1.00  0.00     0.262 A 
HETATM    8  O5  UNL     1     -11.542  16.398 -38.580  1.00  0.00    -0.267 OA
ENDROOT
BRANCH   1   9
HETATM    9  C8  UNL     1      -9.781  14.626 -37.534  1.00  0.00     0.093 A 
HETATM   10  S1  UNL     1      -8.331  14.422 -38.383  1.00  0.00    -0.079 SA
HETATM   11  C7  UNL     1      -8.579  12.817 -38.944  1.00  0.00     0.100 A 
HETATM   12  C6  UNL     1      -9.818  12.541 -38.412  1.00  0.00     0.108 A 
HETATM   13  N7  UNL     1     -10.389  13.468 -37.711  1.00  0.00    -0.336 N 
ATOM     14  H7  UNL     1     -11.307  13.304 -37.298  1.00  0.00     0.168 HD
BRANCH  12  15
HETATM   15  N3  UNL     1     -10.428  11.245 -38.666  1.00  0.00    -0.370 N 
ATOM     16  H3  UNL     1     -10.188  10.464 -38.054  1.00  0.00     0.161 HD
BRANCH  15  17
HETATM   17  C4  UNL     1     -11.341  11.019 -39.727  1.00  0.00     0.096 C 
HETATM   18  C5  UNL     1     -10.616  10.725 -41.020  1.00  0.00     0.034 C 
BRANCH  17  19
HETATM   19  C3  UNL     1     -12.334   9.900 -39.494  1.00  0.00     0.145 C 
BRANCH  19  20
HETATM   20  N2  UNL     1     -13.346  10.013 -40.526  1.00  0.00    -0.379 N 
ATOM     21  H2  UNL     1     -13.390   9.301 -41.256  1.00  0.00     0.160 HD
BRANCH  20  22
HETATM   22  C2  UNL     1     -14.290  11.095 -40.555  1.00  0.00     0.066 C 
HETATM   23  C1  UNL     1     -14.373  11.907 -41.789  1.00  0.00     0.088 C 
HETATM   24  N1  UNL     1     -15.031  11.338 -39.530  1.00  0.00    -0.389 N 
ATOM     25  H12 UNL     1     -15.701  12.107 -39.550  1.00  0.00     0.157 HD
ATOM     26  H11 UNL     1     -14.974  10.780 -38.679  1.00  0.00     0.157 HD
ENDBRANCH  20  22
ENDBRANCH  19  20
ENDBRANCH  17  19
ENDBRANCH  15  17
ENDBRANCH  12  15
ENDBRANCH   1   9
BRANCH   2  27
HETATM   27  N4  UNL     1      -9.052  15.164 -34.825  1.00  0.00    -0.349 N 
ATOM     28  H4  UNL     1      -8.083  15.470 -34.730  1.00  0.00     0.166 HD
BRANCH  27  29
HETATM   29  C11 UNL     1      -9.469  13.896 -34.295  1.00  0.00     0.118 A 
HETATM   30  C12 UNL     1      -9.002  12.617 -34.282  1.00  0.00     0.116 A 
HETATM   31  C20 UNL     1     -10.095  12.198 -33.533  1.00  0.00     0.252 A 
HETATM   32  O1  UNL     1     -10.496  11.123 -33.049  1.00  0.00    -0.281 OA
HETATM   33  C21 UNL     1     -10.569  13.471 -33.541  1.00  0.00     0.253 A 
HETATM   34  O2  UNL     1     -11.565  14.072 -33.083  1.00  0.00    -0.281 OA
BRANCH  30  35
HETATM   35  N5  UNL     1      -7.904  11.854 -34.762  1.00  0.00    -0.372 N 
HETATM   36  C13 UNL     1      -7.852  10.439 -34.444  1.00  0.00     0.160 C 
HETATM   37  C14 UNL     1      -6.458  10.006 -34.050  1.00  0.00     0.188 C 
HETATM   38  F1  UNL     1      -6.413   9.535 -32.738  1.00  0.00    -0.248 F 
HETATM   39  C15 UNL     1      -5.459  11.114 -34.169  1.00  0.00     0.049 C 
HETATM   40  C16 UNL     1      -5.542  11.889 -35.442  1.00  0.00    -0.029 C 
HETATM   41  C17 UNL     1      -4.495  13.002 -35.372  1.00  0.00     0.016 C 
HETATM   42  C18 UNL     1      -5.271  11.038 -36.664  1.00  0.00     0.016 C 
HETATM   43  C19 UNL     1      -6.902  12.539 -35.527  1.00  0.00     0.132 C 
ENDBRANCH  30  35
ENDBRANCH  27  29
ENDBRANCH   2  27
BRANCH   3  44
HETATM   44  C23 UNL     1     -10.192  17.240 -33.358  1.00  0.00     0.162 C 
HETATM   45  C24 UNL     1      -8.817  17.653 -32.977  1.00  0.00     0.097 C 
HETATM   46  O3  UNL     1     -10.985  17.096 -32.381  1.00  0.00    -0.293 OA
ENDBRANCH   3  44
BRANCH   4  47
HETATM   47  O4  UNL     1     -12.058  18.946 -34.750  1.00  0.00    -0.345 OA
ATOM     48  H4  UNL     1     -11.614  19.487 -34.108  1.00  0.00     0.219 HD
ENDBRANCH   4  47
TORSDOF 11
ENDMDL
