MODEL 1
REMARK VINA RESULT: -6.951470648      0.000      0.000
REMARK  15 active torsions:
REMARK  status: ('A' for Active; 'I' for Inactive)
REMARK    1  A    between atoms: C2_2  and  O1_3 
REMARK    2  A    between atoms: C3_5  and  C4_7 
REMARK    3  A    between atoms: C5_8  and  O2_9 
REMARK    4  A    between atoms: N1_15  and  C9_16 
REMARK    5  A    between atoms: C9_16  and  O4_17 
REMARK    6  A    between atoms: C9_16  and  O5_19 
REMARK    7  A    between atoms: O5_19  and  C10_20 
REMARK    8  A    between atoms: C11_21  and  O6_22 
REMARK    9  A    between atoms: C14_26  and  C15_27 
REMARK   10  A    between atoms: C15_27  and  S1_28 
REMARK   11  A    between atoms: S1_28  and  S2_29 
REMARK   12  A    between atoms: S2_29  and  C16_30 
REMARK   13  A    between atoms: C16_30  and  C17_31 
REMARK   14  A    between atoms: C18_32  and  C20_35 
REMARK   15  A    between atoms: C22_39  and  N4_40 
ROOT
HETATM    1  C17 UNL     1     -10.913  14.322 -33.897  1.00  0.00     0.008 C 
HETATM    2  C18 UNL     1     -11.138  13.126 -33.469  1.00  0.00     0.060 C 
HETATM    3  C19 UNL     1     -12.509  12.792 -33.039  1.00  0.00     0.100 C 
HETATM    4  N2  UNL     1     -13.580  12.550 -32.700  1.00  0.00    -0.191 NA
ENDROOT
BRANCH   2   5
HETATM    5  C20 UNL     1     -10.186  12.022 -33.357  1.00  0.00     0.044 A 
HETATM    6  C21 UNL     1     -10.323  10.862 -32.631  1.00  0.00     0.110 A 
HETATM    7  N3  UNL     1      -9.356   9.999 -32.668  1.00  0.00    -0.345 N 
HETATM    8  C22 UNL     1      -8.276  10.254 -33.394  1.00  0.00     0.142 A 
ATOM      9  H3  UNL     1      -9.425   9.129 -32.141  1.00  0.00     0.167 HD
HETATM   10  S3  UNL     1      -8.636  11.779 -34.057  1.00  0.00    -0.052 SA
BRANCH   8  11
HETATM   11  N4  UNL     1      -7.207   9.497 -33.545  1.00  0.00    -0.380 N 
ATOM     12  H42 UNL     1      -6.947   8.631 -33.073  1.00  0.00     0.158 HD
ATOM     13  H41 UNL     1      -6.422   9.643 -34.180  1.00  0.00     0.158 HD
ENDBRANCH   8  11
ENDBRANCH   2   5
BRANCH   1  14
HETATM   14  C16 UNL     1      -9.682  14.962 -34.388  1.00  0.00     0.114 C 
BRANCH  14  15
HETATM   15  S2  UNL     1     -10.113  16.517 -35.225  1.00  0.00    -0.094 SA
BRANCH  15  16
HETATM   16  S1  UNL     1      -8.793  18.095 -34.793  1.00  0.00    -0.097 SA
BRANCH  16  17
HETATM   17  C15 UNL     1      -8.997  18.637 -33.108  1.00  0.00     0.093 C 
BRANCH  17  18
HETATM   18  C14 UNL     1      -8.436  20.009 -32.833  1.00  0.00     0.027 C 
HETATM   19  C10 UNL     1      -8.794  20.565 -31.498  1.00  0.00     0.160 C 
HETATM   20  C11 UNL     1     -10.295  20.677 -31.576  1.00  0.00     0.147 C 
HETATM   21  C12 UNL     1     -10.552  21.028 -33.004  1.00  0.00     0.035 C 
HETATM   22  C13 UNL     1      -9.234  20.960 -33.743  1.00  0.00     0.010 C 
BRANCH  19  23
HETATM   23  O5  UNL     1      -8.323  19.890 -30.420  1.00  0.00    -0.336 OA
BRANCH  23  24
HETATM   24  C9  UNL     1      -6.944  19.692 -30.498  1.00  0.00     0.371 C 
BRANCH  24  25
HETATM   25  N1  UNL     1      -6.223  20.672 -29.691  1.00  0.00    -0.330 N 
HETATM   26  C4  UNL     1      -6.680  21.989 -29.461  1.00  0.00     0.172 C 
HETATM   27  C5  UNL     1      -5.549  23.041 -29.496  1.00  0.00     0.220 C 
HETATM   28  C6  UNL     1      -4.371  22.607 -28.743  1.00  0.00     0.181 C 
HETATM   29  O3  UNL     1      -3.646  23.440 -28.152  1.00  0.00    -0.290 OA
HETATM   30  C7  UNL     1      -4.065  21.163 -28.701  1.00  0.00     0.070 C 
HETATM   31  C8  UNL     1      -4.950  20.288 -29.150  1.00  0.00     0.095 C 
BRANCH  26  32
HETATM   32  C3  UNL     1      -7.515  22.316 -28.325  1.00  0.00     0.066 C 
HETATM   33  C2  UNL     1      -7.956  21.683 -27.303  1.00  0.00     0.059 C 
HETATM   34  C1  UNL     1      -7.713  20.285 -26.974  1.00  0.00     0.077 C 
HETATM   35 CL1  UNL     1      -8.049  24.064 -28.367  1.00  0.00    -0.084 Cl
BRANCH  33  36
HETATM   36  O1  UNL     1      -8.765  22.376 -26.374  1.00  0.00    -0.364 OA
ATOM     37  H1  UNL     1      -8.411  23.208 -26.082  1.00  0.00     0.217 HD
ENDBRANCH  33  36
ENDBRANCH  26  32
BRANCH  27  38
HETATM   38  O2  UNL     1      -5.218  23.330 -30.817  1.00  0.00    -0.385 OA
ATOM     39  H2  UNL     1      -4.850  22.558 -31.231  1.00  0.00     0.210 HD
ENDBRANCH  27  38
ENDBRANCH  24  25
BRANCH  24  40
HETATM   40  O4  UNL     1      -6.663  18.382 -30.178  1.00  0.00    -0.354 OA
ATOM     41  H4  UNL     1      -6.691  18.194 -29.248  1.00  0.00     0.214 HD
ENDBRANCH  24  40
ENDBRANCH  23  24
ENDBRANCH  19  23
BRANCH  20  42
HETATM   42  O6  UNL     1     -10.968  19.580 -31.110  1.00  0.00    -0.393 OA
ATOM     43  H6  UNL     1     -11.667  19.779 -30.498  1.00  0.00     0.210 HD
ENDBRANCH  20  42
ENDBRANCH  17  18
ENDBRANCH  16  17
ENDBRANCH  15  16
ENDBRANCH  14  15
ENDBRANCH   1  14
TORSDOF 15
ENDMDL
MODEL 2
REMARK VINA RESULT: -6.909098970      5.006      8.234
REMARK  15 active torsions:
REMARK  status: ('A' for Active; 'I' for Inactive)
REMARK    1  A    between atoms: C2_2  and  O1_3 
REMARK    2  A    between atoms: C3_5  and  C4_7 
REMARK    3  A    between atoms: C5_8  and  O2_9 
REMARK    4  A    between atoms: N1_15  and  C9_16 
REMARK    5  A    between atoms: C9_16  and  O4_17 
REMARK    6  A    between atoms: C9_16  and  O5_19 
REMARK    7  A    between atoms: O5_19  and  C10_20 
REMARK    8  A    between atoms: C11_21  and  O6_22 
REMARK    9  A    between atoms: C14_26  and  C15_27 
REMARK   10  A    between atoms: C15_27  and  S1_28 
REMARK   11  A    between atoms: S1_28  and  S2_29 
REMARK   12  A    between atoms: S2_29  and  C16_30 
REMARK   13  A    between atoms: C16_30  and  C17_31 
REMARK   14  A    between atoms: C18_32  and  C20_35 
REMARK   15  A    between atoms: C22_39  and  N4_40 
ROOT
HETATM    1  C17 UNL     1     -16.917  13.016 -33.670  1.00  0.00     0.008 C 
HETATM    2  C18 UNL     1     -18.065  13.601 -33.726  1.00  0.00     0.060 C 
HETATM    3  C19 UNL     1     -18.671  13.809 -35.055  1.00  0.00     0.100 C 
HETATM    4  N2  UNL     1     -19.125  13.972 -36.098  1.00  0.00    -0.191 NA
ENDROOT
BRANCH   2   5
HETATM    5  C20 UNL     1     -18.873  14.094 -32.612  1.00  0.00     0.044 A 
HETATM    6  C21 UNL     1     -20.000  13.520 -32.071  1.00  0.00     0.110 A 
HETATM    7  N3  UNL     1     -20.573  14.120 -31.074  1.00  0.00    -0.345 N 
HETATM    8  C22 UNL     1     -20.065  15.253 -30.609  1.00  0.00     0.142 A 
ATOM      9  H3  UNL     1     -21.410  13.722 -30.649  1.00  0.00     0.167 HD
HETATM   10  S3  UNL     1     -18.717  15.489 -31.621  1.00  0.00    -0.052 SA
BRANCH   8  11
HETATM   11  N4  UNL     1     -20.513  15.990 -29.612  1.00  0.00    -0.380 N 
ATOM     12  H42 UNL     1     -20.198  16.042 -28.643  1.00  0.00     0.158 HD
ATOM     13  H41 UNL     1     -21.279  16.664 -29.627  1.00  0.00     0.158 HD
ENDBRANCH   8  11
ENDBRANCH   2   5
BRANCH   1  14
HETATM   14  C16 UNL     1     -16.061  12.666 -32.525  1.00  0.00     0.114 C 
BRANCH  14  15
HETATM   15  S2  UNL     1     -14.545  11.870 -33.138  1.00  0.00    -0.094 SA
BRANCH  15  16
HETATM   16  S1  UNL     1     -12.798  12.961 -32.720  1.00  0.00    -0.097 SA
BRANCH  16  17
HETATM   17  C15 UNL     1     -11.489  12.498 -33.837  1.00  0.00     0.093 C 
BRANCH  17  18
HETATM   18  C14 UNL     1     -10.140  13.059 -33.468  1.00  0.00     0.027 C 
HETATM   19  C10 UNL     1      -9.706  14.218 -34.297  1.00  0.00     0.160 C 
HETATM   20  C11 UNL     1      -9.605  13.619 -35.677  1.00  0.00     0.147 C 
HETATM   21  C12 UNL     1      -9.135  12.225 -35.427  1.00  0.00     0.035 C 
HETATM   22  C13 UNL     1      -9.123  12.001 -33.931  1.00  0.00     0.010 C 
BRANCH  19  23
HETATM   23  O5  UNL     1     -10.466  15.338 -34.211  1.00  0.00    -0.336 OA
BRANCH  23  24
HETATM   24  C9  UNL     1     -10.207  16.046 -33.037  1.00  0.00     0.371 C 
BRANCH  24  25
HETATM   25  N1  UNL     1      -9.756  17.404 -33.328  1.00  0.00    -0.330 N 
HETATM   26  C4  UNL     1     -10.517  18.346 -34.055  1.00  0.00     0.172 C 
HETATM   27  C5  UNL     1      -9.669  19.195 -35.028  1.00  0.00     0.220 C 
HETATM   28  C6  UNL     1      -8.436  19.679 -34.403  1.00  0.00     0.181 C 
HETATM   29  O3  UNL     1      -7.942  20.782 -34.731  1.00  0.00    -0.290 OA
HETATM   30  C7  UNL     1      -7.796  18.832 -33.376  1.00  0.00     0.070 C 
HETATM   31  C8  UNL     1      -8.439  17.779 -32.896  1.00  0.00     0.095 C 
BRANCH  26  32
HETATM   32  C3  UNL     1     -11.429  19.257 -33.397  1.00  0.00     0.066 C 
HETATM   33  C2  UNL     1     -12.534  19.826 -33.705  1.00  0.00     0.059 C 
HETATM   34  C1  UNL     1     -13.255  19.701 -34.965  1.00  0.00     0.077 C 
HETATM   35 CL1  UNL     1     -10.857  19.676 -31.712  1.00  0.00    -0.084 Cl
BRANCH  33  36
HETATM   36  O1  UNL     1     -13.150  20.671 -32.754  1.00  0.00    -0.364 OA
ATOM     37  H1  UNL     1     -14.058  20.464 -32.569  1.00  0.00     0.217 HD
ENDBRANCH  33  36
ENDBRANCH  26  32
BRANCH  27  38
HETATM   38  O2  UNL     1      -9.389  18.457 -36.174  1.00  0.00    -0.385 OA
ATOM     39  H2  UNL     1      -8.479  18.183 -36.165  1.00  0.00     0.210 HD
ENDBRANCH  27  38
ENDBRANCH  24  25
BRANCH  24  40
HETATM   40  O4  UNL     1     -11.316  15.983 -32.224  1.00  0.00    -0.354 OA
ATOM     41  H4  UNL     1     -11.626  15.101 -32.057  1.00  0.00     0.214 HD
ENDBRANCH  24  40
ENDBRANCH  23  24
ENDBRANCH  19  23
BRANCH  20  42
HETATM   42  O6  UNL     1     -10.746  13.729 -36.425  1.00  0.00    -0.393 OA
ATOM     43  H6  UNL     1     -10.925  14.607 -36.741  1.00  0.00     0.210 HD
ENDBRANCH  20  42
ENDBRANCH  17  18
ENDBRANCH  16  17
ENDBRANCH  15  16
ENDBRANCH  14  15
ENDBRANCH   1  14
TORSDOF 15
ENDMDL
MODEL 3
REMARK VINA RESULT: -6.894860242      4.835      8.292
REMARK  15 active torsions:
REMARK  status: ('A' for Active; 'I' for Inactive)
REMARK    1  A    between atoms: C2_2  and  O1_3 
REMARK    2  A    between atoms: C3_5  and  C4_7 
REMARK    3  A    between atoms: C5_8  and  O2_9 
REMARK    4  A    between atoms: N1_15  and  C9_16 
REMARK    5  A    between atoms: C9_16  and  O4_17 
REMARK    6  A    between atoms: C9_16  and  O5_19 
REMARK    7  A    between atoms: O5_19  and  C10_20 
REMARK    8  A    between atoms: C11_21  and  O6_22 
REMARK    9  A    between atoms: C14_26  and  C15_27 
REMARK   10  A    between atoms: C15_27  and  S1_28 
REMARK   11  A    between atoms: S1_28  and  S2_29 
REMARK   12  A    between atoms: S2_29  and  C16_30 
REMARK   13  A    between atoms: C16_30  and  C17_31 
REMARK   14  A    between atoms: C18_32  and  C20_35 
REMARK   15  A    between atoms: C22_39  and  N4_40 
ROOT
HETATM    1  C17 UNL     1     -17.122  12.597 -33.687  1.00  0.00     0.008 C 
HETATM    2  C18 UNL     1     -18.133  13.396 -33.754  1.00  0.00     0.060 C 
HETATM    3  C19 UNL     1     -18.713  13.667 -35.083  1.00  0.00     0.100 C 
HETATM    4  N2  UNL     1     -19.147  13.875 -36.126  1.00  0.00    -0.191 NA
ENDROOT
BRANCH   2   5
HETATM    5  C20 UNL     1     -18.804  14.083 -32.653  1.00  0.00     0.044 A 
HETATM    6  C21 UNL     1     -18.408  15.234 -32.011  1.00  0.00     0.110 A 
HETATM    7  N3  UNL     1     -19.154  15.687 -31.052  1.00  0.00    -0.345 N 
HETATM    8  C22 UNL     1     -20.261  15.039 -30.719  1.00  0.00     0.142 A 
ATOM      9  H3  UNL     1     -18.889  16.538 -30.556  1.00  0.00     0.167 HD
HETATM   10  S3  UNL     1     -20.257  13.730 -31.805  1.00  0.00    -0.052 SA
BRANCH   8  11
HETATM   11  N4  UNL     1     -21.129  15.354 -29.777  1.00  0.00    -0.380 N 
ATOM     12  H42 UNL     1     -21.254  14.962 -28.844  1.00  0.00     0.158 HD
ATOM     13  H41 UNL     1     -21.856  16.069 -29.811  1.00  0.00     0.158 HD
ENDBRANCH   8  11
ENDBRANCH   2   5
BRANCH   1  14
HETATM   14  C16 UNL     1     -16.329  12.130 -32.539  1.00  0.00     0.114 C 
BRANCH  14  15
HETATM   15  S2  UNL     1     -14.737  11.487 -33.138  1.00  0.00    -0.094 SA
BRANCH  15  16
HETATM   16  S1  UNL     1     -13.117  12.770 -32.754  1.00  0.00    -0.097 SA
BRANCH  16  17
HETATM   17  C15 UNL     1     -11.740  12.372 -33.813  1.00  0.00     0.093 C 
BRANCH  17  18
HETATM   18  C14 UNL     1     -10.435  12.988 -33.379  1.00  0.00     0.027 C 
HETATM   19  C10 UNL     1     -10.031  14.191 -34.159  1.00  0.00     0.160 C 
HETATM   20  C11 UNL     1      -9.851  13.640 -35.551  1.00  0.00     0.147 C 
HETATM   21  C12 UNL     1      -9.320  12.264 -35.322  1.00  0.00     0.035 C 
HETATM   22  C13 UNL     1      -9.350  11.996 -33.834  1.00  0.00     0.010 C 
BRANCH  19  23
HETATM   23  O5  UNL     1     -10.848  15.270 -34.069  1.00  0.00    -0.336 OA
BRANCH  23  24
HETATM   24  C9  UNL     1     -10.623  15.990 -32.896  1.00  0.00     0.371 C 
BRANCH  24  25
HETATM   25  N1  UNL     1     -10.439  17.412 -33.176  1.00  0.00    -0.330 N 
HETATM   26  C4  UNL     1      -9.666  18.277 -32.370  1.00  0.00     0.172 C 
HETATM   27  C5  UNL     1     -10.301  19.674 -32.195  1.00  0.00     0.220 C 
HETATM   28  C6  UNL     1     -10.799  20.215 -33.462  1.00  0.00     0.181 C 
HETATM   29  O3  UNL     1     -10.785  21.448 -33.681  1.00  0.00    -0.290 OA
HETATM   30  C7  UNL     1     -11.315  19.266 -34.469  1.00  0.00     0.070 C 
HETATM   31  C8  UNL     1     -11.129  17.966 -34.306  1.00  0.00     0.095 C 
BRANCH  26  32
HETATM   32  C3  UNL     1      -8.257  18.492 -32.619  1.00  0.00     0.066 C 
HETATM   33  C2  UNL     1      -7.429  18.155 -33.536  1.00  0.00     0.059 C 
HETATM   34  C1  UNL     1      -7.719  17.357 -34.720  1.00  0.00     0.077 C 
HETATM   35 CL1  UNL     1      -7.490  19.501 -31.302  1.00  0.00    -0.084 Cl
BRANCH  33  36
HETATM   36  O1  UNL     1      -6.086  18.582 -33.427  1.00  0.00    -0.364 OA
ATOM     37  H1  UNL     1      -5.865  19.339 -33.958  1.00  0.00     0.217 HD
ENDBRANCH  33  36
ENDBRANCH  26  32
BRANCH  27  38
HETATM   38  O2  UNL     1     -11.318  19.612 -31.246  1.00  0.00    -0.385 OA
ATOM     39  H2  UNL     1     -11.097  20.161 -30.503  1.00  0.00     0.210 HD
ENDBRANCH  27  38
ENDBRANCH  24  25
BRANCH  24  40
HETATM   40  O4  UNL     1     -11.636  15.718 -32.004  1.00  0.00    -0.354 OA
ATOM     41  H4  UNL     1     -12.423  16.232 -32.140  1.00  0.00     0.214 HD
ENDBRANCH  24  40
ENDBRANCH  23  24
ENDBRANCH  19  23
BRANCH  20  42
HETATM   42  O6  UNL     1     -10.969  13.716 -36.336  1.00  0.00    -0.393 OA
ATOM     43  H6  UNL     1     -10.842  13.417 -37.229  1.00  0.00     0.210 HD
ENDBRANCH  20  42
ENDBRANCH  17  18
ENDBRANCH  16  17
ENDBRANCH  15  16
ENDBRANCH  14  15
ENDBRANCH   1  14
TORSDOF 15
ENDMDL
MODEL 4
REMARK VINA RESULT: -6.877604536      7.097      9.656
REMARK  15 active torsions:
REMARK  status: ('A' for Active; 'I' for Inactive)
REMARK    1  A    between atoms: C2_2  and  O1_3 
REMARK    2  A    between atoms: C3_5  and  C4_7 
REMARK    3  A    between atoms: C5_8  and  O2_9 
REMARK    4  A    between atoms: N1_15  and  C9_16 
REMARK    5  A    between atoms: C9_16  and  O4_17 
REMARK    6  A    between atoms: C9_16  and  O5_19 
REMARK    7  A    between atoms: O5_19  and  C10_20 
REMARK    8  A    between atoms: C11_21  and  O6_22 
REMARK    9  A    between atoms: C14_26  and  C15_27 
REMARK   10  A    between atoms: C15_27  and  S1_28 
REMARK   11  A    between atoms: S1_28  and  S2_29 
REMARK   12  A    between atoms: S2_29  and  C16_30 
REMARK   13  A    between atoms: C16_30  and  C17_31 
REMARK   14  A    between atoms: C18_32  and  C20_35 
REMARK   15  A    between atoms: C22_39  and  N4_40 
ROOT
HETATM    1  C17 UNL     1     -20.170  16.752 -29.775  1.00  0.00     0.008 C 
HETATM    2  C18 UNL     1     -20.473  15.560 -30.165  1.00  0.00     0.060 C 
HETATM    3  C19 UNL     1     -21.594  14.875 -29.492  1.00  0.00     0.100 C 
HETATM    4  N2  UNL     1     -22.463  14.353 -28.952  1.00  0.00    -0.191 NA
ENDROOT
BRANCH   2   5
HETATM    5  C20 UNL     1     -19.837  14.777 -31.223  1.00  0.00     0.044 A 
HETATM    6  C21 UNL     1     -20.254  13.576 -31.748  1.00  0.00     0.110 A 
HETATM    7  N3  UNL     1     -19.544  13.042 -32.693  1.00  0.00    -0.345 N 
HETATM    8  C22 UNL     1     -18.451  13.658 -33.122  1.00  0.00     0.142 A 
ATOM      9  H3  UNL     1     -19.824  12.152 -33.104  1.00  0.00     0.167 HD
HETATM   10  S3  UNL     1     -18.419  15.056 -32.152  1.00  0.00    -0.052 SA
BRANCH   8  11
HETATM   11  N4  UNL     1     -17.619  13.263 -34.065  1.00  0.00    -0.380 N 
ATOM     12  H42 UNL     1     -17.264  12.331 -34.276  1.00  0.00     0.158 HD
ATOM     13  H41 UNL     1     -17.164  13.835 -34.777  1.00  0.00     0.158 HD
ENDBRANCH   8  11
ENDBRANCH   2   5
BRANCH   1  14
HETATM   14  C16 UNL     1     -19.129  17.687 -30.230  1.00  0.00     0.114 C 
BRANCH  14  15
HETATM   15  S2  UNL     1     -19.583  19.373 -29.726  1.00  0.00    -0.094 SA
BRANCH  15  16
HETATM   16  S1  UNL     1     -19.801  20.700 -31.341  1.00  0.00    -0.097 SA
BRANCH  16  17
HETATM   17  C15 UNL     1     -18.275  21.570 -31.646  1.00  0.00     0.093 C 
BRANCH  17  18
HETATM   18  C14 UNL     1     -18.226  22.274 -32.979  1.00  0.00     0.027 C 
HETATM   19  C10 UNL     1     -16.856  22.432 -33.542  1.00  0.00     0.160 C 
HETATM   20  C11 UNL     1     -16.177  23.309 -32.521  1.00  0.00     0.147 C 
HETATM   21  C12 UNL     1     -17.267  24.210 -32.044  1.00  0.00     0.035 C 
HETATM   22  C13 UNL     1     -18.562  23.743 -32.671  1.00  0.00     0.010 C 
BRANCH  19  23
HETATM   23  O5  UNL     1     -16.195  21.288 -33.849  1.00  0.00    -0.336 OA
BRANCH  23  24
HETATM   24  C9  UNL     1     -15.689  21.318 -35.148  1.00  0.00     0.371 C 
BRANCH  24  25
HETATM   25  N1  UNL     1     -14.249  21.567 -35.148  1.00  0.00    -0.330 N 
HETATM   26  C4  UNL     1     -13.370  21.091 -34.150  1.00  0.00     0.172 C 
HETATM   27  C5  UNL     1     -12.283  22.116 -33.758  1.00  0.00     0.220 C 
HETATM   28  C6  UNL     1     -11.675  22.749 -34.931  1.00  0.00     0.181 C 
HETATM   29  O3  UNL     1     -10.475  23.103 -34.917  1.00  0.00    -0.290 OA
HETATM   30  C7  UNL     1     -12.518  22.953 -36.126  1.00  0.00     0.070 C 
HETATM   31  C8  UNL     1     -13.713  22.387 -36.196  1.00  0.00     0.095 C 
BRANCH  26  32
HETATM   32  C3  UNL     1     -12.709  19.810 -34.267  1.00  0.00     0.066 C 
HETATM   33  C2  UNL     1     -11.962  19.094 -33.512  1.00  0.00     0.059 C 
HETATM   34  C1  UNL     1     -11.512  19.427 -32.166  1.00  0.00     0.077 C 
HETATM   35 CL1  UNL     1     -13.043  19.028 -35.885  1.00  0.00    -0.084 Cl
BRANCH  33  36
HETATM   36  O1  UNL     1     -11.505  17.847 -33.996  1.00  0.00    -0.364 OA
ATOM     37  H1  UNL     1     -11.309  17.830 -34.925  1.00  0.00     0.217 HD
ENDBRANCH  33  36
ENDBRANCH  26  32
BRANCH  27  38
HETATM   38  O2  UNL     1     -12.825  23.071 -32.902  1.00  0.00    -0.385 OA
ATOM     39  H2  UNL     1     -12.936  23.892 -33.367  1.00  0.00     0.210 HD
ENDBRANCH  27  38
ENDBRANCH  24  25
BRANCH  24  40
HETATM   40  O4  UNL     1     -16.062  20.164 -35.799  1.00  0.00    -0.354 OA
ATOM     41  H4  UNL     1     -16.639  19.603 -35.295  1.00  0.00     0.214 HD
ENDBRANCH  24  40
ENDBRANCH  23  24
ENDBRANCH  19  23
BRANCH  20  42
HETATM   42  O6  UNL     1     -15.511  22.624 -31.542  1.00  0.00    -0.393 OA
ATOM     43  H6  UNL     1     -15.977  22.567 -30.717  1.00  0.00     0.210 HD
ENDBRANCH  20  42
ENDBRANCH  17  18
ENDBRANCH  16  17
ENDBRANCH  15  16
ENDBRANCH  14  15
ENDBRANCH   1  14
TORSDOF 15
ENDMDL
MODEL 5
REMARK VINA RESULT: -6.871729577      1.561      2.022
REMARK  15 active torsions:
REMARK  status: ('A' for Active; 'I' for Inactive)
REMARK    1  A    between atoms: C2_2  and  O1_3 
REMARK    2  A    between atoms: C3_5  and  C4_7 
REMARK    3  A    between atoms: C5_8  and  O2_9 
REMARK    4  A    between atoms: N1_15  and  C9_16 
REMARK    5  A    between atoms: C9_16  and  O4_17 
REMARK    6  A    between atoms: C9_16  and  O5_19 
REMARK    7  A    between atoms: O5_19  and  C10_20 
REMARK    8  A    between atoms: C11_21  and  O6_22 
REMARK    9  A    between atoms: C14_26  and  C15_27 
REMARK   10  A    between atoms: C15_27  and  S1_28 
REMARK   11  A    between atoms: S1_28  and  S2_29 
REMARK   12  A    between atoms: S2_29  and  C16_30 
REMARK   13  A    between atoms: C16_30  and  C17_31 
REMARK   14  A    between atoms: C18_32  and  C20_35 
REMARK   15  A    between atoms: C22_39  and  N4_40 
ROOT
HETATM    1  C17 UNL     1     -10.789  13.967 -34.801  1.00  0.00     0.008 C 
HETATM    2  C18 UNL     1     -10.883  13.010 -33.942  1.00  0.00     0.060 C 
HETATM    3  C19 UNL     1     -12.098  12.947 -33.106  1.00  0.00     0.100 C 
HETATM    4  N2  UNL     1     -13.045  12.917 -32.458  1.00  0.00    -0.191 NA
ENDROOT
BRANCH   2   5
HETATM    5  C20 UNL     1      -9.918  11.943 -33.682  1.00  0.00     0.044 A 
HETATM    6  C21 UNL     1     -10.044  10.886 -32.811  1.00  0.00     0.110 A 
HETATM    7  N3  UNL     1      -9.066  10.039 -32.731  1.00  0.00    -0.345 N 
HETATM    8  C22 UNL     1      -7.985  10.211 -33.480  1.00  0.00     0.142 A 
ATOM      9  H3  UNL     1      -9.127   9.245 -32.095  1.00  0.00     0.167 HD
HETATM   10  S3  UNL     1      -8.361  11.631 -34.339  1.00  0.00    -0.052 SA
BRANCH   8  11
HETATM   11  N4  UNL     1      -6.906   9.455 -33.526  1.00  0.00    -0.380 N 
ATOM     12  H42 UNL     1      -6.816   8.440 -33.481  1.00  0.00     0.158 HD
ATOM     13  H41 UNL     1      -5.936   9.755 -33.619  1.00  0.00     0.158 HD
ENDBRANCH   8  11
ENDBRANCH   2   5
BRANCH   1  14
HETATM   14  C16 UNL     1      -9.731  14.306 -35.765  1.00  0.00     0.114 C 
BRANCH  14  15
HETATM   15  S2  UNL     1      -8.700  15.635 -35.075  1.00  0.00    -0.094 SA
BRANCH  15  16
HETATM   16  S1  UNL     1      -9.360  16.319 -33.200  1.00  0.00    -0.097 SA
BRANCH  16  17
HETATM   17  C15 UNL     1     -10.709  17.467 -33.393  1.00  0.00     0.093 C 
BRANCH  17  18
HETATM   18  C14 UNL     1     -10.320  18.765 -34.054  1.00  0.00     0.027 C 
HETATM   19  C10 UNL     1     -10.056  19.885 -33.107  1.00  0.00     0.160 C 
HETATM   20  C11 UNL     1     -11.395  20.078 -32.441  1.00  0.00     0.147 C 
HETATM   21  C12 UNL     1     -12.378  19.779 -33.524  1.00  0.00     0.035 C 
HETATM   22  C13 UNL     1     -11.607  19.277 -34.724  1.00  0.00     0.010 C 
BRANCH  19  23
HETATM   23  O5  UNL     1      -9.010  19.723 -32.259  1.00  0.00    -0.336 OA
BRANCH  23  24
HETATM   24  C9  UNL     1      -8.605  20.936 -31.703  1.00  0.00     0.371 C 
BRANCH  24  25
HETATM   25  N1  UNL     1      -7.519  20.742 -30.746  1.00  0.00    -0.330 N 
HETATM   26  C4  UNL     1      -7.114  21.718 -29.809  1.00  0.00     0.172 C 
HETATM   27  C5  UNL     1      -5.581  21.794 -29.632  1.00  0.00     0.220 C 
HETATM   28  C6  UNL     1      -4.976  20.466 -29.510  1.00  0.00     0.181 C 
HETATM   29  O3  UNL     1      -3.956  20.290 -28.806  1.00  0.00    -0.290 OA
HETATM   30  C7  UNL     1      -5.603  19.345 -30.239  1.00  0.00     0.070 C 
HETATM   31  C8  UNL     1      -6.789  19.507 -30.804  1.00  0.00     0.095 C 
BRANCH  26  32
HETATM   32  C3  UNL     1      -7.688  21.782 -28.482  1.00  0.00     0.066 C 
HETATM   33  C2  UNL     1      -8.065  22.718 -27.694  1.00  0.00     0.059 C 
HETATM   34  C1  UNL     1      -7.998  24.152 -27.950  1.00  0.00     0.077 C 
HETATM   35 CL1  UNL     1      -7.945  20.114 -27.782  1.00  0.00    -0.084 Cl
BRANCH  33  36
HETATM   36  O1  UNL     1      -8.607  22.368 -26.436  1.00  0.00    -0.364 OA
ATOM     37  H1  UNL     1      -9.340  21.765 -26.474  1.00  0.00     0.217 HD
ENDBRANCH  33  36
ENDBRANCH  26  32
BRANCH  27  38
HETATM   38  O2  UNL     1      -5.021  22.502 -30.692  1.00  0.00    -0.385 OA
ATOM     39  H2  UNL     1      -5.292  23.411 -30.649  1.00  0.00     0.210 HD
ENDBRANCH  27  38
ENDBRANCH  24  25
BRANCH  24  40
HETATM   40  O4  UNL     1      -8.310  21.816 -32.720  1.00  0.00    -0.354 OA
ATOM     41  H4  UNL     1      -9.023  22.401 -32.948  1.00  0.00     0.214 HD
ENDBRANCH  24  40
ENDBRANCH  23  24
ENDBRANCH  19  23
BRANCH  20  42
HETATM   42  O6  UNL     1     -11.558  19.365 -31.285  1.00  0.00    -0.393 OA
ATOM     43  H6  UNL     1     -12.328  18.809 -31.273  1.00  0.00     0.210 HD
ENDBRANCH  20  42
ENDBRANCH  17  18
ENDBRANCH  16  17
ENDBRANCH  15  16
ENDBRANCH  14  15
ENDBRANCH   1  14
TORSDOF 15
ENDMDL
