MODEL 1
REMARK VINA RESULT: -7.089043602      0.000      0.000
REMARK  12 active torsions:
REMARK  status: ('A' for Active; 'I' for Inactive)
REMARK    1  A    between atoms: O1_2  and  C2_3 
REMARK    2  A    between atoms: C4_5  and  O2_6 
REMARK    3  A    between atoms: C6_9  and  O3_10 
REMARK    4  A    between atoms: C8_12  and  C9_13 
REMARK    5  A    between atoms: C9_13  and  C11_15 
REMARK    6  A    between atoms: C11_15  and  N1_16 
REMARK    7  A    between atoms: N1_16  and  C12_17 
REMARK    8  A    between atoms: C14_19  and  S1_20 
REMARK    9  A    between atoms: C17_27  and  N2_28 
REMARK   10  A    between atoms: N2_28  and  C18_30 
REMARK   11  A    between atoms: C20_37  and  N5_38 
REMARK   12  A    between atoms: C21_41  and  N6_42 
ROOT
HETATM    1  C12 UNL     1      -7.992  12.324 -38.547  1.00  0.00     0.136 A 
HETATM    2  C13 UNL     1      -6.640  11.987 -38.404  1.00  0.00     0.073 A 
HETATM    3  C14 UNL     1      -6.021  11.392 -39.471  1.00  0.00     0.085 A 
HETATM    4  C15 UNL     1      -6.684  11.125 -40.657  1.00  0.00     0.052 A 
HETATM    5  C16 UNL     1      -8.016  11.450 -40.820  1.00  0.00     0.065 A 
HETATM    6 CL1  UNL     1      -8.842  11.092 -42.347  1.00  0.00    -0.082 Cl
HETATM    7  C17 UNL     1      -8.651  12.039 -39.779  1.00  0.00     0.097 A 
ENDROOT
BRANCH   7   8
HETATM    8  N2  UNL     1      -9.997  12.435 -39.881  1.00  0.00    -0.336 N 
ATOM      9  H2  UNL     1     -10.162  13.429 -40.043  1.00  0.00     0.168 HD
BRANCH   8  10
HETATM   10  C18 UNL     1     -11.132  11.629 -39.788  1.00  0.00     0.147 A 
HETATM   11  N3  UNL     1     -11.065  10.330 -39.489  1.00  0.00    -0.292 N 
HETATM   12  C19 UNL     1     -12.166   9.544 -39.375  1.00  0.00     0.327 A 
ATOM     13  H3  UNL     1     -10.148   9.910 -39.338  1.00  0.00     0.172 HD
HETATM   14  O7  UNL     1     -12.047   8.309 -39.089  1.00  0.00    -0.247 OA
HETATM   15  N4  UNL     1     -13.375  10.082 -39.568  1.00  0.00    -0.293 N 
HETATM   16  C20 UNL     1     -13.542  11.392 -39.877  1.00  0.00     0.140 A 
ATOM     17  H4  UNL     1     -14.199   9.488 -39.480  1.00  0.00     0.172 HD
HETATM   18  C21 UNL     1     -12.397  12.167 -39.986  1.00  0.00     0.190 A 
BRANCH  16  19
HETATM   19  N5  UNL     1     -14.716  11.890 -40.055  1.00  0.00    -0.383 N 
ATOM     20  H52 UNL     1     -15.209  11.794 -40.942  1.00  0.00     0.157 HD
ATOM     21  H51 UNL     1     -15.190  12.401 -39.311  1.00  0.00     0.157 HD
ENDBRANCH  16  19
BRANCH  18  22
HETATM   22  N6  UNL     1     -12.480  13.526 -40.311  1.00  0.00    -0.108 N 
HETATM   23  O8  UNL     1     -12.633  13.847 -41.506  1.00  0.00    -0.531 OA
HETATM   24  O9  UNL     1     -12.405  14.542 -39.396  1.00  0.00    -0.531 OA
ENDBRANCH  18  22
ENDBRANCH   8  10
ENDBRANCH   7   8
BRANCH   1  25
HETATM   25  N1  UNL     1      -8.638  12.889 -37.520  1.00  0.00    -0.419 NA
BRANCH  25  26
HETATM   26  C11 UNL     1      -9.153  13.368 -36.583  1.00  0.00     0.164 C 
BRANCH  26  27
HETATM   27  C9  UNL     1      -8.608  13.640 -35.179  1.00  0.00     0.072 C 
HETATM   28  C10 UNL     1      -9.259  14.898 -34.712  1.00  0.00     0.022 C 
BRANCH  27  29
HETATM   29  C8  UNL     1      -8.860  12.485 -34.328  1.00  0.00     0.018 A 
HETATM   30  C2  UNL     1      -7.848  11.509 -34.263  1.00  0.00     0.080 A 
HETATM   31  C3  UNL     1      -7.962  10.358 -33.545  1.00  0.00     0.074 A 
HETATM   32  C4  UNL     1      -9.105  10.113 -32.843  1.00  0.00     0.071 A 
HETATM   33  C5  UNL     1     -10.119  11.048 -32.882  1.00  0.00     0.074 A 
HETATM   34  C6  UNL     1     -10.006  12.241 -33.623  1.00  0.00     0.080 A 
BRANCH  30  35
HETATM   35  O1  UNL     1      -6.688  11.748 -34.971  1.00  0.00    -0.355 OA
HETATM   36  C1  UNL     1      -5.538  10.980 -34.696  1.00  0.00     0.210 C 
ENDBRANCH  30  35
BRANCH  32  37
HETATM   37  O2  UNL     1      -9.294   8.944 -32.077  1.00  0.00    -0.361 OA
ATOM     38  H2  UNL     1      -9.544   8.965 -31.160  1.00  0.00     0.217 HD
ENDBRANCH  32  37
BRANCH  34  39
HETATM   39  O3  UNL     1     -11.023  13.158 -33.653  1.00  0.00    -0.355 OA
HETATM   40  C7  UNL     1     -12.282  12.962 -33.134  1.00  0.00     0.210 C 
ENDBRANCH  34  39
ENDBRANCH  27  29
ENDBRANCH  26  27
ENDBRANCH  25  26
ENDBRANCH   1  25
BRANCH   3  41
HETATM   41  S1  UNL     1      -4.314  10.952 -39.324  1.00  0.00     0.137 S 
HETATM   42  O4  UNL     1      -3.634  11.795 -38.274  1.00  0.00    -0.591 OA
HETATM   43  O5  UNL     1      -3.619  11.190 -40.624  1.00  0.00    -0.591 OA
HETATM   44  O6  UNL     1      -4.205   9.319 -38.935  1.00  0.00    -0.591 OA
ENDBRANCH   3  41
TORSDOF 12
ENDMDL
MODEL 2
REMARK VINA RESULT: -6.745098222      1.403      2.486
REMARK  12 active torsions:
REMARK  status: ('A' for Active; 'I' for Inactive)
REMARK    1  A    between atoms: O1_2  and  C2_3 
REMARK    2  A    between atoms: C4_5  and  O2_6 
REMARK    3  A    between atoms: C6_9  and  O3_10 
REMARK    4  A    between atoms: C8_12  and  C9_13 
REMARK    5  A    between atoms: C9_13  and  C11_15 
REMARK    6  A    between atoms: C11_15  and  N1_16 
REMARK    7  A    between atoms: N1_16  and  C12_17 
REMARK    8  A    between atoms: C14_19  and  S1_20 
REMARK    9  A    between atoms: C17_27  and  N2_28 
REMARK   10  A    between atoms: N2_28  and  C18_30 
REMARK   11  A    between atoms: C20_37  and  N5_38 
REMARK   12  A    between atoms: C21_41  and  N6_42 
ROOT
HETATM    1  C12 UNL     1      -8.596  12.811 -38.733  1.00  0.00     0.136 A 
HETATM    2  C13 UNL     1      -7.392  13.374 -39.174  1.00  0.00     0.073 A 
HETATM    3  C14 UNL     1      -6.905  12.957 -40.385  1.00  0.00     0.085 A 
HETATM    4  C15 UNL     1      -7.561  12.017 -41.161  1.00  0.00     0.052 A 
HETATM    5  C16 UNL     1      -8.750  11.449 -40.746  1.00  0.00     0.065 A 
HETATM    6 CL1  UNL     1      -9.566  10.244 -41.758  1.00  0.00    -0.082 Cl
HETATM    7  C17 UNL     1      -9.251  11.846 -39.552  1.00  0.00     0.097 A 
ENDROOT
BRANCH   7   8
HETATM    8  N2  UNL     1     -10.477  11.344 -39.079  1.00  0.00    -0.336 N 
ATOM      9  H2  UNL     1     -10.435  10.458 -38.573  1.00  0.00     0.168 HD
BRANCH   8  10
HETATM   10  C18 UNL     1     -11.744  11.913 -39.219  1.00  0.00     0.147 A 
HETATM   11  N3  UNL     1     -11.977  13.206 -38.985  1.00  0.00    -0.292 N 
HETATM   12  C19 UNL     1     -13.201  13.771 -39.139  1.00  0.00     0.327 A 
ATOM     13  H3  UNL     1     -11.203  13.794 -38.676  1.00  0.00     0.172 HD
HETATM   14  O7  UNL     1     -13.371  15.011 -38.901  1.00  0.00    -0.247 OA
HETATM   15  N4  UNL     1     -14.225  13.012 -39.544  1.00  0.00    -0.293 N 
HETATM   16  C20 UNL     1     -14.084  11.689 -39.806  1.00  0.00     0.140 A 
ATOM     17  H4  UNL     1     -15.143  13.442 -39.661  1.00  0.00     0.172 HD
HETATM   18  C21 UNL     1     -12.821  11.142 -39.637  1.00  0.00     0.190 A 
BRANCH  16  19
HETATM   19  N5  UNL     1     -15.083  10.977 -40.198  1.00  0.00    -0.383 N 
ATOM     20  H52 UNL     1     -15.028   9.960 -40.249  1.00  0.00     0.157 HD
ATOM     21  H51 UNL     1     -15.963  11.411 -40.475  1.00  0.00     0.157 HD
ENDBRANCH  16  19
BRANCH  18  22
HETATM   22  N6  UNL     1     -12.591   9.782 -39.876  1.00  0.00    -0.108 N 
HETATM   23  O8  UNL     1     -12.984   9.289 -40.951  1.00  0.00    -0.531 OA
HETATM   24  O9  UNL     1     -11.954   8.943 -39.000  1.00  0.00    -0.531 OA
ENDBRANCH  18  22
ENDBRANCH   8  10
ENDBRANCH   7   8
BRANCH   1  25
HETATM   25  N1  UNL     1      -9.094  13.179 -37.546  1.00  0.00    -0.419 NA
BRANCH  25  26
HETATM   26  C11 UNL     1      -9.476  13.535 -36.497  1.00  0.00     0.164 C 
BRANCH  26  27
HETATM   27  C9  UNL     1      -8.724  13.727 -35.179  1.00  0.00     0.072 C 
HETATM   28  C10 UNL     1      -9.225  15.004 -34.592  1.00  0.00     0.022 C 
BRANCH  27  29
HETATM   29  C8  UNL     1      -8.926  12.561 -34.330  1.00  0.00     0.018 A 
HETATM   30  C2  UNL     1      -7.905  11.591 -34.328  1.00  0.00     0.080 A 
HETATM   31  C3  UNL     1      -7.974  10.431 -33.619  1.00  0.00     0.074 A 
HETATM   32  C4  UNL     1      -9.079  10.170 -32.864  1.00  0.00     0.071 A 
HETATM   33  C5  UNL     1     -10.100  11.097 -32.841  1.00  0.00     0.074 A 
HETATM   34  C6  UNL     1     -10.033  12.299 -33.572  1.00  0.00     0.080 A 
BRANCH  30  35
HETATM   35  O1  UNL     1      -6.783  11.848 -35.090  1.00  0.00    -0.355 OA
HETATM   36  C1  UNL     1      -5.598  11.126 -34.843  1.00  0.00     0.210 C 
ENDBRANCH  30  35
BRANCH  32  37
HETATM   37  O2  UNL     1      -9.222   8.990 -32.104  1.00  0.00    -0.361 OA
ATOM     38  H2  UNL     1      -9.918   8.869 -31.468  1.00  0.00     0.217 HD
ENDBRANCH  32  37
BRANCH  34  39
HETATM   39  O3  UNL     1     -11.057  13.208 -33.540  1.00  0.00    -0.355 OA
HETATM   40  C7  UNL     1     -12.340  12.942 -33.122  1.00  0.00     0.210 C 
ENDBRANCH  34  39
ENDBRANCH  27  29
ENDBRANCH  26  27
ENDBRANCH  25  26
ENDBRANCH   1  25
BRANCH   3  41
HETATM   41  S1  UNL     1      -5.386  13.646 -40.972  1.00  0.00     0.137 S 
HETATM   42  O4  UNL     1      -4.228  13.187 -40.121  1.00  0.00    -0.591 OA
HETATM   43  O5  UNL     1      -5.447  15.136 -40.897  1.00  0.00    -0.591 OA
HETATM   44  O6  UNL     1      -5.163  13.186 -42.574  1.00  0.00    -0.591 OA
ENDBRANCH   3  41
TORSDOF 12
ENDMDL
MODEL 3
REMARK VINA RESULT: -6.613014505      0.128      2.235
REMARK  12 active torsions:
REMARK  status: ('A' for Active; 'I' for Inactive)
REMARK    1  A    between atoms: O1_2  and  C2_3 
REMARK    2  A    between atoms: C4_5  and  O2_6 
REMARK    3  A    between atoms: C6_9  and  O3_10 
REMARK    4  A    between atoms: C8_12  and  C9_13 
REMARK    5  A    between atoms: C9_13  and  C11_15 
REMARK    6  A    between atoms: C11_15  and  N1_16 
REMARK    7  A    between atoms: N1_16  and  C12_17 
REMARK    8  A    between atoms: C14_19  and  S1_20 
REMARK    9  A    between atoms: C17_27  and  N2_28 
REMARK   10  A    between atoms: N2_28  and  C18_30 
REMARK   11  A    between atoms: C20_37  and  N5_38 
REMARK   12  A    between atoms: C21_41  and  N6_42 
ROOT
HETATM    1  C12 UNL     1      -8.008  12.373 -38.527  1.00  0.00     0.136 A 
HETATM    2  C13 UNL     1      -6.653  12.050 -38.384  1.00  0.00     0.073 A 
HETATM    3  C14 UNL     1      -6.030  11.451 -39.447  1.00  0.00     0.085 A 
HETATM    4  C15 UNL     1      -6.694  11.166 -40.628  1.00  0.00     0.052 A 
HETATM    5  C16 UNL     1      -8.030  11.476 -40.790  1.00  0.00     0.065 A 
HETATM    6 CL1  UNL     1      -8.857  11.096 -42.312  1.00  0.00    -0.082 Cl
HETATM    7  C17 UNL     1      -8.667  12.070 -39.753  1.00  0.00     0.097 A 
ENDROOT
BRANCH   7   8
HETATM    8  N2  UNL     1     -10.017  12.452 -39.855  1.00  0.00    -0.336 N 
ATOM      9  H2  UNL     1     -10.193  13.444 -40.020  1.00  0.00     0.168 HD
BRANCH   8  10
HETATM   10  C18 UNL     1     -11.145  11.635 -39.759  1.00  0.00     0.147 A 
HETATM   11  N3  UNL     1     -11.061  10.328 -39.499  1.00  0.00    -0.292 N 
HETATM   12  C19 UNL     1     -12.153   9.531 -39.383  1.00  0.00     0.327 A 
ATOM     13  H3  UNL     1     -10.138   9.911 -39.383  1.00  0.00     0.172 HD
HETATM   14  O7  UNL     1     -12.019   8.289 -39.135  1.00  0.00    -0.247 OA
HETATM   15  N4  UNL     1     -13.371  10.065 -39.532  1.00  0.00    -0.293 N 
HETATM   16  C20 UNL     1     -13.554  11.382 -39.798  1.00  0.00     0.140 A 
ATOM     17  H4  UNL     1     -14.188   9.462 -39.442  1.00  0.00     0.172 HD
HETATM   18  C21 UNL     1     -12.418  12.169 -39.912  1.00  0.00     0.190 A 
BRANCH  16  19
HETATM   19  N5  UNL     1     -14.736  11.876 -39.934  1.00  0.00    -0.383 N 
ATOM     20  H52 UNL     1     -15.544  11.468 -39.464  1.00  0.00     0.157 HD
ATOM     21  H51 UNL     1     -14.901  12.693 -40.521  1.00  0.00     0.157 HD
ENDBRANCH  16  19
BRANCH  18  22
HETATM   22  N6  UNL     1     -12.518  13.536 -40.195  1.00  0.00    -0.108 N 
HETATM   23  O8  UNL     1     -12.677  13.891 -41.379  1.00  0.00    -0.531 OA
HETATM   24  O9  UNL     1     -12.453  14.525 -39.250  1.00  0.00    -0.531 OA
ENDBRANCH  18  22
ENDBRANCH   8  10
ENDBRANCH   7   8
BRANCH   1  25
HETATM   25  N1  UNL     1      -8.656  12.943 -37.503  1.00  0.00    -0.419 NA
BRANCH  25  26
HETATM   26  C11 UNL     1      -9.166  13.451 -36.578  1.00  0.00     0.164 C 
BRANCH  26  27
HETATM   27  C9  UNL     1      -8.653  13.664 -35.153  1.00  0.00     0.072 C 
HETATM   28  C10 UNL     1      -9.471  14.768 -34.573  1.00  0.00     0.022 C 
BRANCH  27  29
HETATM   29  C8  UNL     1      -8.732  12.411 -34.415  1.00  0.00     0.018 A 
HETATM   30  C2  UNL     1      -9.925  12.162 -33.710  1.00  0.00     0.080 A 
HETATM   31  C3  UNL     1     -10.125  11.055 -32.943  1.00  0.00     0.074 A 
HETATM   32  C4  UNL     1      -9.134  10.124 -32.834  1.00  0.00     0.071 A 
HETATM   33  C5  UNL     1      -7.951  10.334 -33.512  1.00  0.00     0.074 A 
HETATM   34  C6  UNL     1      -7.739  11.476 -34.308  1.00  0.00     0.080 A 
BRANCH  30  35
HETATM   35  O1  UNL     1     -10.932  13.099 -33.814  1.00  0.00    -0.355 OA
HETATM   36  C1  UNL     1     -12.146  12.891 -33.128  1.00  0.00     0.210 C 
ENDBRANCH  30  35
BRANCH  32  37
HETATM   37  O2  UNL     1      -9.269   8.953 -32.058  1.00  0.00    -0.361 OA
ATOM     38  H2  UNL     1      -8.781   8.810 -31.256  1.00  0.00     0.217 HD
ENDBRANCH  32  37
BRANCH  34  39
HETATM   39  O3  UNL     1      -6.557  11.671 -34.972  1.00  0.00    -0.355 OA
HETATM   40  C7  UNL     1      -5.423  10.910 -34.809  1.00  0.00     0.210 C 
ENDBRANCH  34  39
ENDBRANCH  27  29
ENDBRANCH  26  27
ENDBRANCH  25  26
ENDBRANCH   1  25
BRANCH   3  41
HETATM   41  S1  UNL     1      -4.319  11.028 -39.301  1.00  0.00     0.137 S 
HETATM   42  O4  UNL     1      -3.572  11.384 -40.562  1.00  0.00    -0.591 OA
HETATM   43  O5  UNL     1      -4.181   9.556 -39.087  1.00  0.00    -0.591 OA
HETATM   44  O6  UNL     1      -3.669  11.838 -37.978  1.00  0.00    -0.591 OA
ENDBRANCH   3  41
TORSDOF 12
ENDMDL
MODEL 4
REMARK VINA RESULT: -6.546812186      2.669      5.560
REMARK  12 active torsions:
REMARK  status: ('A' for Active; 'I' for Inactive)
REMARK    1  A    between atoms: O1_2  and  C2_3 
REMARK    2  A    between atoms: C4_5  and  O2_6 
REMARK    3  A    between atoms: C6_9  and  O3_10 
REMARK    4  A    between atoms: C8_12  and  C9_13 
REMARK    5  A    between atoms: C9_13  and  C11_15 
REMARK    6  A    between atoms: C11_15  and  N1_16 
REMARK    7  A    between atoms: N1_16  and  C12_17 
REMARK    8  A    between atoms: C14_19  and  S1_20 
REMARK    9  A    between atoms: C17_27  and  N2_28 
REMARK   10  A    between atoms: N2_28  and  C18_30 
REMARK   11  A    between atoms: C20_37  and  N5_38 
REMARK   12  A    between atoms: C21_41  and  N6_42 
ROOT
HETATM    1  C12 UNL     1      -9.064  12.217 -38.898  1.00  0.00     0.136 A 
HETATM    2  C13 UNL     1     -10.324  11.605 -38.911  1.00  0.00     0.073 A 
HETATM    3  C14 UNL     1     -10.610  10.770 -39.960  1.00  0.00     0.085 A 
HETATM    4  C15 UNL     1      -9.705  10.526 -40.979  1.00  0.00     0.052 A 
HETATM    5  C16 UNL     1      -8.458  11.119 -40.986  1.00  0.00     0.065 A 
HETATM    6 CL1  UNL     1      -7.320  10.793 -42.306  1.00  0.00    -0.082 Cl
HETATM    7  C17 UNL     1      -8.151  11.948 -39.959  1.00  0.00     0.097 A 
ENDROOT
BRANCH   7   8
HETATM    8  N2  UNL     1      -6.887  12.559 -39.874  1.00  0.00    -0.336 N 
ATOM      9  H2  UNL     1      -6.798  13.471 -40.323  1.00  0.00     0.168 HD
BRANCH   8  10
HETATM   10  C18 UNL     1      -5.741  12.065 -39.248  1.00  0.00     0.147 A 
HETATM   11  N3  UNL     1      -5.507  10.759 -39.111  1.00  0.00    -0.292 N 
HETATM   12  C19 UNL     1      -4.386  10.271 -38.523  1.00  0.00     0.327 A 
ATOM     13  H3  UNL     1      -6.201  10.099 -39.463  1.00  0.00     0.172 HD
HETATM   14  O7  UNL     1      -4.211   9.014 -38.416  1.00  0.00    -0.247 OA
HETATM   15  N4  UNL     1      -3.467  11.126 -38.058  1.00  0.00    -0.293 N 
HETATM   16  C20 UNL     1      -3.618  12.469 -38.153  1.00  0.00     0.140 A 
ATOM     17  H4  UNL     1      -2.625  10.754 -37.619  1.00  0.00     0.172 HD
HETATM   18  C21 UNL     1      -4.776  12.935 -38.758  1.00  0.00     0.190 A 
BRANCH  16  19
HETATM   19  N5  UNL     1      -2.720  13.274 -37.702  1.00  0.00    -0.383 N 
ATOM     20  H52 UNL     1      -1.733  13.156 -37.930  1.00  0.00     0.157 HD
ATOM     21  H51 UNL     1      -2.968  14.056 -37.096  1.00  0.00     0.157 HD
ENDBRANCH  16  19
BRANCH  18  22
HETATM   22  N6  UNL     1      -5.015  14.308 -38.886  1.00  0.00    -0.108 N 
HETATM   23  O8  UNL     1      -5.055  15.008 -37.855  1.00  0.00    -0.531 OA
HETATM   24  O9  UNL     1      -5.210  14.947 -40.082  1.00  0.00    -0.531 OA
ENDBRANCH  18  22
ENDBRANCH   8  10
ENDBRANCH   7   8
BRANCH   1  25
HETATM   25  N1  UNL     1      -8.755  13.054 -37.900  1.00  0.00    -0.419 NA
BRANCH  25  26
HETATM   26  C11 UNL     1      -8.546  13.785 -37.009  1.00  0.00     0.164 C 
BRANCH  26  27
HETATM   27  C9  UNL     1      -7.552  13.681 -35.851  1.00  0.00     0.072 C 
HETATM   28  C10 UNL     1      -7.443  15.049 -35.267  1.00  0.00     0.022 C 
BRANCH  27  29
HETATM   29  C8  UNL     1      -8.007  12.665 -34.910  1.00  0.00     0.018 A 
HETATM   30  C2  UNL     1      -7.185  11.534 -34.748  1.00  0.00     0.080 A 
HETATM   31  C3  UNL     1      -7.502  10.487 -33.938  1.00  0.00     0.074 A 
HETATM   32  C4  UNL     1      -8.671  10.509 -33.237  1.00  0.00     0.071 A 
HETATM   33  C5  UNL     1      -9.502  11.603 -33.370  1.00  0.00     0.074 A 
HETATM   34  C6  UNL     1      -9.179  12.689 -34.205  1.00  0.00     0.080 A 
BRANCH  30  35
HETATM   35  O1  UNL     1      -6.000  11.503 -35.455  1.00  0.00    -0.355 OA
HETATM   36  C1  UNL     1      -4.789  11.276 -34.769  1.00  0.00     0.210 C 
ENDBRANCH  30  35
BRANCH  32  37
HETATM   37  O2  UNL     1      -9.066   9.461 -32.379  1.00  0.00    -0.361 OA
ATOM     38  H2  UNL     1      -9.528   9.612 -31.562  1.00  0.00     0.217 HD
ENDBRANCH  32  37
BRANCH  34  39
HETATM   39  O3  UNL     1     -10.016  13.766 -34.328  1.00  0.00    -0.355 OA
HETATM   40  C7  UNL     1     -11.244  13.887 -33.719  1.00  0.00     0.210 C 
ENDBRANCH  34  39
ENDBRANCH  27  29
ENDBRANCH  26  27
ENDBRANCH  25  26
ENDBRANCH   1  25
BRANCH   3  41
HETATM   41  S1  UNL     1     -12.192   9.981 -40.009  1.00  0.00     0.137 S 
HETATM   42  O4  UNL     1     -12.658   9.809 -41.434  1.00  0.00    -0.591 OA
HETATM   43  O5  UNL     1     -13.198  10.823 -39.297  1.00  0.00    -0.591 OA
HETATM   44  O6  UNL     1     -12.081   8.490 -39.238  1.00  0.00    -0.591 OA
ENDBRANCH   3  41
TORSDOF 12
ENDMDL
MODEL 5
REMARK VINA RESULT: -6.462200226      3.635      5.520
REMARK  12 active torsions:
REMARK  status: ('A' for Active; 'I' for Inactive)
REMARK    1  A    between atoms: O1_2  and  C2_3 
REMARK    2  A    between atoms: C4_5  and  O2_6 
REMARK    3  A    between atoms: C6_9  and  O3_10 
REMARK    4  A    between atoms: C8_12  and  C9_13 
REMARK    5  A    between atoms: C9_13  and  C11_15 
REMARK    6  A    between atoms: C11_15  and  N1_16 
REMARK    7  A    between atoms: N1_16  and  C12_17 
REMARK    8  A    between atoms: C14_19  and  S1_20 
REMARK    9  A    between atoms: C17_27  and  N2_28 
REMARK   10  A    between atoms: N2_28  and  C18_30 
REMARK   11  A    between atoms: C20_37  and  N5_38 
REMARK   12  A    between atoms: C21_41  and  N6_42 
ROOT
HETATM    1  C12 UNL     1     -11.304  15.631 -37.231  1.00  0.00     0.136 A 
HETATM    2  C13 UNL     1     -11.298  16.833 -36.511  1.00  0.00     0.073 A 
HETATM    3  C14 UNL     1     -11.959  17.901 -37.058  1.00  0.00     0.085 A 
HETATM    4  C15 UNL     1     -12.615  17.821 -38.275  1.00  0.00     0.052 A 
HETATM    5  C16 UNL     1     -12.634  16.646 -39.001  1.00  0.00     0.065 A 
HETATM    6 CL1  UNL     1     -13.478  16.572 -40.559  1.00  0.00    -0.082 Cl
HETATM    7  C17 UNL     1     -11.988  15.576 -38.480  1.00  0.00     0.097 A 
ENDROOT
BRANCH   7   8
HETATM    8  N2  UNL     1     -11.995  14.334 -39.141  1.00  0.00    -0.336 N 
ATOM      9  H2  UNL     1     -11.123  14.062 -39.597  1.00  0.00     0.168 HD
BRANCH   8  10
HETATM   10  C18 UNL     1     -13.053  13.429 -39.247  1.00  0.00     0.147 A 
HETATM   11  N3  UNL     1     -14.310  13.761 -38.948  1.00  0.00    -0.292 N 
HETATM   12  C19 UNL     1     -15.347  12.894 -39.068  1.00  0.00     0.327 A 
ATOM     13  H3  UNL     1     -14.500  14.706 -38.614  1.00  0.00     0.172 HD
HETATM   14  O7  UNL     1     -16.530  13.261 -38.768  1.00  0.00    -0.247 OA
HETATM   15  N4  UNL     1     -15.113  11.652 -39.506  1.00  0.00    -0.293 N 
HETATM   16  C20 UNL     1     -13.869  11.225 -39.833  1.00  0.00     0.140 A 
ATOM     17  H4  UNL     1     -15.896  11.005 -39.596  1.00  0.00     0.172 HD
HETATM   18  C21 UNL     1     -12.831  12.134 -39.698  1.00  0.00     0.190 A 
BRANCH  16  19
HETATM   19  N5  UNL     1     -13.666  10.025 -40.256  1.00  0.00    -0.383 N 
ATOM     20  H52 UNL     1     -13.411   9.835 -41.225  1.00  0.00     0.157 HD
ATOM     21  H51 UNL     1     -13.759   9.224 -39.632  1.00  0.00     0.157 HD
ENDBRANCH  16  19
BRANCH  18  22
HETATM   22  N6  UNL     1     -11.515  11.772 -40.005  1.00  0.00    -0.108 N 
HETATM   23  O8  UNL     1     -11.165  11.747 -41.201  1.00  0.00    -0.531 OA
HETATM   24  O9  UNL     1     -10.570  11.438 -39.071  1.00  0.00    -0.531 OA
ENDBRANCH  18  22
ENDBRANCH   8  10
ENDBRANCH   7   8
BRANCH   1  25
HETATM   25  N1  UNL     1     -10.654  14.570 -36.738  1.00  0.00    -0.419 NA
BRANCH  25  26
HETATM   26  C11 UNL     1     -10.031  13.678 -36.305  1.00  0.00     0.164 C 
BRANCH  26  27
HETATM   27  C9  UNL     1      -8.877  13.666 -35.300  1.00  0.00     0.072 C 
HETATM   28  C10 UNL     1      -8.911  14.986 -34.607  1.00  0.00     0.022 C 
BRANCH  27  29
HETATM   29  C8  UNL     1      -9.019  12.521 -34.411  1.00  0.00     0.018 A 
HETATM   30  C2  UNL     1      -8.002  11.549 -34.458  1.00  0.00     0.080 A 
HETATM   31  C3  UNL     1      -8.022  10.407 -33.717  1.00  0.00     0.074 A 
HETATM   32  C4  UNL     1      -9.071  10.167 -32.879  1.00  0.00     0.071 A 
HETATM   33  C5  UNL     1     -10.086  11.098 -32.806  1.00  0.00     0.074 A 
HETATM   34  C6  UNL     1     -10.070  12.282 -33.569  1.00  0.00     0.080 A 
BRANCH  30  35
HETATM   35  O1  UNL     1      -6.937  11.783 -35.304  1.00  0.00    -0.355 OA
HETATM   36  C1  UNL     1      -5.712  11.126 -35.074  1.00  0.00     0.210 C 
ENDBRANCH  30  35
BRANCH  32  37
HETATM   37  O2  UNL     1      -9.160   9.007 -32.081  1.00  0.00    -0.361 OA
ATOM     38  H2  UNL     1      -9.258   8.136 -32.450  1.00  0.00     0.217 HD
ENDBRANCH  32  37
BRANCH  34  39
HETATM   39  O3  UNL     1     -11.087  13.195 -33.486  1.00  0.00    -0.355 OA
HETATM   40  C7  UNL     1     -12.350  12.933 -33.006  1.00  0.00     0.210 C 
ENDBRANCH  34  39
ENDBRANCH  27  29
ENDBRANCH  26  27
ENDBRANCH  25  26
ENDBRANCH   1  25
BRANCH   3  41
HETATM   41  S1  UNL     1     -11.971  19.434 -36.176  1.00  0.00     0.137 S 
HETATM   42  O4  UNL     1     -12.193  20.590 -37.120  1.00  0.00    -0.591 OA
HETATM   43  O5  UNL     1     -10.653  19.639 -35.504  1.00  0.00    -0.591 OA
HETATM   44  O6  UNL     1     -13.179  19.381 -35.008  1.00  0.00    -0.591 OA
ENDBRANCH   3  41
TORSDOF 12
ENDMDL
