MODEL 1
REMARK VINA RESULT: -10.250154468      0.000      0.000
REMARK  5 active torsions:
REMARK  status: ('A' for Active; 'I' for Inactive)
REMARK    1  A    between atoms: C4_4  and  C5_5 
REMARK    2  A    between atoms: C5_5  and  S1_6 
REMARK    3  A    between atoms: S1_6  and  C6_7 
REMARK    4  A    between atoms: C6_7  and  C7_8 
REMARK    5  A    between atoms: C6_7  and  C13_14 
ROOT
HETATM    1  C6  UNL     1       0.415   7.120  13.976  1.00  0.00     0.113 C 
ENDROOT
BRANCH   1   2
HETATM    2  S1  UNL     1      -0.507   5.541  14.061  1.00  0.00    -0.150 SA
BRANCH   2   3
HETATM    3  C5  UNL     1       0.343   4.470  15.227  1.00  0.00     0.113 C 
BRANCH   3   4
HETATM    4  C4  UNL     1       0.317   3.036  14.800  1.00  0.00    -0.049 A 
HETATM    5  C3  UNL     1       1.445   2.276  14.594  1.00  0.00     0.008 A 
HETATM    6  C2  UNL     1       1.365   0.950  14.196  1.00  0.00     0.001 A 
HETATM    7  C1  UNL     1       0.150   0.333  13.991  1.00  0.00     0.000 A 
HETATM    8  C20 UNL     1      -0.985   1.086  14.196  1.00  0.00     0.001 A 
HETATM    9  C19 UNL     1      -0.913   2.402  14.588  1.00  0.00     0.008 A 
ENDBRANCH   3   4
ENDBRANCH   2   3
ENDBRANCH   1   2
BRANCH   1  10
HETATM   10  C7  UNL     1      -0.617   8.181  13.813  1.00  0.00    -0.040 A 
HETATM   11  C8  UNL     1      -1.387   8.544  14.874  1.00  0.00     0.009 A 
HETATM   12  C9  UNL     1      -2.359   9.519  14.749  1.00  0.00     0.001 A 
HETATM   13  C10 UNL     1      -2.589  10.162  13.562  1.00  0.00     0.000 A 
HETATM   14  C11 UNL     1      -1.808   9.797  12.483  1.00  0.00     0.001 A 
HETATM   15  C12 UNL     1      -0.830   8.816  12.605  1.00  0.00     0.009 A 
ENDBRANCH   1  10
BRANCH   1  16
HETATM   16  C13 UNL     1       1.420   7.092  12.911  1.00  0.00    -0.040 A 
HETATM   17  C14 UNL     1       2.405   8.036  12.747  1.00  0.00     0.009 A 
HETATM   18  C15 UNL     1       3.300   7.919  11.717  1.00  0.00     0.001 A 
HETATM   19  C16 UNL     1       3.259   6.878  10.819  1.00  0.00     0.000 A 
HETATM   20  C17 UNL     1       2.268   5.906  10.965  1.00  0.00     0.001 A 
HETATM   21  C18 UNL     1       1.377   6.038  12.004  1.00  0.00     0.009 A 
ENDBRANCH   1  16
TORSDOF 5
ENDMDL
MODEL 2
REMARK VINA RESULT: -10.200214469      1.732      6.237
REMARK  5 active torsions:
REMARK  status: ('A' for Active; 'I' for Inactive)
REMARK    1  A    between atoms: C4_4  and  C5_5 
REMARK    2  A    between atoms: C5_5  and  S1_6 
REMARK    3  A    between atoms: S1_6  and  C6_7 
REMARK    4  A    between atoms: C6_7  and  C7_8 
REMARK    5  A    between atoms: C6_7  and  C13_14 
ROOT
HETATM    1  C6  UNL     1       1.400   4.119  14.852  1.00  0.00     0.113 C 
ENDROOT
BRANCH   1   2
HETATM    2  S1  UNL     1       3.062   3.826  14.144  1.00  0.00    -0.150 SA
BRANCH   2   3
HETATM    3  C5  UNL     1       4.031   5.322  14.379  1.00  0.00     0.113 C 
BRANCH   3   4
HETATM    4  C4  UNL     1       3.906   6.263  13.223  1.00  0.00    -0.049 A 
HETATM    5  C3  UNL     1       3.638   7.606  13.351  1.00  0.00     0.008 A 
HETATM    6  C2  UNL     1       3.532   8.436  12.245  1.00  0.00     0.001 A 
HETATM    7  C1  UNL     1       3.692   7.951  10.965  1.00  0.00     0.000 A 
HETATM    8  C20 UNL     1       3.961   6.607  10.826  1.00  0.00     0.001 A 
HETATM    9  C19 UNL     1       4.066   5.778  11.919  1.00  0.00     0.008 A 
ENDBRANCH   3   4
ENDBRANCH   2   3
ENDBRANCH   1   2
BRANCH   1  10
HETATM   10  C7  UNL     1       0.614   2.889  14.557  1.00  0.00    -0.040 A 
HETATM   11  C8  UNL     1       1.254   1.760  14.148  1.00  0.00     0.009 A 
HETATM   12  C9  UNL     1       0.549   0.607  13.859  1.00  0.00     0.001 A 
HETATM   13  C10 UNL     1      -0.816   0.546  13.972  1.00  0.00     0.000 A 
HETATM   14  C11 UNL     1      -1.467   1.689  14.389  1.00  0.00     0.001 A 
HETATM   15  C12 UNL     1      -0.761   2.852  14.680  1.00  0.00     0.009 A 
ENDBRANCH   1  10
BRANCH   1  16
HETATM   16  C13 UNL     1       0.807   5.350  14.324  1.00  0.00    -0.040 A 
HETATM   17  C14 UNL     1       0.541   5.578  12.996  1.00  0.00     0.009 A 
HETATM   18  C15 UNL     1      -0.018   6.765  12.603  1.00  0.00     0.001 A 
HETATM   19  C16 UNL     1      -0.331   7.764  13.496  1.00  0.00     0.000 A 
HETATM   20  C17 UNL     1      -0.071   7.556  14.852  1.00  0.00     0.001 A 
HETATM   21  C18 UNL     1       0.490   6.358  15.229  1.00  0.00     0.009 A 
ENDBRANCH   1  16
TORSDOF 5
ENDMDL
MODEL 3
REMARK VINA RESULT: -10.199153047      0.087      1.038
REMARK  5 active torsions:
REMARK  status: ('A' for Active; 'I' for Inactive)
REMARK    1  A    between atoms: C4_4  and  C5_5 
REMARK    2  A    between atoms: C5_5  and  S1_6 
REMARK    3  A    between atoms: S1_6  and  C6_7 
REMARK    4  A    between atoms: C6_7  and  C7_8 
REMARK    5  A    between atoms: C6_7  and  C13_14 
ROOT
HETATM    1  C6  UNL     1       0.394   7.089  14.008  1.00  0.00     0.113 C 
ENDROOT
BRANCH   1   2
HETATM    2  S1  UNL     1      -0.550   5.533  14.207  1.00  0.00    -0.150 SA
BRANCH   2   3
HETATM    3  C5  UNL     1       0.394   4.451  15.288  1.00  0.00     0.113 C 
BRANCH   3   4
HETATM    4  C4  UNL     1       0.346   3.024  14.840  1.00  0.00    -0.049 A 
HETATM    5  C3  UNL     1       1.462   2.248  14.626  1.00  0.00     0.008 A 
HETATM    6  C2  UNL     1       1.362   0.929  14.210  1.00  0.00     0.001 A 
HETATM    7  C1  UNL     1       0.138   0.335  13.993  1.00  0.00     0.000 A 
HETATM    8  C20 UNL     1      -0.986   1.104  14.205  1.00  0.00     0.001 A 
HETATM    9  C19 UNL     1      -0.893   2.412  14.616  1.00  0.00     0.008 A 
ENDBRANCH   3   4
ENDBRANCH   2   3
ENDBRANCH   1   2
BRANCH   1  10
HETATM   10  C7  UNL     1      -0.626   8.156  13.815  1.00  0.00    -0.040 A 
HETATM   11  C8  UNL     1      -1.414   8.535  14.857  1.00  0.00     0.009 A 
HETATM   12  C9  UNL     1      -2.374   9.517  14.704  1.00  0.00     0.001 A 
HETATM   13  C10 UNL     1      -2.575  10.152  13.506  1.00  0.00     0.000 A 
HETATM   14  C11 UNL     1      -1.776   9.770  12.447  1.00  0.00     0.001 A 
HETATM   15  C12 UNL     1      -0.809   8.782  12.597  1.00  0.00     0.009 A 
ENDBRANCH   1  10
BRANCH   1  16
HETATM   16  C13 UNL     1       1.367   6.984  12.919  1.00  0.00    -0.040 A 
HETATM   17  C14 UNL     1       1.340   6.018  11.943  1.00  0.00     0.009 A 
HETATM   18  C15 UNL     1       2.298   6.007  10.964  1.00  0.00     0.001 A 
HETATM   19  C16 UNL     1       3.310   6.938  10.911  1.00  0.00     0.000 A 
HETATM   20  C17 UNL     1       3.358   7.931  11.892  1.00  0.00     0.001 A 
HETATM   21  C18 UNL     1       2.389   7.927  12.867  1.00  0.00     0.009 A 
ENDBRANCH   1  16
TORSDOF 5
ENDMDL
MODEL 4
REMARK VINA RESULT: -10.179965493      1.249      6.524
REMARK  5 active torsions:
REMARK  status: ('A' for Active; 'I' for Inactive)
REMARK    1  A    between atoms: C4_4  and  C5_5 
REMARK    2  A    between atoms: C5_5  and  S1_6 
REMARK    3  A    between atoms: S1_6  and  C6_7 
REMARK    4  A    between atoms: C6_7  and  C7_8 
REMARK    5  A    between atoms: C6_7  and  C13_14 
ROOT
HETATM    1  C6  UNL     1       1.102   4.341  14.734  1.00  0.00     0.113 C 
ENDROOT
BRANCH   1   2
HETATM    2  S1  UNL     1      -0.357   5.436  14.584  1.00  0.00    -0.150 SA
BRANCH   2   3
HETATM    3  C5  UNL     1       0.171   7.111  14.965  1.00  0.00     0.113 C 
BRANCH   3   4
HETATM    4  C4  UNL     1      -0.643   8.138  14.243  1.00  0.00    -0.049 A 
HETATM    5  C3  UNL     1      -0.426   8.510  12.937  1.00  0.00     0.008 A 
HETATM    6  C2  UNL     1      -1.210   9.469  12.313  1.00  0.00     0.001 A 
HETATM    7  C1  UNL     1      -2.245  10.093  12.976  1.00  0.00     0.000 A 
HETATM    8  C20 UNL     1      -2.471   9.726  14.285  1.00  0.00     0.001 A 
HETATM    9  C19 UNL     1      -1.696   8.777  14.909  1.00  0.00     0.008 A 
ENDBRANCH   3   4
ENDBRANCH   2   3
ENDBRANCH   1   2
BRANCH   1  10
HETATM   10  C7  UNL     1       2.115   4.887  13.790  1.00  0.00    -0.040 A 
HETATM   11  C8  UNL     1       1.774   5.120  12.494  1.00  0.00     0.009 A 
HETATM   12  C9  UNL     1       2.696   5.618  11.593  1.00  0.00     0.001 A 
HETATM   13  C10 UNL     1       3.986   5.899  11.959  1.00  0.00     0.000 A 
HETATM   14  C11 UNL     1       4.335   5.665  13.275  1.00  0.00     0.001 A 
HETATM   15  C12 UNL     1       3.409   5.163  14.184  1.00  0.00     0.009 A 
ENDBRANCH   1  10
BRANCH   1  16
HETATM   16  C13 UNL     1       0.744   2.941  14.488  1.00  0.00    -0.040 A 
HETATM   17  C14 UNL     1       1.648   1.946  14.209  1.00  0.00     0.009 A 
HETATM   18  C15 UNL     1       1.212   0.666  13.995  1.00  0.00     0.001 A 
HETATM   19  C16 UNL     1      -0.119   0.321  14.047  1.00  0.00     0.000 A 
HETATM   20  C17 UNL     1      -1.057   1.316  14.330  1.00  0.00     0.001 A 
HETATM   21  C18 UNL     1      -0.602   2.596  14.543  1.00  0.00     0.009 A 
ENDBRANCH   1  16
TORSDOF 5
ENDMDL
MODEL 5
REMARK VINA RESULT: -10.162589627      1.176      1.265
REMARK  5 active torsions:
REMARK  status: ('A' for Active; 'I' for Inactive)
REMARK    1  A    between atoms: C4_4  and  C5_5 
REMARK    2  A    between atoms: C5_5  and  S1_6 
REMARK    3  A    between atoms: S1_6  and  C6_7 
REMARK    4  A    between atoms: C6_7  and  C7_8 
REMARK    5  A    between atoms: C6_7  and  C13_14 
ROOT
HETATM    1  C6  UNL     1       0.397   6.405  14.609  1.00  0.00     0.113 C 
ENDROOT
BRANCH   1   2
HETATM    2  S1  UNL     1      -0.721   4.959  14.496  1.00  0.00    -0.150 SA
BRANCH   2   3
HETATM    3  C5  UNL     1      -0.206   3.768  15.739  1.00  0.00     0.113 C 
BRANCH   3   4
HETATM    4  C4  UNL     1       0.390   2.538  15.130  1.00  0.00    -0.049 A 
HETATM    5  C3  UNL     1       1.736   2.254  15.137  1.00  0.00     0.008 A 
HETATM    6  C2  UNL     1       2.238   1.098  14.557  1.00  0.00     0.001 A 
HETATM    7  C1  UNL     1       1.409   0.181  13.948  1.00  0.00     0.000 A 
HETATM    8  C20 UNL     1       0.059   0.457  13.937  1.00  0.00     0.001 A 
HETATM    9  C19 UNL     1      -0.445   1.601  14.508  1.00  0.00     0.008 A 
ENDBRANCH   3   4
ENDBRANCH   2   3
ENDBRANCH   1   2
BRANCH   1  10
HETATM   10  C7  UNL     1      -0.376   7.555  14.063  1.00  0.00    -0.040 A 
HETATM   11  C8  UNL     1      -1.221   8.247  14.874  1.00  0.00     0.009 A 
HETATM   12  C9  UNL     1      -1.957   9.312  14.392  1.00  0.00     0.001 A 
HETATM   13  C10 UNL     1      -1.870   9.721  13.087  1.00  0.00     0.000 A 
HETATM   14  C11 UNL     1      -1.011   9.021  12.262  1.00  0.00     0.001 A 
HETATM   15  C12 UNL     1      -0.270   7.948  12.744  1.00  0.00     0.009 A 
ENDBRANCH   1  10
BRANCH   1  16
HETATM   16  C13 UNL     1       1.664   6.152  13.919  1.00  0.00    -0.040 A 
HETATM   17  C14 UNL     1       2.836   6.822  14.177  1.00  0.00     0.009 A 
HETATM   18  C15 UNL     1       3.970   6.510  13.476  1.00  0.00     0.001 A 
HETATM   19  C16 UNL     1       3.994   5.536  12.505  1.00  0.00     0.000 A 
HETATM   20  C17 UNL     1       2.816   4.840  12.226  1.00  0.00     0.001 A 
HETATM   21  C18 UNL     1       1.685   5.166  12.939  1.00  0.00     0.009 A 
ENDBRANCH   1  16
TORSDOF 5
ENDMDL
