MODEL 1
REMARK VINA RESULT: -11.773249054      0.000      0.000
REMARK  5 active torsions:
REMARK  status: ('A' for Active; 'I' for Inactive)
REMARK    1  A    between atoms: C4_4  and  C5_5 
REMARK    2  A    between atoms: C5_5  and  C6_6 
REMARK    3  A    between atoms: C6_6  and  C7_7 
REMARK    4  A    between atoms: C7_7  and  C8_8 
REMARK    5  A    between atoms: C8_8  and  C9_9 
ROOT
HETATM    1  C9  UNL     1       4.677   3.001  12.543  1.00  0.00    -0.057 A 
HETATM    2  C10 UNL     1       3.694   3.780  13.131  1.00  0.00     0.010 A 
HETATM    3  C11 UNL     1       3.813   5.150  13.236  1.00  0.00     0.039 A 
HETATM    4  C12 UNL     1       4.947   5.769  12.739  1.00  0.00     0.087 A 
HETATM    5  O1  UNL     1       5.349   7.020  12.688  1.00  0.00    -0.309 OA
HETATM    6  C13 UNL     1       6.523   7.129  12.110  1.00  0.00     0.087 A 
HETATM    7  C14 UNL     1       7.339   8.223  11.831  1.00  0.00     0.038 A 
HETATM    8  C15 UNL     1       8.551   8.034  11.199  1.00  0.00     0.003 A 
HETATM    9  C16 UNL     1       9.009   6.787  10.819  1.00  0.00     0.001 A 
HETATM   10  C17 UNL     1       8.178   5.716  11.108  1.00  0.00     0.015 A 
HETATM   11  C18 UNL     1       6.963   5.877  11.738  1.00  0.00     0.011 A 
HETATM   12  C19 UNL     1       5.948   5.024  12.146  1.00  0.00     0.011 A 
HETATM   13  C20 UNL     1       5.792   3.647  12.060  1.00  0.00     0.022 A 
ENDROOT
BRANCH   1  14
HETATM   14  C8  UNL     1       4.514   1.532  12.448  1.00  0.00     0.038 C 
BRANCH  14  15
HETATM   15  C7  UNL     1       3.108   1.133  12.073  1.00  0.00     0.005 C 
BRANCH  15  16
HETATM   16  C6  UNL     1       2.692   0.056  13.064  1.00  0.00     0.005 C 
BRANCH  16  17
HETATM   17  C5  UNL     1       2.473   0.616  14.449  1.00  0.00     0.038 C 
BRANCH  17  18
HETATM   18  C4  UNL     1       1.108   1.164  14.504  1.00  0.00    -0.058 A 
HETATM   19  C3  UNL     1       0.867   2.353  15.143  1.00  0.00     0.007 A 
HETATM   20  C2  UNL     1      -0.431   2.874  15.195  1.00  0.00     0.001 A 
HETATM   21  C1  UNL     1      -1.458   2.185  14.600  1.00  0.00     0.000 A 
HETATM   22  C22 UNL     1      -1.235   0.978  13.946  1.00  0.00     0.001 A 
HETATM   23  C21 UNL     1       0.066   0.497  13.919  1.00  0.00     0.007 A 
ENDBRANCH  17  18
ENDBRANCH  16  17
ENDBRANCH  15  16
ENDBRANCH  14  15
ENDBRANCH   1  14
TORSDOF 5
ENDMDL
MODEL 2
REMARK VINA RESULT: -11.603200376      5.678      7.921
REMARK  5 active torsions:
REMARK  status: ('A' for Active; 'I' for Inactive)
REMARK    1  A    between atoms: C4_4  and  C5_5 
REMARK    2  A    between atoms: C5_5  and  C6_6 
REMARK    3  A    between atoms: C6_6  and  C7_7 
REMARK    4  A    between atoms: C7_7  and  C8_8 
REMARK    5  A    between atoms: C8_8  and  C9_9 
ROOT
HETATM    1  C9  UNL     1       0.288   7.805  14.435  1.00  0.00    -0.057 A 
HETATM    2  C10 UNL     1       0.922   7.969  13.214  1.00  0.00     0.010 A 
HETATM    3  C11 UNL     1       0.371   8.727  12.201  1.00  0.00     0.039 A 
HETATM    4  C12 UNL     1      -0.850   9.343  12.407  1.00  0.00     0.087 A 
HETATM    5  O1  UNL     1      -1.616  10.109  11.662  1.00  0.00    -0.309 OA
HETATM    6  C13 UNL     1      -2.709  10.465  12.296  1.00  0.00     0.087 A 
HETATM    7  C14 UNL     1      -3.798  11.254  11.930  1.00  0.00     0.038 A 
HETATM    8  C15 UNL     1      -4.828  11.462  12.823  1.00  0.00     0.003 A 
HETATM    9  C16 UNL     1      -4.839  10.916  14.092  1.00  0.00     0.001 A 
HETATM   10  C17 UNL     1      -3.744  10.137  14.431  1.00  0.00     0.015 A 
HETATM   11  C18 UNL     1      -2.701   9.913  13.559  1.00  0.00     0.011 A 
HETATM   12  C19 UNL     1      -1.511   9.202  13.611  1.00  0.00     0.011 A 
HETATM   13  C20 UNL     1      -0.926   8.431  14.607  1.00  0.00     0.022 A 
ENDROOT
BRANCH   1  14
HETATM   14  C8  UNL     1       0.909   6.984  15.499  1.00  0.00     0.038 C 
BRANCH  14  15
HETATM   15  C7  UNL     1       1.207   5.578  15.040  1.00  0.00     0.005 C 
BRANCH  15  16
HETATM   16  C6  UNL     1      -0.125   4.842  15.025  1.00  0.00     0.005 C 
BRANCH  16  17
HETATM   17  C5  UNL     1      -0.135   3.673  15.980  1.00  0.00     0.038 C 
BRANCH  17  18
HETATM   18  C4  UNL     1       0.117   2.451  15.201  1.00  0.00    -0.058 A 
HETATM   19  C3  UNL     1       1.402   2.023  14.983  1.00  0.00     0.007 A 
HETATM   20  C2  UNL     1       1.641   0.861  14.242  1.00  0.00     0.001 A 
HETATM   21  C1  UNL     1       0.580   0.153  13.736  1.00  0.00     0.000 A 
HETATM   22  C22 UNL     1      -0.731   0.568  13.946  1.00  0.00     0.001 A 
HETATM   23  C21 UNL     1      -0.924   1.727  14.686  1.00  0.00     0.007 A 
ENDBRANCH  17  18
ENDBRANCH  16  17
ENDBRANCH  15  16
ENDBRANCH  14  15
ENDBRANCH   1  14
TORSDOF 5
ENDMDL
MODEL 3
REMARK VINA RESULT: -11.460960167      1.226      2.250
REMARK  5 active torsions:
REMARK  status: ('A' for Active; 'I' for Inactive)
REMARK    1  A    between atoms: C4_4  and  C5_5 
REMARK    2  A    between atoms: C5_5  and  C6_6 
REMARK    3  A    between atoms: C6_6  and  C7_7 
REMARK    4  A    between atoms: C7_7  and  C8_8 
REMARK    5  A    between atoms: C8_8  and  C9_9 
ROOT
HETATM    1  C9  UNL     1       5.123   3.966  12.592  1.00  0.00    -0.057 A 
HETATM    2  C10 UNL     1       6.199   3.601  11.801  1.00  0.00     0.010 A 
HETATM    3  C11 UNL     1       7.078   4.532  11.288  1.00  0.00     0.039 A 
HETATM    4  C12 UNL     1       6.882   5.872  11.570  1.00  0.00     0.087 A 
HETATM    5  O1  UNL     1       7.523   6.972  11.241  1.00  0.00    -0.309 OA
HETATM    6  C13 UNL     1       6.953   8.038  11.754  1.00  0.00     0.087 A 
HETATM    7  C14 UNL     1       7.259   9.395  11.688  1.00  0.00     0.038 A 
HETATM    8  C15 UNL     1       6.464  10.313  12.343  1.00  0.00     0.003 A 
HETATM    9  C16 UNL     1       5.353   9.948  13.079  1.00  0.00     0.001 A 
HETATM   10  C17 UNL     1       5.072   8.592  13.129  1.00  0.00     0.015 A 
HETATM   11  C18 UNL     1       5.849   7.655  12.484  1.00  0.00     0.011 A 
HETATM   12  C19 UNL     1       5.819   6.274  12.356  1.00  0.00     0.011 A 
HETATM   13  C20 UNL     1       4.956   5.307  12.854  1.00  0.00     0.022 A 
ENDROOT
BRANCH   1  14
HETATM   14  C8  UNL     1       4.200   2.938  13.126  1.00  0.00     0.038 C 
BRANCH  14  15
HETATM   15  C7  UNL     1       4.298   1.633  12.376  1.00  0.00     0.005 C 
BRANCH  15  16
HETATM   16  C6  UNL     1       2.982   0.906  12.611  1.00  0.00     0.005 C 
BRANCH  16  17
HETATM   17  C5  UNL     1       2.692   0.723  14.081  1.00  0.00     0.038 C 
BRANCH  17  18
HETATM   18  C4  UNL     1       1.309   1.163  14.327  1.00  0.00    -0.058 A 
HETATM   19  C3  UNL     1       1.063   2.263  15.108  1.00  0.00     0.007 A 
HETATM   20  C2  UNL     1      -0.252   2.681  15.341  1.00  0.00     0.001 A 
HETATM   21  C1  UNL     1      -1.292   1.981  14.782  1.00  0.00     0.000 A 
HETATM   22  C22 UNL     1      -1.064   0.862  13.987  1.00  0.00     0.001 A 
HETATM   23  C21 UNL     1       0.255   0.482  13.782  1.00  0.00     0.007 A 
ENDBRANCH  17  18
ENDBRANCH  16  17
ENDBRANCH  15  16
ENDBRANCH  14  15
ENDBRANCH   1  14
TORSDOF 5
ENDMDL
MODEL 4
REMARK VINA RESULT: -11.419557698      3.501      5.522
REMARK  5 active torsions:
REMARK  status: ('A' for Active; 'I' for Inactive)
REMARK    1  A    between atoms: C4_4  and  C5_5 
REMARK    2  A    between atoms: C5_5  and  C6_6 
REMARK    3  A    between atoms: C6_6  and  C7_7 
REMARK    4  A    between atoms: C7_7  and  C8_8 
REMARK    5  A    between atoms: C8_8  and  C9_9 
ROOT
HETATM    1  C9  UNL     1       2.817   5.225  13.293  1.00  0.00    -0.057 A 
HETATM    2  C10 UNL     1       2.938   5.379  11.922  1.00  0.00     0.010 A 
HETATM    3  C11 UNL     1       2.135   6.245  11.210  1.00  0.00     0.039 A 
HETATM    4  C12 UNL     1       1.178   6.985  11.882  1.00  0.00     0.087 A 
HETATM    5  O1  UNL     1       0.284   7.870  11.501  1.00  0.00    -0.309 OA
HETATM    6  C13 UNL     1      -0.421   8.315  12.516  1.00  0.00     0.087 A 
HETATM    7  C14 UNL     1      -1.459   9.239  12.611  1.00  0.00     0.038 A 
HETATM    8  C15 UNL     1      -2.024   9.515  13.839  1.00  0.00     0.003 A 
HETATM    9  C16 UNL     1      -1.606   8.910  15.008  1.00  0.00     0.001 A 
HETATM   10  C17 UNL     1      -0.571   7.995  14.886  1.00  0.00     0.015 A 
HETATM   11  C18 UNL     1       0.011   7.701  13.672  1.00  0.00     0.011 A 
HETATM   12  C19 UNL     1       1.028   6.858  13.249  1.00  0.00     0.011 A 
HETATM   13  C20 UNL     1       1.855   5.975  13.932  1.00  0.00     0.022 A 
ENDROOT
BRANCH   1  14
HETATM   14  C8  UNL     1       3.698   4.285  14.024  1.00  0.00     0.038 C 
BRANCH  14  15
HETATM   15  C7  UNL     1       4.244   3.199  13.133  1.00  0.00     0.005 C 
BRANCH  15  16
HETATM   16  C6  UNL     1       3.260   2.041  13.218  1.00  0.00     0.005 C 
BRANCH  16  17
HETATM   17  C5  UNL     1       2.781   1.811  14.631  1.00  0.00     0.038 C 
BRANCH  17  18
HETATM   18  C4  UNL     1       1.313   1.717  14.600  1.00  0.00    -0.058 A 
HETATM   19  C3  UNL     1       0.700   0.687  13.934  1.00  0.00     0.007 A 
HETATM   20  C2  UNL     1      -0.696   0.598  13.905  1.00  0.00     0.001 A 
HETATM   21  C1  UNL     1      -1.446   1.550  14.549  1.00  0.00     0.000 A 
HETATM   22  C22 UNL     1      -0.845   2.602  15.231  1.00  0.00     0.001 A 
HETATM   23  C21 UNL     1       0.542   2.653  15.235  1.00  0.00     0.007 A 
ENDBRANCH  17  18
ENDBRANCH  16  17
ENDBRANCH  15  16
ENDBRANCH  14  15
ENDBRANCH   1  14
TORSDOF 5
ENDMDL
MODEL 5
REMARK VINA RESULT: -11.405370723      3.324      5.248
REMARK  5 active torsions:
REMARK  status: ('A' for Active; 'I' for Inactive)
REMARK    1  A    between atoms: C4_4  and  C5_5 
REMARK    2  A    between atoms: C5_5  and  C6_6 
REMARK    3  A    between atoms: C6_6  and  C7_7 
REMARK    4  A    between atoms: C7_7  and  C8_8 
REMARK    5  A    between atoms: C8_8  and  C9_9 
ROOT
HETATM    1  C9  UNL     1       3.013   5.022  13.161  1.00  0.00    -0.057 A 
HETATM    2  C10 UNL     1       3.151   5.239  11.800  1.00  0.00     0.010 A 
HETATM    3  C11 UNL     1       2.368   6.150  11.122  1.00  0.00     0.039 A 
HETATM    4  C12 UNL     1       1.414   6.870  11.818  1.00  0.00     0.087 A 
HETATM    5  O1  UNL     1       0.536   7.785  11.470  1.00  0.00    -0.309 OA
HETATM    6  C13 UNL     1      -0.174   8.191  12.498  1.00  0.00     0.087 A 
HETATM    7  C14 UNL     1      -1.200   9.125  12.626  1.00  0.00     0.038 A 
HETATM    8  C15 UNL     1      -1.775   9.351  13.859  1.00  0.00     0.003 A 
HETATM    9  C16 UNL     1      -1.378   8.685  15.003  1.00  0.00     0.001 A 
HETATM   10  C17 UNL     1      -0.355   7.762  14.848  1.00  0.00     0.015 A 
HETATM   11  C18 UNL     1       0.237   7.517  13.628  1.00  0.00     0.011 A 
HETATM   12  C19 UNL     1       1.247   6.681  13.176  1.00  0.00     0.011 A 
HETATM   13  C20 UNL     1       2.054   5.755  13.824  1.00  0.00     0.022 A 
ENDROOT
BRANCH   1  14
HETATM   14  C8  UNL     1       3.872   4.036  13.856  1.00  0.00     0.038 C 
BRANCH  14  15
HETATM   15  C7  UNL     1       4.292   2.904  12.953  1.00  0.00     0.005 C 
BRANCH  15  16
HETATM   16  C6  UNL     1       3.192   1.856  13.043  1.00  0.00     0.005 C 
BRANCH  16  17
HETATM   17  C5  UNL     1       2.774   1.596  14.470  1.00  0.00     0.038 C 
BRANCH  17  18
HETATM   18  C4  UNL     1       1.304   1.613  14.521  1.00  0.00    -0.058 A 
HETATM   19  C3  UNL     1       0.646   2.607  15.199  1.00  0.00     0.007 A 
HETATM   20  C2  UNL     1      -0.751   2.622  15.246  1.00  0.00     0.001 A 
HETATM   21  C1  UNL     1      -1.459   1.634  14.608  1.00  0.00     0.000 A 
HETATM   22  C22 UNL     1      -0.813   0.617  13.914  1.00  0.00     0.001 A 
HETATM   23  C21 UNL     1       0.575   0.639  13.893  1.00  0.00     0.007 A 
ENDBRANCH  17  18
ENDBRANCH  16  17
ENDBRANCH  15  16
ENDBRANCH  14  15
ENDBRANCH   1  14
TORSDOF 5
ENDMDL
