MODEL 1
REMARK VINA RESULT: -11.315220041      0.000      0.000
REMARK  4 active torsions:
REMARK  status: ('A' for Active; 'I' for Inactive)
REMARK    1  A    between atoms: C4_4  and  C5_5 
REMARK    2  A    between atoms: C5_5  and  C6_6 
REMARK    3  A    between atoms: C6_6  and  C7_7 
REMARK    4  A    between atoms: C8_8  and  C9_9 
ROOT
HETATM    1  C9  UNL     1       3.152   2.414  14.003  1.00  0.00     0.077 A 
HETATM    2  C10 UNL     1       1.702   1.950  14.123  1.00  0.00    -0.033 A 
HETATM    3  C11 UNL     1       1.176   0.653  14.037  1.00  0.00     0.009 A 
HETATM    4  C12 UNL     1      -0.180   0.416  14.154  1.00  0.00     0.001 A 
HETATM    5  C13 UNL     1      -1.046   1.492  14.364  1.00  0.00     0.001 A 
HETATM    6  C14 UNL     1      -0.509   2.756  14.446  1.00  0.00     0.015 A 
HETATM    7  C15 UNL     1       0.866   2.973  14.323  1.00  0.00     0.006 A 
HETATM    8  C16 UNL     1       1.695   4.173  14.384  1.00  0.00     0.093 A 
HETATM    9  O1  UNL     1       1.585   5.475  14.555  1.00  0.00    -0.321 OA
HETATM   10  C17 UNL     1       2.746   6.046  14.515  1.00  0.00     0.143 A 
HETATM   11  C18 UNL     1       3.717   5.094  14.303  1.00  0.00     0.035 A 
HETATM   12  C19 UNL     1       3.021   3.871  14.215  1.00  0.00    -0.009 A 
ENDROOT
BRANCH   1  13
HETATM   13  C8  UNL     1       3.630   1.950  12.684  1.00  0.00    -0.017 C 
HETATM   14  C7  UNL     1       4.995   1.648  12.306  1.00  0.00    -0.029 C 
BRANCH  14  15
HETATM   15  C6  UNL     1       6.085   2.658  12.390  1.00  0.00     0.031 C 
BRANCH  15  16
HETATM   16  C5  UNL     1       5.809   3.867  11.499  1.00  0.00     0.042 C 
BRANCH  16  17
HETATM   17  C4  UNL     1       6.762   4.974  11.677  1.00  0.00    -0.058 A 
HETATM   18  C3  UNL     1       8.143   4.795  11.575  1.00  0.00     0.007 A 
HETATM   19  C2  UNL     1       9.015   5.853  11.727  1.00  0.00     0.001 A 
HETATM   20  C1  UNL     1       8.560   7.121  11.984  1.00  0.00     0.000 A 
HETATM   21  C21 UNL     1       7.200   7.318  12.088  1.00  0.00     0.001 A 
HETATM   22  C20 UNL     1       6.344   6.262  11.936  1.00  0.00     0.007 A 
ENDBRANCH  16  17
ENDBRANCH  15  16
ENDBRANCH  14  15
ENDBRANCH   1  13
TORSDOF 4
ENDMDL
MODEL 2
REMARK VINA RESULT: -11.308337782      0.030      1.004
REMARK  4 active torsions:
REMARK  status: ('A' for Active; 'I' for Inactive)
REMARK    1  A    between atoms: C4_4  and  C5_5 
REMARK    2  A    between atoms: C5_5  and  C6_6 
REMARK    3  A    between atoms: C6_6  and  C7_7 
REMARK    4  A    between atoms: C8_8  and  C9_9 
ROOT
HETATM    1  C9  UNL     1       3.149   2.414  14.003  1.00  0.00     0.077 A 
HETATM    2  C10 UNL     1       1.699   1.949  14.122  1.00  0.00    -0.033 A 
HETATM    3  C11 UNL     1       1.174   0.653  14.033  1.00  0.00     0.009 A 
HETATM    4  C12 UNL     1      -0.183   0.415  14.150  1.00  0.00     0.001 A 
HETATM    5  C13 UNL     1      -1.049   1.490  14.362  1.00  0.00     0.001 A 
HETATM    6  C14 UNL     1      -0.512   2.754  14.446  1.00  0.00     0.015 A 
HETATM    7  C15 UNL     1       0.862   2.972  14.324  1.00  0.00     0.006 A 
HETATM    8  C16 UNL     1       1.691   4.172  14.387  1.00  0.00     0.093 A 
HETATM    9  O1  UNL     1       1.581   5.474  14.562  1.00  0.00    -0.321 OA
HETATM   10  C17 UNL     1       2.741   6.045  14.523  1.00  0.00     0.143 A 
HETATM   11  C18 UNL     1       3.713   5.093  14.308  1.00  0.00     0.035 A 
HETATM   12  C19 UNL     1       3.017   3.870  14.218  1.00  0.00    -0.009 A 
ENDROOT
BRANCH   1  13
HETATM   13  C8  UNL     1       3.627   1.953  12.683  1.00  0.00    -0.017 C 
HETATM   14  C7  UNL     1       4.992   1.656  12.304  1.00  0.00    -0.029 C 
BRANCH  14  15
HETATM   15  C6  UNL     1       6.080   2.669  12.387  1.00  0.00     0.031 C 
BRANCH  15  16
HETATM   16  C5  UNL     1       5.804   3.873  11.489  1.00  0.00     0.042 C 
BRANCH  16  17
HETATM   17  C4  UNL     1       6.752   4.985  11.668  1.00  0.00    -0.058 A 
HETATM   18  C3  UNL     1       6.334   6.280  11.977  1.00  0.00     0.007 A 
HETATM   19  C2  UNL     1       7.243   7.302  12.160  1.00  0.00     0.001 A 
HETATM   20  C1  UNL     1       8.592   7.083  12.046  1.00  0.00     0.000 A 
HETATM   21  C21 UNL     1       9.024   5.811  11.743  1.00  0.00     0.001 A 
HETATM   22  C20 UNL     1       8.114   4.805  11.563  1.00  0.00     0.007 A 
ENDBRANCH  16  17
ENDBRANCH  15  16
ENDBRANCH  14  15
ENDBRANCH   1  13
TORSDOF 4
ENDMDL
MODEL 3
REMARK VINA RESULT: -11.305227962      1.323      6.983
REMARK  4 active torsions:
REMARK  status: ('A' for Active; 'I' for Inactive)
REMARK    1  A    between atoms: C4_4  and  C5_5 
REMARK    2  A    between atoms: C5_5  and  C6_6 
REMARK    3  A    between atoms: C6_6  and  C7_7 
REMARK    4  A    between atoms: C8_8  and  C9_9 
ROOT
HETATM    1  C9  UNL     1       5.086   4.104  11.740  1.00  0.00     0.077 A 
HETATM    2  C10 UNL     1       6.398   4.888  11.719  1.00  0.00    -0.033 A 
HETATM    3  C11 UNL     1       7.675   4.468  11.321  1.00  0.00     0.009 A 
HETATM    4  C12 UNL     1       8.764   5.316  11.385  1.00  0.00     0.001 A 
HETATM    5  C13 UNL     1       8.589   6.619  11.858  1.00  0.00     0.001 A 
HETATM    6  C14 UNL     1       7.327   7.009  12.243  1.00  0.00     0.015 A 
HETATM    7  C15 UNL     1       6.240   6.136  12.170  1.00  0.00     0.006 A 
HETATM    8  C16 UNL     1       4.822   6.280  12.487  1.00  0.00     0.093 A 
HETATM    9  O1  UNL     1       3.969   7.177  12.941  1.00  0.00    -0.321 OA
HETATM   10  C17 UNL     1       2.772   6.688  12.998  1.00  0.00     0.143 A 
HETATM   11  C18 UNL     1       2.789   5.382  12.562  1.00  0.00     0.035 A 
HETATM   12  C19 UNL     1       4.135   5.122  12.232  1.00  0.00    -0.009 A 
ENDROOT
BRANCH   1  13
HETATM   13  C8  UNL     1       5.324   2.916  12.586  1.00  0.00    -0.017 C 
HETATM   14  C7  UNL     1       4.797   1.583  12.388  1.00  0.00    -0.029 C 
BRANCH  14  15
HETATM   15  C6  UNL     1       3.336   1.304  12.340  1.00  0.00     0.031 C 
BRANCH  15  16
HETATM   16  C5  UNL     1       2.850   0.599  13.605  1.00  0.00     0.042 C 
BRANCH  16  17
HETATM   17  C4  UNL     1       1.569   1.108  14.121  1.00  0.00    -0.058 A 
HETATM   18  C3  UNL     1       1.494   2.201  14.986  1.00  0.00     0.007 A 
HETATM   19  C2  UNL     1       0.279   2.672  15.441  1.00  0.00     0.001 A 
HETATM   20  C1  UNL     1      -0.900   2.085  15.060  1.00  0.00     0.000 A 
HETATM   21  C21 UNL     1      -0.846   1.005  14.206  1.00  0.00     0.001 A 
HETATM   22  C20 UNL     1       0.363   0.546  13.762  1.00  0.00     0.007 A 
ENDBRANCH  16  17
ENDBRANCH  15  16
ENDBRANCH  14  15
ENDBRANCH   1  13
TORSDOF 4
ENDMDL
MODEL 4
REMARK VINA RESULT: -11.296384617      1.314      6.803
REMARK  4 active torsions:
REMARK  status: ('A' for Active; 'I' for Inactive)
REMARK    1  A    between atoms: C4_4  and  C5_5 
REMARK    2  A    between atoms: C5_5  and  C6_6 
REMARK    3  A    between atoms: C6_6  and  C7_7 
REMARK    4  A    between atoms: C8_8  and  C9_9 
ROOT
HETATM    1  C9  UNL     1       4.523   4.140  12.121  1.00  0.00     0.077 A 
HETATM    2  C10 UNL     1       5.890   4.744  11.806  1.00  0.00    -0.033 A 
HETATM    3  C11 UNL     1       6.983   4.168  11.145  1.00  0.00     0.009 A 
HETATM    4  C12 UNL     1       8.162   4.864  10.960  1.00  0.00     0.001 A 
HETATM    5  C13 UNL     1       8.268   6.171  11.444  1.00  0.00     0.001 A 
HETATM    6  C14 UNL     1       7.183   6.716  12.089  1.00  0.00     0.015 A 
HETATM    7  C15 UNL     1       6.000   5.995  12.266  1.00  0.00     0.006 A 
HETATM    8  C16 UNL     1       4.716   6.319  12.882  1.00  0.00     0.093 A 
HETATM    9  O1  UNL     1       4.109   7.312  13.500  1.00  0.00    -0.321 OA
HETATM   10  C17 UNL     1       2.899   6.985  13.822  1.00  0.00     0.143 A 
HETATM   11  C18 UNL     1       2.648   5.695  13.408  1.00  0.00     0.035 A 
HETATM   12  C19 UNL     1       3.843   5.265  12.796  1.00  0.00    -0.009 A 
ENDROOT
BRANCH   1  13
HETATM   13  C8  UNL     1       4.780   2.917  12.910  1.00  0.00    -0.017 C 
HETATM   14  C7  UNL     1       4.448   1.556  12.545  1.00  0.00    -0.029 C 
BRANCH  14  15
HETATM   15  C6  UNL     1       3.051   1.127  12.261  1.00  0.00     0.031 C 
BRANCH  15  16
HETATM   16  C5  UNL     1       2.434   0.385  13.446  1.00  0.00     0.042 C 
BRANCH  16  17
HETATM   17  C4  UNL     1       1.335   1.111  14.101  1.00  0.00    -0.058 A 
HETATM   18  C3  UNL     1      -0.003   0.744  13.942  1.00  0.00     0.007 A 
HETATM   19  C2  UNL     1      -1.015   1.428  14.583  1.00  0.00     0.001 A 
HETATM   20  C1  UNL     1      -0.745   2.495  15.402  1.00  0.00     0.000 A 
HETATM   21  C21 UNL     1       0.569   2.872  15.573  1.00  0.00     0.001 A 
HETATM   22  C20 UNL     1       1.564   2.186  14.932  1.00  0.00     0.007 A 
ENDBRANCH  16  17
ENDBRANCH  15  16
ENDBRANCH  14  15
ENDBRANCH   1  13
TORSDOF 4
ENDMDL
MODEL 5
REMARK VINA RESULT: -11.004130428      1.856      7.208
REMARK  4 active torsions:
REMARK  status: ('A' for Active; 'I' for Inactive)
REMARK    1  A    between atoms: C4_4  and  C5_5 
REMARK    2  A    between atoms: C5_5  and  C6_6 
REMARK    3  A    between atoms: C6_6  and  C7_7 
REMARK    4  A    between atoms: C8_8  and  C9_9 
ROOT
HETATM    1  C9  UNL     1       4.586   5.081  11.846  1.00  0.00     0.077 A 
HETATM    2  C10 UNL     1       6.084   5.272  11.617  1.00  0.00    -0.033 A 
HETATM    3  C11 UNL     1       7.102   4.311  11.566  1.00  0.00     0.009 A 
HETATM    4  C12 UNL     1       8.422   4.668  11.364  1.00  0.00     0.001 A 
HETATM    5  C13 UNL     1       8.747   6.018  11.206  1.00  0.00     0.001 A 
HETATM    6  C14 UNL     1       7.732   6.944  11.258  1.00  0.00     0.015 A 
HETATM    7  C15 UNL     1       6.405   6.561  11.465  1.00  0.00     0.006 A 
HETATM    8  C16 UNL     1       5.152   7.307  11.548  1.00  0.00     0.093 A 
HETATM    9  O1  UNL     1       4.702   8.544  11.483  1.00  0.00    -0.321 OA
HETATM   10  C17 UNL     1       3.416   8.575  11.628  1.00  0.00     0.143 A 
HETATM   11  C18 UNL     1       2.944   7.293  11.805  1.00  0.00     0.035 A 
HETATM   12  C19 UNL     1       4.087   6.469  11.753  1.00  0.00    -0.009 A 
ENDROOT
BRANCH   1  13
HETATM   13  C8  UNL     1       4.448   4.385  13.142  1.00  0.00    -0.017 C 
HETATM   14  C7  UNL     1       4.457   2.955  13.370  1.00  0.00    -0.029 C 
BRANCH  14  15
HETATM   15  C6  UNL     1       3.471   2.042  12.730  1.00  0.00     0.031 C 
BRANCH  15  16
HETATM   16  C5  UNL     1       2.893   1.041  13.729  1.00  0.00     0.042 C 
BRANCH  16  17
HETATM   17  C4  UNL     1       1.493   1.306  14.100  1.00  0.00    -0.058 A 
HETATM   18  C3  UNL     1       0.442   0.485  13.686  1.00  0.00     0.007 A 
HETATM   19  C2  UNL     1      -0.859   0.743  14.063  1.00  0.00     0.001 A 
HETATM   20  C1  UNL     1      -1.171   1.814  14.861  1.00  0.00     0.000 A 
HETATM   21  C21 UNL     1      -0.147   2.634  15.281  1.00  0.00     0.001 A 
HETATM   22  C20 UNL     1       1.140   2.370  14.900  1.00  0.00     0.007 A 
ENDBRANCH  16  17
ENDBRANCH  15  16
ENDBRANCH  14  15
ENDBRANCH   1  13
TORSDOF 4
ENDMDL
