MODEL 1
REMARK VINA RESULT: -10.722906498      0.000      0.000
REMARK  5 active torsions:
REMARK  status: ('A' for Active; 'I' for Inactive)
REMARK    1  A    between atoms: C4_4  and  C5_5 
REMARK    2  A    between atoms: C5_5  and  C6_6 
REMARK    3  A    between atoms: C6_6  and  S1_7 
REMARK    4  A    between atoms: S1_7  and  C7_8 
REMARK    5  A    between atoms: C10_11  and  C11_12 
ROOT
HETATM    1  C7  UNL     1       2.295   5.853  13.889  1.00  0.00     0.000 A 
HETATM    2  C8  UNL     1       1.237   5.651  13.012  1.00  0.00     0.019 A 
HETATM    3  C9  UNL     1       0.188   6.545  12.956  1.00  0.00     0.013 A 
HETATM    4  C10 UNL     1       0.158   7.674  13.775  1.00  0.00    -0.026 A 
HETATM    5  C17 UNL     1       1.228   7.835  14.631  1.00  0.00     0.013 A 
HETATM    6  C18 UNL     1       2.286   6.963  14.710  1.00  0.00     0.019 A 
ENDROOT
BRANCH   1   7
HETATM    7  S1  UNL     1       3.662   4.732  13.996  1.00  0.00    -0.130 SA
BRANCH   7   8
HETATM    8  C6  UNL     1       3.236   3.054  13.484  1.00  0.00     0.084 C 
BRANCH   8   9
HETATM    9  C5  UNL     1       2.847   2.206  14.703  1.00  0.00     0.049 C 
BRANCH   9  10
HETATM   10  C4  UNL     1       1.375   1.953  14.659  1.00  0.00    -0.057 A 
HETATM   11  C3  UNL     1       0.835   0.884  13.978  1.00  0.00     0.007 A 
HETATM   12  C2  UNL     1      -0.519   0.632  13.923  1.00  0.00     0.001 A 
HETATM   13  C1  UNL     1      -1.366   1.496  14.584  1.00  0.00     0.000 A 
HETATM   14  C20 UNL     1      -0.866   2.574  15.275  1.00  0.00     0.001 A 
HETATM   15  C19 UNL     1       0.493   2.807  15.316  1.00  0.00     0.007 A 
ENDBRANCH   9  10
ENDBRANCH   8   9
ENDBRANCH   7   8
ENDBRANCH   1   7
BRANCH   4  16
HETATM   16  C11 UNL     1      -0.958   8.619  13.714  1.00  0.00    -0.026 A 
HETATM   17  C12 UNL     1      -1.340   9.265  12.557  1.00  0.00     0.012 A 
HETATM   18  C13 UNL     1      -2.383  10.149  12.496  1.00  0.00     0.001 A 
HETATM   19  C14 UNL     1      -3.090  10.407  13.654  1.00  0.00     0.000 A 
HETATM   20  C15 UNL     1      -2.755   9.788  14.844  1.00  0.00     0.001 A 
HETATM   21  C16 UNL     1      -1.696   8.905  14.853  1.00  0.00     0.012 A 
ENDBRANCH   4  16
TORSDOF 5
ENDMDL
MODEL 2
REMARK VINA RESULT: -10.712898092      0.046      1.038
REMARK  5 active torsions:
REMARK  status: ('A' for Active; 'I' for Inactive)
REMARK    1  A    between atoms: C4_4  and  C5_5 
REMARK    2  A    between atoms: C5_5  and  C6_6 
REMARK    3  A    between atoms: C6_6  and  S1_7 
REMARK    4  A    between atoms: S1_7  and  C7_8 
REMARK    5  A    between atoms: C10_11  and  C11_12 
ROOT
HETATM    1  C7  UNL     1       2.297   5.870  13.919  1.00  0.00     0.000 A 
HETATM    2  C8  UNL     1       1.255   5.683  13.019  1.00  0.00     0.019 A 
HETATM    3  C9  UNL     1       0.202   6.572  12.968  1.00  0.00     0.013 A 
HETATM    4  C10 UNL     1       0.150   7.681  13.814  1.00  0.00    -0.026 A 
HETATM    5  C17 UNL     1       1.204   7.827  14.692  1.00  0.00     0.013 A 
HETATM    6  C18 UNL     1       2.267   6.959  14.767  1.00  0.00     0.019 A 
ENDROOT
BRANCH   1   7
HETATM    7  S1  UNL     1       3.669   4.756  14.022  1.00  0.00    -0.130 SA
BRANCH   7   8
HETATM    8  C6  UNL     1       3.247   3.074  13.517  1.00  0.00     0.084 C 
BRANCH   8   9
HETATM    9  C5  UNL     1       2.848   2.233  14.737  1.00  0.00     0.049 C 
BRANCH   9  10
HETATM   10  C4  UNL     1       1.381   1.962  14.671  1.00  0.00    -0.057 A 
HETATM   11  C3  UNL     1       0.866   0.874  13.999  1.00  0.00     0.007 A 
HETATM   12  C2  UNL     1      -0.483   0.604  13.924  1.00  0.00     0.001 A 
HETATM   13  C1  UNL     1      -1.353   1.469  14.553  1.00  0.00     0.000 A 
HETATM   14  C20 UNL     1      -0.879   2.565  15.234  1.00  0.00     0.001 A 
HETATM   15  C19 UNL     1       0.476   2.816  15.296  1.00  0.00     0.007 A 
ENDBRANCH   9  10
ENDBRANCH   8   9
ENDBRANCH   7   8
ENDBRANCH   1   7
BRANCH   4  16
HETATM   16  C11 UNL     1      -0.971   8.620  13.757  1.00  0.00    -0.026 A 
HETATM   17  C12 UNL     1      -1.740   8.948  14.854  1.00  0.00     0.012 A 
HETATM   18  C13 UNL     1      -2.789   9.825  14.805  1.00  0.00     0.001 A 
HETATM   19  C14 UNL     1      -3.093  10.413  13.592  1.00  0.00     0.000 A 
HETATM   20  C15 UNL     1      -2.358  10.124  12.458  1.00  0.00     0.001 A 
HETATM   21  C16 UNL     1      -1.310   9.233  12.561  1.00  0.00     0.012 A 
ENDBRANCH   4  16
TORSDOF 5
ENDMDL
MODEL 3
REMARK VINA RESULT: -10.694859550      1.135      2.376
REMARK  5 active torsions:
REMARK  status: ('A' for Active; 'I' for Inactive)
REMARK    1  A    between atoms: C4_4  and  C5_5 
REMARK    2  A    between atoms: C5_5  and  C6_6 
REMARK    3  A    between atoms: C6_6  and  S1_7 
REMARK    4  A    between atoms: S1_7  and  C7_8 
REMARK    5  A    between atoms: C10_11  and  C11_12 
ROOT
HETATM    1  C7  UNL     1       0.950   7.372  14.121  1.00  0.00     0.000 A 
HETATM    2  C8  UNL     1       0.143   7.757  15.184  1.00  0.00     0.019 A 
HETATM    3  C9  UNL     1      -0.969   8.547  14.973  1.00  0.00     0.013 A 
HETATM    4  C10 UNL     1      -1.314   8.980  13.692  1.00  0.00    -0.026 A 
HETATM    5  C17 UNL     1      -0.484   8.575  12.667  1.00  0.00     0.013 A 
HETATM    6  C18 UNL     1       0.629   7.790  12.845  1.00  0.00     0.019 A 
ENDROOT
BRANCH   1   7
HETATM    7  S1  UNL     1       2.387   6.360  14.344  1.00  0.00    -0.130 SA
BRANCH   7   8
HETATM    8  C6  UNL     1       2.035   4.596  14.184  1.00  0.00     0.084 C 
BRANCH   8   9
HETATM    9  C5  UNL     1       0.837   4.208  15.062  1.00  0.00     0.049 C 
BRANCH   9  10
HETATM   10  C4  UNL     1       0.372   2.847  14.660  1.00  0.00    -0.057 A 
HETATM   11  C3  UNL     1       1.252   1.833  14.350  1.00  0.00     0.007 A 
HETATM   12  C2  UNL     1       0.846   0.571  13.975  1.00  0.00     0.001 A 
HETATM   13  C1  UNL     1      -0.507   0.318  13.910  1.00  0.00     0.000 A 
HETATM   14  C20 UNL     1      -1.417   1.302  14.212  1.00  0.00     0.001 A 
HETATM   15  C19 UNL     1      -0.989   2.559  14.584  1.00  0.00     0.007 A 
ENDBRANCH   9  10
ENDBRANCH   8   9
ENDBRANCH   7   8
ENDBRANCH   1   7
BRANCH   4  16
HETATM   16  C11 UNL     1      -2.493   9.819  13.474  1.00  0.00    -0.026 A 
HETATM   17  C12 UNL     1      -3.393  10.134  14.470  1.00  0.00     0.012 A 
HETATM   18  C13 UNL     1      -4.497  10.917  14.270  1.00  0.00     0.001 A 
HETATM   19  C14 UNL     1      -4.721  11.421  13.003  1.00  0.00     0.000 A 
HETATM   20  C15 UNL     1      -3.852  11.141  11.964  1.00  0.00     0.001 A 
HETATM   21  C16 UNL     1      -2.754  10.346  12.218  1.00  0.00     0.012 A 
ENDBRANCH   4  16
TORSDOF 5
ENDMDL
MODEL 4
REMARK VINA RESULT: -10.670122458      0.103      1.469
REMARK  5 active torsions:
REMARK  status: ('A' for Active; 'I' for Inactive)
REMARK    1  A    between atoms: C4_4  and  C5_5 
REMARK    2  A    between atoms: C5_5  and  C6_6 
REMARK    3  A    between atoms: C6_6  and  S1_7 
REMARK    4  A    between atoms: S1_7  and  C7_8 
REMARK    5  A    between atoms: C10_11  and  C11_12 
ROOT
HETATM    1  C7  UNL     1       2.354   5.864  14.005  1.00  0.00     0.000 A 
HETATM    2  C8  UNL     1       2.294   6.979  14.830  1.00  0.00     0.019 A 
HETATM    3  C9  UNL     1       1.232   7.856  14.753  1.00  0.00     0.013 A 
HETATM    4  C10 UNL     1       0.190   7.650  13.848  1.00  0.00    -0.026 A 
HETATM    5  C17 UNL     1       0.291   6.531  13.047  1.00  0.00     0.013 A 
HETATM    6  C18 UNL     1       1.336   5.640  13.100  1.00  0.00     0.019 A 
ENDROOT
BRANCH   1   7
HETATM    7  S1  UNL     1       3.698   4.712  14.068  1.00  0.00    -0.130 SA
BRANCH   7   8
HETATM    8  C6  UNL     1       3.226   3.053  13.533  1.00  0.00     0.084 C 
BRANCH   8   9
HETATM    9  C5  UNL     1       2.816   2.198  14.740  1.00  0.00     0.049 C 
BRANCH   9  10
HETATM   10  C4  UNL     1       1.351   1.918  14.651  1.00  0.00    -0.057 A 
HETATM   11  C3  UNL     1       0.856   0.808  14.001  1.00  0.00     0.007 A 
HETATM   12  C2  UNL     1      -0.490   0.529  13.905  1.00  0.00     0.001 A 
HETATM   13  C1  UNL     1      -1.377   1.408  14.489  1.00  0.00     0.000 A 
HETATM   14  C20 UNL     1      -0.923   2.526  15.146  1.00  0.00     0.001 A 
HETATM   15  C19 UNL     1       0.429   2.786  15.230  1.00  0.00     0.007 A 
ENDBRANCH   9  10
ENDBRANCH   8   9
ENDBRANCH   7   8
ENDBRANCH   1   7
BRANCH   4  16
HETATM   16  C11 UNL     1      -0.934   8.584  13.768  1.00  0.00    -0.026 A 
HETATM   17  C12 UNL     1      -1.721   8.915  14.850  1.00  0.00     0.012 A 
HETATM   18  C13 UNL     1      -2.773   9.787  14.780  1.00  0.00     0.001 A 
HETATM   19  C14 UNL     1      -3.061  10.367  13.560  1.00  0.00     0.000 A 
HETATM   20  C15 UNL     1      -2.306  10.075  12.439  1.00  0.00     0.001 A 
HETATM   21  C16 UNL     1      -1.256   9.189  12.563  1.00  0.00     0.012 A 
ENDBRANCH   4  16
TORSDOF 5
ENDMDL
MODEL 5
REMARK VINA RESULT: -10.647711109      1.084      1.796
REMARK  5 active torsions:
REMARK  status: ('A' for Active; 'I' for Inactive)
REMARK    1  A    between atoms: C4_4  and  C5_5 
REMARK    2  A    between atoms: C5_5  and  C6_6 
REMARK    3  A    between atoms: C6_6  and  S1_7 
REMARK    4  A    between atoms: S1_7  and  C7_8 
REMARK    5  A    between atoms: C10_11  and  C11_12 
ROOT
HETATM    1  C7  UNL     1       1.282   7.114  14.070  1.00  0.00     0.000 A 
HETATM    2  C8  UNL     1       0.984   7.737  12.866  1.00  0.00     0.019 A 
HETATM    3  C9  UNL     1      -0.132   8.540  12.746  1.00  0.00     0.013 A 
HETATM    4  C10 UNL     1      -0.990   8.750  13.826  1.00  0.00    -0.026 A 
HETATM    5  C17 UNL     1      -0.656   8.110  15.002  1.00  0.00     0.013 A 
HETATM    6  C18 UNL     1       0.447   7.305  15.152  1.00  0.00     0.019 A 
ENDROOT
BRANCH   1   7
HETATM    7  S1  UNL     1       2.702   6.074  14.270  1.00  0.00    -0.130 SA
BRANCH   7   8
HETATM    8  C6  UNL     1       2.525   4.478  13.444  1.00  0.00     0.084 C 
BRANCH   8   9
HETATM    9  C5  UNL     1       2.594   3.335  14.467  1.00  0.00     0.049 C 
BRANCH   9  10
HETATM   10  C4  UNL     1       1.322   2.555  14.398  1.00  0.00    -0.057 A 
HETATM   11  C3  UNL     1       1.295   1.228  14.025  1.00  0.00     0.007 A 
HETATM   12  C2  UNL     1       0.135   0.489  13.953  1.00  0.00     0.001 A 
HETATM   13  C1  UNL     1      -1.052   1.114  14.271  1.00  0.00     0.000 A 
HETATM   14  C20 UNL     1      -1.068   2.435  14.648  1.00  0.00     0.001 A 
HETATM   15  C19 UNL     1       0.106   3.156  14.713  1.00  0.00     0.007 A 
ENDBRANCH   9  10
ENDBRANCH   8   9
ENDBRANCH   7   8
ENDBRANCH   1   7
BRANCH   4  16
HETATM   16  C11 UNL     1      -2.173   9.601  13.694  1.00  0.00    -0.026 A 
HETATM   17  C12 UNL     1      -2.931  10.015  14.769  1.00  0.00     0.012 A 
HETATM   18  C13 UNL     1      -4.038  10.811  14.649  1.00  0.00     0.001 A 
HETATM   19  C14 UNL     1      -4.415  11.221  13.385  1.00  0.00     0.000 A 
HETATM   20  C15 UNL     1      -3.694  10.839  12.270  1.00  0.00     0.001 A 
HETATM   21  C16 UNL     1      -2.586  10.036  12.444  1.00  0.00     0.012 A 
ENDBRANCH   4  16
TORSDOF 5
ENDMDL
