MODEL 1
REMARK VINA RESULT: -10.574134746      0.000      0.000
REMARK  5 active torsions:
REMARK  status: ('A' for Active; 'I' for Inactive)
REMARK    1  A    between atoms: C2_2  and  C3_3 
REMARK    2  A    between atoms: C3_3  and  C4_4 
REMARK    3  A    between atoms: C3_3  and  C11_11 
REMARK    4  A    between atoms: C4_4  and  C5_5 
REMARK    5  A    between atoms: C15_15  and  C16_16 
ROOT
HETATM    1  C11 UNL     1       4.200   3.977  13.245  1.00  0.00    -0.050 A 
HETATM    2  C12 UNL     1       4.695   2.717  12.969  1.00  0.00     0.008 A 
HETATM    3  C13 UNL     1       5.917   2.521  12.359  1.00  0.00     0.002 A 
HETATM    4  C14 UNL     1       6.679   3.609  12.011  1.00  0.00     0.014 A 
HETATM    5  C15 UNL     1       6.228   4.914  12.267  1.00  0.00    -0.009 A 
HETATM    6  C21 UNL     1       5.006   5.040  12.874  1.00  0.00     0.021 A 
ENDROOT
BRANCH   1   7
HETATM    7  C3  UNL     1       2.886   4.172  13.907  1.00  0.00     0.041 C 
BRANCH   7   8
HETATM    8  C2  UNL     1       1.843   4.676  12.944  1.00  0.00     0.009 C 
HETATM    9  C1  UNL     1       1.135   5.910  13.471  1.00  0.00     0.006 C 
ENDBRANCH   7   8
BRANCH   7  10
HETATM   10  C4  UNL     1       2.451   3.105  14.814  1.00  0.00    -0.006 C 
BRANCH  10  11
HETATM   11  C5  UNL     1       1.276   2.318  14.598  1.00  0.00    -0.039 A 
HETATM   12  C6  UNL     1       1.412   1.127  13.902  1.00  0.00     0.011 A 
HETATM   13  C7  UNL     1       0.336   0.305  13.648  1.00  0.00     0.001 A 
HETATM   14  C8  UNL     1      -0.929   0.642  14.080  1.00  0.00     0.000 A 
HETATM   15  C9  UNL     1      -1.051   1.822  14.767  1.00  0.00     0.001 A 
HETATM   16  C10 UNL     1       0.008   2.649  15.027  1.00  0.00     0.011 A 
ENDBRANCH  10  11
ENDBRANCH   7  10
ENDBRANCH   1   7
BRANCH   5  17
HETATM   17  C16 UNL     1       7.072   6.045  11.878  1.00  0.00     0.042 A 
HETATM   18  C17 UNL     1       8.204   5.895  11.126  1.00  0.00     0.030 A 
HETATM   19  C18 UNL     1       9.004   6.972  10.759  1.00  0.00     0.004 A 
HETATM   20  C19 UNL     1       8.644   8.235  11.165  1.00  0.00     0.017 A 
HETATM   21  C20 UNL     1       7.498   8.369  11.924  1.00  0.00     0.088 A 
HETATM   22  N1  UNL     1       6.749   7.302  12.260  1.00  0.00    -0.365 N 
ATOM     23  H1  UNL     1       5.909   7.446  12.822  1.00  0.00     0.165 HD
ENDBRANCH   5  17
TORSDOF 5
ENDMDL
MODEL 2
REMARK VINA RESULT: -10.555579553      0.096      1.005
REMARK  5 active torsions:
REMARK  status: ('A' for Active; 'I' for Inactive)
REMARK    1  A    between atoms: C2_2  and  C3_3 
REMARK    2  A    between atoms: C3_3  and  C4_4 
REMARK    3  A    between atoms: C3_3  and  C11_11 
REMARK    4  A    between atoms: C4_4  and  C5_5 
REMARK    5  A    between atoms: C15_15  and  C16_16 
ROOT
HETATM    1  C11 UNL     1       4.233   3.997  13.192  1.00  0.00    -0.050 A 
HETATM    2  C12 UNL     1       4.732   2.736  12.929  1.00  0.00     0.008 A 
HETATM    3  C13 UNL     1       5.965   2.539  12.341  1.00  0.00     0.002 A 
HETATM    4  C14 UNL     1       6.733   3.626  12.002  1.00  0.00     0.014 A 
HETATM    5  C15 UNL     1       6.277   4.932  12.246  1.00  0.00    -0.009 A 
HETATM    6  C21 UNL     1       5.044   5.058  12.832  1.00  0.00     0.021 A 
ENDROOT
BRANCH   1   7
HETATM    7  C3  UNL     1       2.907   4.193  13.831  1.00  0.00     0.041 C 
BRANCH   7   8
HETATM    8  C2  UNL     1       1.871   4.658  12.841  1.00  0.00     0.009 C 
HETATM    9  C1  UNL     1       1.105   5.864  13.349  1.00  0.00     0.006 C 
ENDBRANCH   7   8
BRANCH   7  10
HETATM   10  C4  UNL     1       2.472   3.145  14.760  1.00  0.00    -0.006 C 
BRANCH  10  11
HETATM   11  C5  UNL     1       1.349   2.294  14.517  1.00  0.00    -0.039 A 
HETATM   12  C6  UNL     1       0.122   2.672  15.040  1.00  0.00     0.011 A 
HETATM   13  C7  UNL     1      -1.013   1.914  14.856  1.00  0.00     0.001 A 
HETATM   14  C8  UNL     1      -0.969   0.736  14.139  1.00  0.00     0.000 A 
HETATM   15  C9  UNL     1       0.250   0.372  13.628  1.00  0.00     0.001 A 
HETATM   16  C10 UNL     1       1.386   1.115  13.801  1.00  0.00     0.011 A 
ENDBRANCH  10  11
ENDBRANCH   7  10
ENDBRANCH   1   7
BRANCH   5  17
HETATM   17  C16 UNL     1       7.126   6.062  11.869  1.00  0.00     0.042 A 
HETATM   18  C17 UNL     1       8.212   5.926  11.047  1.00  0.00     0.030 A 
HETATM   19  C18 UNL     1       9.017   7.002  10.691  1.00  0.00     0.004 A 
HETATM   20  C19 UNL     1       8.712   8.250  11.181  1.00  0.00     0.017 A 
HETATM   21  C20 UNL     1       7.614   8.370  12.009  1.00  0.00     0.088 A 
HETATM   22  N1  UNL     1       6.857   7.304  12.332  1.00  0.00    -0.365 N 
ATOM     23  H1  UNL     1       6.054   7.437  12.946  1.00  0.00     0.165 HD
ENDBRANCH   5  17
TORSDOF 5
ENDMDL
MODEL 3
REMARK VINA RESULT: -10.468995324      2.691      5.420
REMARK  5 active torsions:
REMARK  status: ('A' for Active; 'I' for Inactive)
REMARK    1  A    between atoms: C2_2  and  C3_3 
REMARK    2  A    between atoms: C3_3  and  C4_4 
REMARK    3  A    between atoms: C3_3  and  C11_11 
REMARK    4  A    between atoms: C4_4  and  C5_5 
REMARK    5  A    between atoms: C15_15  and  C16_16 
ROOT
HETATM    1  C11 UNL     1       3.296   5.138  13.526  1.00  0.00    -0.050 A 
HETATM    2  C12 UNL     1       4.421   5.927  13.384  1.00  0.00     0.008 A 
HETATM    3  C13 UNL     1       4.359   7.306  13.369  1.00  0.00     0.002 A 
HETATM    4  C14 UNL     1       3.141   7.927  13.501  1.00  0.00     0.014 A 
HETATM    5  C15 UNL     1       1.964   7.177  13.649  1.00  0.00    -0.009 A 
HETATM    6  C21 UNL     1       2.095   5.812  13.655  1.00  0.00     0.021 A 
ENDROOT
BRANCH   1   7
HETATM    7  C3  UNL     1       3.380   3.656  13.547  1.00  0.00     0.041 C 
BRANCH   7   8
HETATM    8  C2  UNL     1       4.767   3.169  13.219  1.00  0.00     0.009 C 
HETATM    9  C1  UNL     1       4.739   1.904  12.382  1.00  0.00     0.006 C 
ENDBRANCH   7   8
BRANCH   7  10
HETATM   10  C4  UNL     1       2.721   2.984  14.671  1.00  0.00    -0.006 C 
BRANCH  10  11
HETATM   11  C5  UNL     1       1.449   2.338  14.567  1.00  0.00    -0.039 A 
HETATM   12  C6  UNL     1       1.397   1.104  13.937  1.00  0.00     0.011 A 
HETATM   13  C7  UNL     1       0.217   0.410  13.792  1.00  0.00     0.001 A 
HETATM   14  C8  UNL     1      -0.970   0.923  14.271  1.00  0.00     0.000 A 
HETATM   15  C9  UNL     1      -0.907   2.144  14.892  1.00  0.00     0.001 A 
HETATM   16  C10 UNL     1       0.258   2.845  15.044  1.00  0.00     0.011 A 
ENDBRANCH  10  11
ENDBRANCH   7  10
ENDBRANCH   1   7
BRANCH   5  17
HETATM   17  C16 UNL     1       0.687   7.879  13.786  1.00  0.00     0.042 A 
HETATM   18  C17 UNL     1       0.035   7.997  14.983  1.00  0.00     0.030 A 
HETATM   19  C18 UNL     1      -1.178   8.664  15.109  1.00  0.00     0.004 A 
HETATM   20  C19 UNL     1      -1.744   9.229  13.990  1.00  0.00     0.017 A 
HETATM   21  C20 UNL     1      -1.073   9.101  12.790  1.00  0.00     0.088 A 
HETATM   22  N1  UNL     1       0.100   8.447  12.708  1.00  0.00    -0.365 N 
ATOM     23  H1  UNL     1       0.562   8.376  11.801  1.00  0.00     0.165 HD
ENDBRANCH   5  17
TORSDOF 5
ENDMDL
MODEL 4
REMARK VINA RESULT: -10.454758997      2.697      5.514
REMARK  5 active torsions:
REMARK  status: ('A' for Active; 'I' for Inactive)
REMARK    1  A    between atoms: C2_2  and  C3_3 
REMARK    2  A    between atoms: C3_3  and  C4_4 
REMARK    3  A    between atoms: C3_3  and  C11_11 
REMARK    4  A    between atoms: C4_4  and  C5_5 
REMARK    5  A    between atoms: C15_15  and  C16_16 
ROOT
HETATM    1  C11 UNL     1       3.272   5.131  13.497  1.00  0.00    -0.050 A 
HETATM    2  C12 UNL     1       4.399   5.918  13.360  1.00  0.00     0.008 A 
HETATM    3  C13 UNL     1       4.339   7.297  13.347  1.00  0.00     0.002 A 
HETATM    4  C14 UNL     1       3.123   7.921  13.477  1.00  0.00     0.014 A 
HETATM    5  C15 UNL     1       1.943   7.173  13.620  1.00  0.00    -0.009 A 
HETATM    6  C21 UNL     1       2.072   5.808  13.624  1.00  0.00     0.021 A 
ENDROOT
BRANCH   1   7
HETATM    7  C3  UNL     1       3.352   3.649  13.515  1.00  0.00     0.041 C 
BRANCH   7   8
HETATM    8  C2  UNL     1       4.742   3.159  13.201  1.00  0.00     0.009 C 
HETATM    9  C1  UNL     1       4.720   1.887  12.376  1.00  0.00     0.006 C 
ENDBRANCH   7   8
BRANCH   7  10
HETATM   10  C4  UNL     1       2.680   2.976  14.631  1.00  0.00    -0.006 C 
BRANCH  10  11
HETATM   11  C5  UNL     1       1.440   2.274  14.496  1.00  0.00    -0.039 A 
HETATM   12  C6  UNL     1       0.297   2.875  14.998  1.00  0.00     0.011 A 
HETATM   13  C7  UNL     1      -0.939   2.273  14.913  1.00  0.00     0.001 A 
HETATM   14  C8  UNL     1      -1.085   1.036  14.320  1.00  0.00     0.000 A 
HETATM   15  C9  UNL     1       0.053   0.452  13.828  1.00  0.00     0.001 A 
HETATM   16  C10 UNL     1       1.287   1.038  13.905  1.00  0.00     0.011 A 
ENDBRANCH  10  11
ENDBRANCH   7  10
ENDBRANCH   1   7
BRANCH   5  17
HETATM   17  C16 UNL     1       0.668   7.878  13.755  1.00  0.00     0.042 A 
HETATM   18  C17 UNL     1       0.003   7.977  14.946  1.00  0.00     0.030 A 
HETATM   19  C18 UNL     1      -1.208   8.647  15.070  1.00  0.00     0.004 A 
HETATM   20  C19 UNL     1      -1.760   9.234  13.956  1.00  0.00     0.017 A 
HETATM   21  C20 UNL     1      -1.076   9.124  12.761  1.00  0.00     0.088 A 
HETATM   22  N1  UNL     1       0.096   8.466  12.680  1.00  0.00    -0.365 N 
ATOM     23  H1  UNL     1       0.568   8.410  11.777  1.00  0.00     0.165 HD
ENDBRANCH   5  17
TORSDOF 5
ENDMDL
MODEL 5
REMARK VINA RESULT: -10.339138549      3.028      5.851
REMARK  5 active torsions:
REMARK  status: ('A' for Active; 'I' for Inactive)
REMARK    1  A    between atoms: C2_2  and  C3_3 
REMARK    2  A    between atoms: C3_3  and  C4_4 
REMARK    3  A    between atoms: C3_3  and  C11_11 
REMARK    4  A    between atoms: C4_4  and  C5_5 
REMARK    5  A    between atoms: C15_15  and  C16_16 
ROOT
HETATM    1  C11 UNL     1       2.513   5.559  13.124  1.00  0.00    -0.050 A 
HETATM    2  C12 UNL     1       3.372   6.202  12.256  1.00  0.00     0.008 A 
HETATM    3  C13 UNL     1       3.128   7.475  11.783  1.00  0.00     0.002 A 
HETATM    4  C14 UNL     1       1.994   8.138  12.184  1.00  0.00     0.014 A 
HETATM    5  C15 UNL     1       1.084   7.534  13.066  1.00  0.00    -0.009 A 
HETATM    6  C21 UNL     1       1.385   6.269  13.498  1.00  0.00     0.021 A 
ENDROOT
BRANCH   1   7
HETATM    7  C3  UNL     1       2.792   4.191  13.630  1.00  0.00     0.041 C 
BRANCH   7   8
HETATM    8  C2  UNL     1       4.265   3.967  13.854  1.00  0.00     0.009 C 
HETATM    9  C1  UNL     1       4.832   2.934  12.899  1.00  0.00     0.006 C 
ENDBRANCH   7   8
BRANCH   7  10
HETATM   10  C4  UNL     1       1.906   3.696  14.688  1.00  0.00    -0.006 C 
BRANCH  10  11
HETATM   11  C5  UNL     1       0.944   2.657  14.489  1.00  0.00    -0.039 A 
HETATM   12  C6  UNL     1       1.405   1.414  14.084  1.00  0.00     0.011 A 
HETATM   13  C7  UNL     1       0.550   0.356  13.868  1.00  0.00     0.001 A 
HETATM   14  C8  UNL     1      -0.810   0.496  14.048  1.00  0.00     0.000 A 
HETATM   15  C9  UNL     1      -1.254   1.729  14.448  1.00  0.00     0.001 A 
HETATM   16  C10 UNL     1      -0.418   2.790  14.667  1.00  0.00     0.011 A 
ENDBRANCH  10  11
ENDBRANCH   7  10
ENDBRANCH   1   7
BRANCH   5  17
HETATM   17  C16 UNL     1      -0.112   8.275  13.468  1.00  0.00     0.042 A 
HETATM   18  C17 UNL     1      -0.593   8.260  14.749  1.00  0.00     0.030 A 
HETATM   19  C18 UNL     1      -1.730   8.965  15.127  1.00  0.00     0.004 A 
HETATM   20  C19 UNL     1      -2.397   9.706  14.180  1.00  0.00     0.017 A 
HETATM   21  C20 UNL     1      -1.899   9.711  12.892  1.00  0.00     0.088 A 
HETATM   22  N1  UNL     1      -0.794   9.015  12.564  1.00  0.00    -0.365 N 
ATOM     23  H1  UNL     1      -0.460   9.047  11.600  1.00  0.00     0.165 HD
ENDBRANCH   5  17
TORSDOF 5
ENDMDL
