MODEL 1
REMARK VINA RESULT: -6.808825811      0.000      0.000
REMARK  12 active torsions:
REMARK  status: ('A' for Active; 'I' for Inactive)
REMARK    1  A    between atoms: C2_2  and  C3_3 
REMARK    2  A    between atoms: C2_2  and  O1_10 
REMARK    3  A    between atoms: C2_2  and  C22_43 
REMARK    4  A    between atoms: C3_3  and  C4_4 
REMARK    5  A    between atoms: O1_10  and  C10_11 
REMARK    6  A    between atoms: C12_13  and  O2_14 
REMARK    7  A    between atoms: O2_14  and  C13_15 
REMARK    8  A    between atoms: C15_18  and  O4_19 
REMARK    9  A    between atoms: C16_21  and  N1_22 
REMARK   10  A    between atoms: C18_27  and  N2_28 
REMARK   11  A    between atoms: C19_32  and  N3_33 
REMARK   12  A    between atoms: C21_38  and  N4_39 
ROOT
HETATM    1  C10 UNL     1      29.796  17.817  23.171  1.00  0.00     0.156 C 
HETATM    2  C11 UNL     1      29.987  16.345  23.050  1.00  0.00     0.068 C 
HETATM    3  C12 UNL     1      29.562  15.515  24.226  1.00  0.00     0.157 C 
HETATM    4  C19 UNL     1      28.298  15.937  24.895  1.00  0.00     0.214 C 
HETATM    5  C20 UNL     1      27.874  17.348  24.563  1.00  0.00     0.070 C 
HETATM    6  C21 UNL     1      29.129  18.181  24.511  1.00  0.00     0.214 C 
ENDROOT
BRANCH   3   7
HETATM    7  O2  UNL     1      29.356  14.214  23.735  1.00  0.00    -0.352 OA
BRANCH   7   8
HETATM    8  C13 UNL     1      28.992  14.192  22.406  1.00  0.00     0.290 C 
HETATM    9  O3  UNL     1      29.784  13.425  21.595  1.00  0.00    -0.357 OA
HETATM   10  C14 UNL     1      29.584  12.070  21.654  1.00  0.00     0.205 C 
HETATM   11  C15 UNL     1      28.463  11.598  20.745  1.00  0.00     0.172 C 
HETATM   12  C16 UNL     1      27.875  12.826  20.095  1.00  0.00     0.216 C 
HETATM   13  C17 UNL     1      26.987  13.609  21.004  1.00  0.00     0.073 C 
HETATM   14  C18 UNL     1      27.522  13.837  22.368  1.00  0.00     0.240 C 
BRANCH  11  15
HETATM   15  O4  UNL     1      28.976  10.801  19.721  1.00  0.00    -0.391 OA
ATOM     16  H4  UNL     1      28.982  11.283  18.903  1.00  0.00     0.210 HD
ENDBRANCH  11  15
BRANCH  12  17
HETATM   17  N1  UNL     1      27.088  12.378  18.963  1.00  0.00    -0.072 N 
ATOM     18  H13 UNL     1      27.068  13.053  18.198  1.00  0.00     0.274 HD
ATOM     19  H12 UNL     1      27.526  11.612  18.450  1.00  0.00     0.274 HD
ATOM     20  H11 UNL     1      26.159  12.145  19.314  1.00  0.00     0.274 HD
ENDBRANCH  12  17
BRANCH  14  21
HETATM   21  N2  UNL     1      27.203  12.756  23.307  1.00  0.00    -0.070 N 
ATOM     22  H23 UNL     1      28.039  12.417  23.782  1.00  0.00     0.274 HD
ATOM     23  H22 UNL     1      26.691  13.104  24.117  1.00  0.00     0.274 HD
ATOM     24  H21 UNL     1      26.702  11.995  22.847  1.00  0.00     0.274 HD
ENDBRANCH  14  21
ENDBRANCH   7   8
ENDBRANCH   3   7
BRANCH   4  25
HETATM   25  N3  UNL     1      28.381  15.762  26.357  1.00  0.00    -0.072 N 
ATOM     26  H33 UNL     1      28.489  14.780  26.611  1.00  0.00     0.274 HD
ATOM     27  H32 UNL     1      29.263  16.117  26.726  1.00  0.00     0.274 HD
ATOM     28  H31 UNL     1      27.581  16.185  26.827  1.00  0.00     0.274 HD
ENDBRANCH   4  25
BRANCH   1  29
HETATM   29  O1  UNL     1      29.045  18.256  22.118  1.00  0.00    -0.362 OA
BRANCH  29  30
HETATM   30  C2  UNL     1      29.718  18.726  21.002  1.00  0.00     0.149 C 
HETATM   31  C1  UNL     1      31.063  19.260  21.478  1.00  0.00     0.058 C 
BRANCH  30  32
HETATM   32  C3  UNL     1      28.915  19.959  20.573  1.00  0.00     0.087 C 
BRANCH  32  33
HETATM   33  C4  UNL     1      27.636  19.716  19.959  1.00  0.00    -0.055 A 
HETATM   34  C5  UNL     1      27.380  19.890  18.593  1.00  0.00     0.007 A 
HETATM   35  C6  UNL     1      26.136  19.677  18.042  1.00  0.00     0.001 A 
HETATM   36  C7  UNL     1      25.089  19.283  18.815  1.00  0.00     0.000 A 
HETATM   37  C8  UNL     1      25.298  19.101  20.162  1.00  0.00     0.001 A 
HETATM   38  C9  UNL     1      26.545  19.317  20.701  1.00  0.00     0.007 A 
ENDBRANCH  32  33
ENDBRANCH  30  32
BRANCH  30  39
HETATM   39  C22 UNL     1      29.815  17.811  19.884  1.00  0.00     0.209 C 
HETATM   40  O5  UNL     1      30.590  17.919  18.903  1.00  0.00    -0.646 OA
HETATM   41  O6  UNL     1      28.989  16.668  19.822  1.00  0.00    -0.646 OA
ENDBRANCH  30  39
ENDBRANCH  29  30
ENDBRANCH   1  29
BRANCH   6  42
HETATM   42  N4  UNL     1      30.037  17.931  25.607  1.00  0.00    -0.072 N 
ATOM     43  H43 UNL     1      29.934  16.987  25.978  1.00  0.00     0.274 HD
ATOM     44  H42 UNL     1      31.004  17.864  25.292  1.00  0.00     0.274 HD
ATOM     45  H41 UNL     1      29.920  18.640  26.332  1.00  0.00     0.274 HD
ENDBRANCH   6  42
TORSDOF 12
ENDMDL
MODEL 2
REMARK VINA RESULT: -6.775752482      2.495      6.622
REMARK  12 active torsions:
REMARK  status: ('A' for Active; 'I' for Inactive)
REMARK    1  A    between atoms: C2_2  and  C3_3 
REMARK    2  A    between atoms: C2_2  and  O1_10 
REMARK    3  A    between atoms: C2_2  and  C22_43 
REMARK    4  A    between atoms: C3_3  and  C4_4 
REMARK    5  A    between atoms: O1_10  and  C10_11 
REMARK    6  A    between atoms: C12_13  and  O2_14 
REMARK    7  A    between atoms: O2_14  and  C13_15 
REMARK    8  A    between atoms: C15_18  and  O4_19 
REMARK    9  A    between atoms: C16_21  and  N1_22 
REMARK   10  A    between atoms: C18_27  and  N2_28 
REMARK   11  A    between atoms: C19_32  and  N3_33 
REMARK   12  A    between atoms: C21_38  and  N4_39 
ROOT
HETATM    1  C10 UNL     1      27.478  14.971  21.293  1.00  0.00     0.156 C 
HETATM    2  C11 UNL     1      28.059  15.941  20.324  1.00  0.00     0.068 C 
HETATM    3  C12 UNL     1      27.162  17.053  19.868  1.00  0.00     0.157 C 
HETATM    4  C19 UNL     1      26.288  17.654  20.916  1.00  0.00     0.214 C 
HETATM    5  C20 UNL     1      26.135  16.794  22.148  1.00  0.00     0.070 C 
HETATM    6  C21 UNL     1      26.038  15.366  21.674  1.00  0.00     0.214 C 
ENDROOT
BRANCH   3   7
HETATM    7  O2  UNL     1      28.007  18.073  19.399  1.00  0.00    -0.352 OA
BRANCH   7   8
HETATM    8  C13 UNL     1      29.322  17.896  19.773  1.00  0.00     0.290 C 
HETATM    9  O3  UNL     1      30.230  17.923  18.750  1.00  0.00    -0.357 OA
HETATM   10  C14 UNL     1      30.556  19.160  18.256  1.00  0.00     0.205 C 
HETATM   11  C15 UNL     1      31.659  19.840  19.047  1.00  0.00     0.172 C 
HETATM   12  C16 UNL     1      32.009  18.924  20.194  1.00  0.00     0.216 C 
HETATM   13  C17 UNL     1      31.011  18.958  21.304  1.00  0.00     0.073 C 
HETATM   14  C18 UNL     1      29.592  18.892  20.881  1.00  0.00     0.240 C 
BRANCH  11  15
HETATM   15  O4  UNL     1      32.807  19.967  18.263  1.00  0.00    -0.391 OA
ATOM     16  H4  UNL     1      33.145  19.109  18.035  1.00  0.00     0.210 HD
ENDBRANCH  11  15
BRANCH  12  17
HETATM   17  N1  UNL     1      33.289  19.360  20.718  1.00  0.00    -0.072 N 
ATOM     18  H13 UNL     1      34.071  18.803  20.374  1.00  0.00     0.274 HD
ATOM     19  H12 UNL     1      33.591  20.258  20.338  1.00  0.00     0.274 HD
ATOM     20  H11 UNL     1      33.215  19.361  21.735  1.00  0.00     0.274 HD
ENDBRANCH  12  17
BRANCH  14  21
HETATM   21  N2  UNL     1      29.012  20.204  20.580  1.00  0.00    -0.070 N 
ATOM     22  H23 UNL     1      29.206  20.876  21.322  1.00  0.00     0.274 HD
ATOM     23  H22 UNL     1      29.508  20.665  19.817  1.00  0.00     0.274 HD
ATOM     24  H21 UNL     1      28.012  20.138  20.389  1.00  0.00     0.274 HD
ENDBRANCH  14  21
ENDBRANCH   7   8
ENDBRANCH   3   7
BRANCH   4  25
HETATM   25  N3  UNL     1      24.964  18.006  20.373  1.00  0.00    -0.072 N 
ATOM     26  H33 UNL     1      24.989  18.893  19.871  1.00  0.00     0.274 HD
ATOM     27  H32 UNL     1      24.702  17.394  19.600  1.00  0.00     0.274 HD
ATOM     28  H31 UNL     1      24.253  18.010  21.105  1.00  0.00     0.274 HD
ENDBRANCH   4  25
BRANCH   1  29
HETATM   29  O1  UNL     1      28.276  14.916  22.400  1.00  0.00    -0.362 OA
BRANCH  29  30
HETATM   30  C2  UNL     1      28.698  13.666  22.825  1.00  0.00     0.149 C 
HETATM   31  C1  UNL     1      27.457  12.793  22.955  1.00  0.00     0.058 C 
BRANCH  30  32
HETATM   32  C3  UNL     1      29.184  13.904  24.259  1.00  0.00     0.087 C 
BRANCH  32  33
HETATM   33  C4  UNL     1      29.257  15.274  24.697  1.00  0.00    -0.055 A 
HETATM   34  C5  UNL     1      28.203  15.950  25.324  1.00  0.00     0.007 A 
HETATM   35  C6  UNL     1      28.296  17.271  25.702  1.00  0.00     0.001 A 
HETATM   36  C7  UNL     1      29.433  17.983  25.480  1.00  0.00     0.000 A 
HETATM   37  C8  UNL     1      30.491  17.355  24.867  1.00  0.00     0.001 A 
HETATM   38  C9  UNL     1      30.388  16.035  24.493  1.00  0.00     0.007 A 
ENDBRANCH  32  33
ENDBRANCH  30  32
BRANCH  30  39
HETATM   39  C22 UNL     1      29.763  13.057  22.058  1.00  0.00     0.209 C 
HETATM   40  O5  UNL     1      30.773  13.642  21.598  1.00  0.00    -0.646 OA
HETATM   41  O6  UNL     1      29.730  11.678  21.758  1.00  0.00    -0.646 OA
ENDBRANCH  30  39
ENDBRANCH  29  30
ENDBRANCH   1  29
BRANCH   6  42
HETATM   42  N4  UNL     1      25.154  15.188  20.545  1.00  0.00    -0.072 N 
ATOM     43  H43 UNL     1      25.558  14.572  19.840  1.00  0.00     0.274 HD
ATOM     44  H42 UNL     1      24.338  14.627  20.786  1.00  0.00     0.274 HD
ATOM     45  H41 UNL     1      24.892  16.094  20.155  1.00  0.00     0.274 HD
ENDBRANCH   6  42
TORSDOF 12
ENDMDL
MODEL 3
REMARK VINA RESULT: -6.741893655      2.519      4.082
REMARK  12 active torsions:
REMARK  status: ('A' for Active; 'I' for Inactive)
REMARK    1  A    between atoms: C2_2  and  C3_3 
REMARK    2  A    between atoms: C2_2  and  O1_10 
REMARK    3  A    between atoms: C2_2  and  C22_43 
REMARK    4  A    between atoms: C3_3  and  C4_4 
REMARK    5  A    between atoms: O1_10  and  C10_11 
REMARK    6  A    between atoms: C12_13  and  O2_14 
REMARK    7  A    between atoms: O2_14  and  C13_15 
REMARK    8  A    between atoms: C15_18  and  O4_19 
REMARK    9  A    between atoms: C16_21  and  N1_22 
REMARK   10  A    between atoms: C18_27  and  N2_28 
REMARK   11  A    between atoms: C19_32  and  N3_33 
REMARK   12  A    between atoms: C21_38  and  N4_39 
ROOT
HETATM    1  C10 UNL     1      29.404  16.083  23.935  1.00  0.00     0.156 C 
HETATM    2  C11 UNL     1      29.990  15.102  22.979  1.00  0.00     0.068 C 
HETATM    3  C12 UNL     1      29.038  14.126  22.352  1.00  0.00     0.157 C 
HETATM    4  C19 UNL     1      27.709  14.677  21.959  1.00  0.00     0.214 C 
HETATM    5  C20 UNL     1      27.376  15.994  22.618  1.00  0.00     0.070 C 
HETATM    6  C21 UNL     1      27.876  15.911  24.038  1.00  0.00     0.214 C 
ENDROOT
BRANCH   3   7
HETATM    7  O2  UNL     1      29.660  13.668  21.179  1.00  0.00    -0.352 OA
BRANCH   7   8
HETATM    8  C13 UNL     1      30.635  12.724  21.420  1.00  0.00     0.290 C 
HETATM    9  O3  UNL     1      30.198  11.429  21.467  1.00  0.00    -0.357 OA
HETATM   10  C14 UNL     1      29.941  10.829  20.261  1.00  0.00     0.205 C 
HETATM   11  C15 UNL     1      31.181  10.224  19.626  1.00  0.00     0.172 C 
HETATM   12  C16 UNL     1      32.342  10.544  20.535  1.00  0.00     0.216 C 
HETATM   13  C17 UNL     1      32.812  11.956  20.421  1.00  0.00     0.073 C 
HETATM   14  C18 UNL     1      31.740  12.980  20.417  1.00  0.00     0.240 C 
BRANCH  11  15
HETATM   15  O4  UNL     1      31.069   8.834  19.581  1.00  0.00    -0.391 OA
ATOM     16  H4  UNL     1      31.889   8.431  19.842  1.00  0.00     0.210 HD
ENDBRANCH  11  15
BRANCH  12  17
HETATM   17  N1  UNL     1      33.435   9.667  20.159  1.00  0.00    -0.072 N 
ATOM     18  H13 UNL     1      33.377   8.747  20.595  1.00  0.00     0.274 HD
ATOM     19  H12 UNL     1      33.382   9.356  19.188  1.00  0.00     0.274 HD
ATOM     20  H11 UNL     1      34.303  10.157  20.374  1.00  0.00     0.274 HD
ENDBRANCH  12  17
BRANCH  14  21
HETATM   21  N2  UNL     1      31.202  13.256  19.081  1.00  0.00    -0.070 N 
ATOM     22  H23 UNL     1      30.368  13.840  19.129  1.00  0.00     0.274 HD
ATOM     23  H22 UNL     1      31.808  13.887  18.558  1.00  0.00     0.274 HD
ATOM     24  H21 UNL     1      31.024  12.395  18.563  1.00  0.00     0.274 HD
ENDBRANCH  14  21
ENDBRANCH   7   8
ENDBRANCH   3   7
BRANCH   4  25
HETATM   25  N3  UNL     1      26.631  13.700  22.199  1.00  0.00    -0.072 N 
ATOM     26  H33 UNL     1      26.203  13.832  23.115  1.00  0.00     0.274 HD
ATOM     27  H32 UNL     1      25.817  13.891  21.616  1.00  0.00     0.274 HD
ATOM     28  H31 UNL     1      26.964  12.743  22.076  1.00  0.00     0.274 HD
ENDBRANCH   4  25
BRANCH   1  29
HETATM   29  O1  UNL     1      29.725  17.346  23.527  1.00  0.00    -0.362 OA
BRANCH  29  30
HETATM   30  C2  UNL     1      30.163  18.239  24.492  1.00  0.00     0.149 C 
HETATM   31  C1  UNL     1      29.094  18.291  25.576  1.00  0.00     0.058 C 
BRANCH  30  32
HETATM   32  C3  UNL     1      30.104  19.603  23.793  1.00  0.00     0.087 C 
BRANCH  32  33
HETATM   33  C4  UNL     1      29.488  19.634  22.492  1.00  0.00    -0.055 A 
HETATM   34  C5  UNL     1      28.104  19.641  22.283  1.00  0.00     0.007 A 
HETATM   35  C6  UNL     1      27.547  19.641  21.023  1.00  0.00     0.001 A 
HETATM   36  C7  UNL     1      28.332  19.634  19.914  1.00  0.00     0.000 A 
HETATM   37  C8  UNL     1      29.698  19.627  20.075  1.00  0.00     0.001 A 
HETATM   38  C9  UNL     1      30.243  19.627  21.338  1.00  0.00     0.007 A 
ENDBRANCH  32  33
ENDBRANCH  30  32
BRANCH  30  39
HETATM   39  C22 UNL     1      31.501  18.024  25.000  1.00  0.00     0.209 C 
HETATM   40  O5  UNL     1      31.845  17.158  25.839  1.00  0.00    -0.646 OA
HETATM   41  O6  UNL     1      32.572  18.830  24.556  1.00  0.00    -0.646 OA
ENDBRANCH  30  39
ENDBRANCH  29  30
ENDBRANCH   1  29
BRANCH   6  42
HETATM   42  N4  UNL     1      27.556  14.664  24.694  1.00  0.00    -0.072 N 
ATOM     43  H43 UNL     1      28.353  14.028  24.712  1.00  0.00     0.274 HD
ATOM     44  H42 UNL     1      27.435  14.783  25.699  1.00  0.00     0.274 HD
ATOM     45  H41 UNL     1      26.737  14.236  24.260  1.00  0.00     0.274 HD
ENDBRANCH   6  42
TORSDOF 12
ENDMDL
MODEL 4
REMARK VINA RESULT: -6.689904477      2.315      3.925
REMARK  12 active torsions:
REMARK  status: ('A' for Active; 'I' for Inactive)
REMARK    1  A    between atoms: C2_2  and  C3_3 
REMARK    2  A    between atoms: C2_2  and  O1_10 
REMARK    3  A    between atoms: C2_2  and  C22_43 
REMARK    4  A    between atoms: C3_3  and  C4_4 
REMARK    5  A    between atoms: O1_10  and  C10_11 
REMARK    6  A    between atoms: C12_13  and  O2_14 
REMARK    7  A    between atoms: O2_14  and  C13_15 
REMARK    8  A    between atoms: C15_18  and  O4_19 
REMARK    9  A    between atoms: C16_21  and  N1_22 
REMARK   10  A    between atoms: C18_27  and  N2_28 
REMARK   11  A    between atoms: C19_32  and  N3_33 
REMARK   12  A    between atoms: C21_38  and  N4_39 
ROOT
HETATM    1  C10 UNL     1      29.390  16.151  24.020  1.00  0.00     0.156 C 
HETATM    2  C11 UNL     1      30.120  15.239  23.096  1.00  0.00     0.068 C 
HETATM    3  C12 UNL     1      29.311  14.155  22.447  1.00  0.00     0.157 C 
HETATM    4  C19 UNL     1      27.943  14.544  22.002  1.00  0.00     0.214 C 
HETATM    5  C20 UNL     1      27.435  15.817  22.635  1.00  0.00     0.070 C 
HETATM    6  C21 UNL     1      27.891  15.803  24.072  1.00  0.00     0.214 C 
ENDROOT
BRANCH   3   7
HETATM    7  O2  UNL     1      30.025  13.765  21.301  1.00  0.00    -0.352 OA
BRANCH   7   8
HETATM    8  C13 UNL     1      30.266  12.408  21.253  1.00  0.00     0.290 C 
HETATM    9  O3  UNL     1      29.266  11.655  20.702  1.00  0.00    -0.357 OA
HETATM   10  C14 UNL     1      29.175  11.669  19.334  1.00  0.00     0.205 C 
HETATM   11  C15 UNL     1      30.092  10.656  18.671  1.00  0.00     0.172 C 
HETATM   12  C16 UNL     1      30.874   9.982  19.771  1.00  0.00     0.216 C 
HETATM   13  C17 UNL     1      31.980  10.826  20.313  1.00  0.00     0.073 C 
HETATM   14  C18 UNL     1      31.619  12.235  20.596  1.00  0.00     0.240 C 
BRANCH  11  15
HETATM   15  O4  UNL     1      29.339   9.665  18.040  1.00  0.00    -0.391 OA
ATOM     16  H4  UNL     1      29.537   8.815  18.415  1.00  0.00     0.210 HD
ENDBRANCH  11  15
BRANCH  12  17
HETATM   17  N1  UNL     1      31.453   8.776  19.210  1.00  0.00    -0.072 N 
ATOM     18  H13 UNL     1      31.836   8.915  18.275  1.00  0.00     0.274 HD
ATOM     19  H12 UNL     1      32.322   8.500  19.668  1.00  0.00     0.274 HD
ATOM     20  H11 UNL     1      30.736   8.052  19.245  1.00  0.00     0.274 HD
ENDBRANCH  12  17
BRANCH  14  21
HETATM   21  N2  UNL     1      31.774  13.120  19.438  1.00  0.00    -0.070 N 
ATOM     22  H23 UNL     1      31.439  12.676  18.583  1.00  0.00     0.274 HD
ATOM     23  H22 UNL     1      31.120  13.902  19.476  1.00  0.00     0.274 HD
ATOM     24  H21 UNL     1      32.736  13.443  19.338  1.00  0.00     0.274 HD
ENDBRANCH  14  21
ENDBRANCH   7   8
ENDBRANCH   3   7
BRANCH   4  25
HETATM   25  N3  UNL     1      26.978  13.449  22.216  1.00  0.00    -0.072 N 
ATOM     26  H33 UNL     1      26.803  12.931  21.355  1.00  0.00     0.274 HD
ATOM     27  H32 UNL     1      27.384  12.697  22.772  1.00  0.00     0.274 HD
ATOM     28  H31 UNL     1      26.111  13.794  22.628  1.00  0.00     0.274 HD
ENDBRANCH   4  25
BRANCH   1  29
HETATM   29  O1  UNL     1      29.576  17.441  23.610  1.00  0.00    -0.362 OA
BRANCH  29  30
HETATM   30  C2  UNL     1      30.053  18.348  24.543  1.00  0.00     0.149 C 
HETATM   31  C1  UNL     1      29.027  18.420  25.667  1.00  0.00     0.058 C 
BRANCH  30  32
HETATM   32  C3  UNL     1      29.970  19.700  23.825  1.00  0.00     0.087 C 
BRANCH  32  33
HETATM   33  C4  UNL     1      29.416  19.692  22.496  1.00  0.00    -0.055 A 
HETATM   34  C5  UNL     1      28.044  19.657  22.223  1.00  0.00     0.007 A 
HETATM   35  C6  UNL     1      27.548  19.619  20.938  1.00  0.00     0.001 A 
HETATM   36  C7  UNL     1      28.385  19.615  19.867  1.00  0.00     0.000 A 
HETATM   37  C8  UNL     1      29.741  19.648  20.093  1.00  0.00     0.001 A 
HETATM   38  C9  UNL     1      30.226  19.686  21.380  1.00  0.00     0.007 A 
ENDBRANCH  32  33
ENDBRANCH  30  32
BRANCH  30  39
HETATM   39  C22 UNL     1      31.409  18.137  25.003  1.00  0.00     0.209 C 
HETATM   40  O5  UNL     1      32.428  18.758  24.615  1.00  0.00    -0.646 OA
HETATM   41  O6  UNL     1      31.689  17.155  25.977  1.00  0.00    -0.646 OA
ENDBRANCH  30  39
ENDBRANCH  29  30
ENDBRANCH   1  29
BRANCH   6  42
HETATM   42  N4  UNL     1      27.694  14.531  24.730  1.00  0.00    -0.072 N 
ATOM     43  H43 UNL     1      27.015  13.950  24.239  1.00  0.00     0.274 HD
ATOM     44  H42 UNL     1      28.508  13.924  24.636  1.00  0.00     0.274 HD
ATOM     45  H41 UNL     1      27.438  14.674  25.707  1.00  0.00     0.274 HD
ENDBRANCH   6  42
TORSDOF 12
ENDMDL
MODEL 5
REMARK VINA RESULT: -6.547056613      3.329      6.083
REMARK  12 active torsions:
REMARK  status: ('A' for Active; 'I' for Inactive)
REMARK    1  A    between atoms: C2_2  and  C3_3 
REMARK    2  A    between atoms: C2_2  and  O1_10 
REMARK    3  A    between atoms: C2_2  and  C22_43 
REMARK    4  A    between atoms: C3_3  and  C4_4 
REMARK    5  A    between atoms: O1_10  and  C10_11 
REMARK    6  A    between atoms: C12_13  and  O2_14 
REMARK    7  A    between atoms: O2_14  and  C13_15 
REMARK    8  A    between atoms: C15_18  and  O4_19 
REMARK    9  A    between atoms: C16_21  and  N1_22 
REMARK   10  A    between atoms: C18_27  and  N2_28 
REMARK   11  A    between atoms: C19_32  and  N3_33 
REMARK   12  A    between atoms: C21_38  and  N4_39 
ROOT
HETATM    1  C10 UNL     1      31.905  18.683  21.849  1.00  0.00     0.156 C 
HETATM    2  C11 UNL     1      30.586  19.279  21.497  1.00  0.00     0.068 C 
HETATM    3  C12 UNL     1      30.393  19.679  20.064  1.00  0.00     0.157 C 
HETATM    4  C19 UNL     1      30.958  18.747  19.047  1.00  0.00     0.214 C 
HETATM    5  C20 UNL     1      31.979  17.785  19.603  1.00  0.00     0.070 C 
HETATM    6  C21 UNL     1      32.804  18.554  20.604  1.00  0.00     0.214 C 
ENDROOT
BRANCH   3   7
HETATM    7  O2  UNL     1      29.004  19.730  19.854  1.00  0.00    -0.352 OA
BRANCH   7   8
HETATM    8  C13 UNL     1      28.326  18.712  20.491  1.00  0.00     0.290 C 
HETATM    9  O3  UNL     1      27.236  19.101  21.220  1.00  0.00    -0.357 OA
HETATM   10  C14 UNL     1      26.099  19.389  20.509  1.00  0.00     0.205 C 
HETATM   11  C15 UNL     1      25.264  18.157  20.206  1.00  0.00     0.172 C 
HETATM   12  C16 UNL     1      26.015  16.969  20.756  1.00  0.00     0.216 C 
HETATM   13  C17 UNL     1      27.172  16.555  19.908  1.00  0.00     0.073 C 
HETATM   14  C18 UNL     1      28.039  17.662  19.439  1.00  0.00     0.240 C 
BRANCH  11  15
HETATM   15  O4  UNL     1      24.048  18.220  20.887  1.00  0.00    -0.391 OA
ATOM     16  H4  UNL     1      23.425  18.742  20.396  1.00  0.00     0.210 HD
ENDBRANCH  11  15
BRANCH  12  17
HETATM   17  N1  UNL     1      25.080  15.863  20.823  1.00  0.00    -0.072 N 
ATOM     18  H13 UNL     1      25.518  14.959  20.646  1.00  0.00     0.274 HD
ATOM     19  H12 UNL     1      24.756  15.669  21.771  1.00  0.00     0.274 HD
ATOM     20  H11 UNL     1      24.319  16.071  20.176  1.00  0.00     0.274 HD
ENDBRANCH  12  17
BRANCH  14  21
HETATM   21  N2  UNL     1      27.585  18.267  18.183  1.00  0.00    -0.070 N 
ATOM     22  H23 UNL     1      27.206  17.565  17.548  1.00  0.00     0.274 HD
ATOM     23  H22 UNL     1      26.743  18.826  18.322  1.00  0.00     0.274 HD
ATOM     24  H21 UNL     1      28.325  18.811  17.739  1.00  0.00     0.274 HD
ENDBRANCH  14  21
ENDBRANCH   7   8
ENDBRANCH   3   7
BRANCH   4  25
HETATM   25  N3  UNL     1      31.522  19.482  17.900  1.00  0.00    -0.072 N 
ATOM     26  H33 UNL     1      31.791  20.430  18.159  1.00  0.00     0.274 HD
ATOM     27  H32 UNL     1      32.441  19.123  17.642  1.00  0.00     0.274 HD
ATOM     28  H31 UNL     1      30.881  19.478  17.106  1.00  0.00     0.274 HD
ENDBRANCH   4  25
BRANCH   1  29
HETATM   29  O1  UNL     1      31.702  17.465  22.431  1.00  0.00    -0.362 OA
BRANCH  29  30
HETATM   30  C2  UNL     1      32.628  17.039  23.369  1.00  0.00     0.149 C 
HETATM   31  C1  UNL     1      33.359  15.844  22.769  1.00  0.00     0.058 C 
BRANCH  30  32
HETATM   32  C3  UNL     1      31.774  16.468  24.506  1.00  0.00     0.087 C 
BRANCH  32  33
HETATM   33  C4  UNL     1      30.348  16.637  24.389  1.00  0.00    -0.055 A 
HETATM   34  C5  UNL     1      29.507  15.732  23.731  1.00  0.00     0.007 A 
HETATM   35  C6  UNL     1      28.150  15.939  23.611  1.00  0.00     0.001 A 
HETATM   36  C7  UNL     1      27.565  17.048  24.135  1.00  0.00     0.000 A 
HETATM   37  C8  UNL     1      28.357  17.962  24.789  1.00  0.00     0.001 A 
HETATM   38  C9  UNL     1      29.710  17.745  24.904  1.00  0.00     0.007 A 
ENDBRANCH  32  33
ENDBRANCH  30  32
BRANCH  30  39
HETATM   39  C22 UNL     1      33.510  18.056  23.902  1.00  0.00     0.209 C 
HETATM   40  O5  UNL     1      34.697  18.264  23.554  1.00  0.00    -0.646 OA
HETATM   41  O6  UNL     1      33.061  18.932  24.914  1.00  0.00    -0.646 OA
ENDBRANCH  30  39
ENDBRANCH  29  30
ENDBRANCH   1  29
BRANCH   6  42
HETATM   42  N4  UNL     1      33.209  19.861  20.140  1.00  0.00    -0.072 N 
ATOM     43  H43 UNL     1      32.911  20.599  20.777  1.00  0.00     0.274 HD
ATOM     44  H42 UNL     1      34.217  19.996  20.214  1.00  0.00     0.274 HD
ATOM     45  H41 UNL     1      32.872  20.019  19.190  1.00  0.00     0.274 HD
ENDBRANCH   6  42
TORSDOF 12
ENDMDL
