MODEL 1
REMARK VINA RESULT: -7.030415616      0.000      0.000
REMARK  12 active torsions:
REMARK  status: ('A' for Active; 'I' for Inactive)
REMARK       I    between atoms: C2_2  and  N1_4 
REMARK    1  A    between atoms: N1_4  and  C3_6 
REMARK    2  A    between atoms: C4_7  and  O2_8 
REMARK    3  A    between atoms: O2_8  and  C5_9 
REMARK    4  A    between atoms: C9_13  and  N2_14 
REMARK    5  A    between atoms: C13_22  and  S1_23 
REMARK    6  A    between atoms: S1_23  and  C14_24 
REMARK    7  A    between atoms: C15_26  and  C16_27 
REMARK    8  A    between atoms: C16_27  and  O5_28 
REMARK    9  A    between atoms: C17_30  and  O6_31 
REMARK   10  A    between atoms: C18_33  and  C19_34 
REMARK   11  A    between atoms: C19_34  and  O7_35 
REMARK   12  A    between atoms: C20_37  and  O8_38 
ROOT
HETATM    1  C3  UNL     1      26.139  15.128  20.684  1.00  0.00     0.169 C 
HETATM    2  C4  UNL     1      27.005  14.911  21.891  1.00  0.00     0.286 C 
HETATM    3  O3  UNL     1      27.956  13.941  21.723  1.00  0.00    -0.348 OA
HETATM    4  C10 UNL     1      27.933  13.193  20.586  1.00  0.00     0.072 C 
HETATM    5  C11 UNL     1      28.855  13.770  19.538  1.00  0.00     0.047 C 
HETATM    6  C12 UNL     1      28.577  11.856  21.011  1.00  0.00     0.047 C 
HETATM    7  C13 UNL     1      26.614  12.859  20.013  1.00  0.00     0.114 C 
HETATM    8  C20 UNL     1      25.476  13.773  20.441  1.00  0.00     0.162 C 
ENDROOT
BRANCH   7   9
HETATM    9  S1  UNL     1      26.568  12.835  18.200  1.00  0.00    -0.126 SA
BRANCH   9  10
HETATM   10  C14 UNL     1      25.831  11.346  17.546  1.00  0.00     0.192 C 
HETATM   11  O4  UNL     1      24.445  11.340  17.603  1.00  0.00    -0.365 OA
HETATM   12  C15 UNL     1      23.988  11.836  16.389  1.00  0.00     0.175 C 
HETATM   13  C17 UNL     1      24.992  11.526  15.330  1.00  0.00     0.158 C 
HETATM   14  C18 UNL     1      26.202  11.092  16.108  1.00  0.00     0.080 C 
BRANCH  12  15
HETATM   15  C16 UNL     1      22.699  11.088  16.069  1.00  0.00     0.198 C 
BRANCH  15  16
HETATM   16  O5  UNL     1      21.584  11.862  16.394  1.00  0.00    -0.398 OA
ATOM     17  H5  UNL     1      21.102  12.103  15.612  1.00  0.00     0.209 HD
ENDBRANCH  15  16
ENDBRANCH  12  15
BRANCH  13  18
HETATM   18  O6  UNL     1      25.287  12.710  14.643  1.00  0.00    -0.392 OA
ATOM     19  H6  UNL     1      26.032  12.549  14.076  1.00  0.00     0.210 HD
ENDBRANCH  13  18
BRANCH  14  20
HETATM   20  C19 UNL     1      26.416   9.609  15.825  1.00  0.00     0.174 C 
BRANCH  20  21
HETATM   21  O7  UNL     1      27.100   9.081  16.923  1.00  0.00    -0.400 OA
ATOM     22  H7  UNL     1      27.536   8.292  16.622  1.00  0.00     0.209 HD
ENDBRANCH  20  21
ENDBRANCH  14  20
ENDBRANCH   9  10
ENDBRANCH   7   9
BRANCH   8  23
HETATM   23  O8  UNL     1      24.492  13.835  19.477  1.00  0.00    -0.392 OA
ATOM     24  H8  UNL     1      23.623  13.707  19.838  1.00  0.00     0.210 HD
ENDBRANCH   8  23
BRANCH   1  25
HETATM   25  N1  UNL     1      25.171  16.156  20.926  1.00  0.00    -0.349 N 
HETATM   26  C2  UNL     1      25.336  17.439  20.351  1.00  0.00     0.214 C 
HETATM   27  C1  UNL     1      24.314  18.472  20.625  1.00  0.00     0.117 C 
HETATM   28  O1  UNL     1      26.319  17.676  19.638  1.00  0.00    -0.274 OA
ATOM     29  H1  UNL     1      24.361  15.962  21.514  1.00  0.00     0.163 HD
ENDBRANCH   1  25
BRANCH   2  30
HETATM   30  O2  UNL     1      27.616  16.027  22.394  1.00  0.00    -0.352 OA
BRANCH  30  31
HETATM   31  C5  UNL     1      28.438  15.830  23.489  1.00  0.00     0.155 C 
HETATM   32  C6  UNL     1      29.568  16.803  23.560  1.00  0.00     0.034 C 
HETATM   33  C7  UNL     1      30.058  16.658  24.982  1.00  0.00     0.005 C 
HETATM   34  C8  UNL     1      28.737  16.638  25.738  1.00  0.00     0.035 C 
HETATM   35  C9  UNL     1      27.806  15.831  24.817  1.00  0.00     0.212 C 
BRANCH  35  36
HETATM   36  N2  UNL     1      27.731  14.511  25.423  1.00  0.00    -0.073 N 
ATOM     37  H23 UNL     1      27.328  13.837  24.772  1.00  0.00     0.274 HD
ATOM     38  H22 UNL     1      28.663  14.109  25.528  1.00  0.00     0.274 HD
ATOM     39  H21 UNL     1      27.230  14.500  26.311  1.00  0.00     0.274 HD
ENDBRANCH  35  36
ENDBRANCH  30  31
ENDBRANCH   2  30
TORSDOF 12
ENDMDL
MODEL 2
REMARK VINA RESULT: -6.830726156      2.078      2.659
REMARK  12 active torsions:
REMARK  status: ('A' for Active; 'I' for Inactive)
REMARK       I    between atoms: C2_2  and  N1_4 
REMARK    1  A    between atoms: N1_4  and  C3_6 
REMARK    2  A    between atoms: C4_7  and  O2_8 
REMARK    3  A    between atoms: O2_8  and  C5_9 
REMARK    4  A    between atoms: C9_13  and  N2_14 
REMARK    5  A    between atoms: C13_22  and  S1_23 
REMARK    6  A    between atoms: S1_23  and  C14_24 
REMARK    7  A    between atoms: C15_26  and  C16_27 
REMARK    8  A    between atoms: C16_27  and  O5_28 
REMARK    9  A    between atoms: C17_30  and  O6_31 
REMARK   10  A    between atoms: C18_33  and  C19_34 
REMARK   11  A    between atoms: C19_34  and  O7_35 
REMARK   12  A    between atoms: C20_37  and  O8_38 
ROOT
HETATM    1  C3  UNL     1      26.253  16.495  21.325  1.00  0.00     0.169 C 
HETATM    2  C4  UNL     1      26.893  16.523  22.682  1.00  0.00     0.286 C 
HETATM    3  O3  UNL     1      27.915  15.622  22.830  1.00  0.00    -0.348 OA
HETATM    4  C10 UNL     1      28.144  14.725  21.833  1.00  0.00     0.072 C 
HETATM    5  C11 UNL     1      29.208  15.227  20.886  1.00  0.00     0.047 C 
HETATM    6  C12 UNL     1      28.777  13.520  22.561  1.00  0.00     0.047 C 
HETATM    7  C13 UNL     1      26.976  14.204  21.098  1.00  0.00     0.114 C 
HETATM    8  C20 UNL     1      25.727  15.069  21.179  1.00  0.00     0.162 C 
ENDROOT
BRANCH   7   9
HETATM    9  S1  UNL     1      27.265  13.925  19.329  1.00  0.00    -0.126 SA
BRANCH   9  10
HETATM   10  C14 UNL     1      27.816  12.264  18.972  1.00  0.00     0.192 C 
HETATM   11  O4  UNL     1      26.827  11.454  18.435  1.00  0.00    -0.365 OA
HETATM   12  C15 UNL     1      26.931  11.549  17.053  1.00  0.00     0.175 C 
HETATM   13  C17 UNL     1      28.348  11.848  16.694  1.00  0.00     0.158 C 
HETATM   14  C18 UNL     1      28.973  12.227  18.007  1.00  0.00     0.080 C 
BRANCH  12  15
HETATM   15  C16 UNL     1      26.566  10.180  16.491  1.00  0.00     0.198 C 
BRANCH  15  16
HETATM   16  O5  UNL     1      27.344   9.181  17.077  1.00  0.00    -0.398 OA
ATOM     17  H5  UNL     1      27.138   9.092  18.000  1.00  0.00     0.209 HD
ENDBRANCH  15  16
ENDBRANCH  12  15
BRANCH  13  18
HETATM   18  O6  UNL     1      28.362  12.958  15.841  1.00  0.00    -0.392 OA
ATOM     19  H6  UNL     1      28.040  13.710  16.323  1.00  0.00     0.210 HD
ENDBRANCH  13  18
BRANCH  14  20
HETATM   20  C19 UNL     1      29.979  11.137  18.362  1.00  0.00     0.174 C 
BRANCH  20  21
HETATM   21  O7  UNL     1      29.333  10.255  19.231  1.00  0.00    -0.400 OA
ATOM     22  H7  UNL     1      29.016  10.771  19.963  1.00  0.00     0.209 HD
ENDBRANCH  20  21
ENDBRANCH  14  20
ENDBRANCH   9  10
ENDBRANCH   7   9
BRANCH   8  23
HETATM   23  O8  UNL     1      24.934  14.912  20.061  1.00  0.00    -0.392 OA
ATOM     24  H8  UNL     1      24.471  14.082  20.059  1.00  0.00     0.210 HD
ENDBRANCH   8  23
BRANCH   1  25
HETATM   25  N1  UNL     1      25.198  17.460  21.236  1.00  0.00    -0.349 N 
HETATM   26  C2  UNL     1      25.101  18.309  20.107  1.00  0.00     0.214 C 
HETATM   27  C1  UNL     1      23.997  19.291  20.054  1.00  0.00     0.117 C 
HETATM   28  O1  UNL     1      25.929  18.218  19.192  1.00  0.00    -0.274 OA
ATOM     29  H1  UNL     1      24.515  17.536  21.990  1.00  0.00     0.163 HD
ENDBRANCH   1  25
BRANCH   2  30
HETATM   30  O2  UNL     1      27.335  17.746  23.108  1.00  0.00    -0.352 OA
BRANCH  30  31
HETATM   31  C5  UNL     1      28.580  17.768  23.709  1.00  0.00     0.155 C 
HETATM   32  C6  UNL     1      29.390  18.967  23.340  1.00  0.00     0.034 C 
HETATM   33  C7  UNL     1      30.483  18.977  24.384  1.00  0.00     0.005 C 
HETATM   34  C8  UNL     1      29.676  18.693  25.643  1.00  0.00     0.035 C 
HETATM   35  C9  UNL     1      28.624  17.673  25.175  1.00  0.00     0.212 C 
BRANCH  35  36
HETATM   36  N2  UNL     1      29.107  16.389  25.657  1.00  0.00    -0.073 N 
ATOM     37  H23 UNL     1      28.971  15.664  24.952  1.00  0.00     0.274 HD
ATOM     38  H22 UNL     1      30.126  16.383  25.712  1.00  0.00     0.274 HD
ATOM     39  H21 UNL     1      28.696  16.109  26.548  1.00  0.00     0.274 HD
ENDBRANCH  35  36
ENDBRANCH  30  31
ENDBRANCH   2  30
TORSDOF 12
ENDMDL
MODEL 3
REMARK VINA RESULT: -6.772674388      2.069      2.514
REMARK  12 active torsions:
REMARK  status: ('A' for Active; 'I' for Inactive)
REMARK       I    between atoms: C2_2  and  N1_4 
REMARK    1  A    between atoms: N1_4  and  C3_6 
REMARK    2  A    between atoms: C4_7  and  O2_8 
REMARK    3  A    between atoms: O2_8  and  C5_9 
REMARK    4  A    between atoms: C9_13  and  N2_14 
REMARK    5  A    between atoms: C13_22  and  S1_23 
REMARK    6  A    between atoms: S1_23  and  C14_24 
REMARK    7  A    between atoms: C15_26  and  C16_27 
REMARK    8  A    between atoms: C16_27  and  O5_28 
REMARK    9  A    between atoms: C17_30  and  O6_31 
REMARK   10  A    between atoms: C18_33  and  C19_34 
REMARK   11  A    between atoms: C19_34  and  O7_35 
REMARK   12  A    between atoms: C20_37  and  O8_38 
ROOT
HETATM    1  C3  UNL     1      26.286  16.717  21.614  1.00  0.00     0.169 C 
HETATM    2  C4  UNL     1      26.719  16.715  23.051  1.00  0.00     0.286 C 
HETATM    3  O3  UNL     1      27.758  15.862  23.315  1.00  0.00    -0.348 OA
HETATM    4  C10 UNL     1      28.181  15.025  22.330  1.00  0.00     0.072 C 
HETATM    5  C11 UNL     1      29.342  15.623  21.570  1.00  0.00     0.047 C 
HETATM    6  C12 UNL     1      28.770  13.822  23.097  1.00  0.00     0.047 C 
HETATM    7  C13 UNL     1      27.165  14.479  21.410  1.00  0.00     0.114 C 
HETATM    8  C20 UNL     1      25.869  15.273  21.338  1.00  0.00     0.162 C 
ENDROOT
BRANCH   7   9
HETATM    9  S1  UNL     1      27.724  14.296  19.695  1.00  0.00    -0.126 SA
BRANCH   9  10
HETATM   10  C14 UNL     1      27.487  12.643  19.061  1.00  0.00     0.192 C 
HETATM   11  O4  UNL     1      26.164  12.227  19.078  1.00  0.00    -0.365 OA
HETATM   12  C15 UNL     1      25.624  12.542  17.838  1.00  0.00     0.175 C 
HETATM   13  C17 UNL     1      26.713  12.526  16.818  1.00  0.00     0.158 C 
HETATM   14  C18 UNL     1      27.968  12.486  17.642  1.00  0.00     0.080 C 
BRANCH  12  15
HETATM   15  C16 UNL     1      24.628  11.439  17.501  1.00  0.00     0.198 C 
BRANCH  15  16
HETATM   16  O5  UNL     1      23.541  11.953  16.794  1.00  0.00    -0.398 OA
ATOM     17  H5  UNL     1      23.834  12.462  16.048  1.00  0.00     0.209 HD
ENDBRANCH  15  16
ENDBRANCH  12  15
BRANCH  13  18
HETATM   18  O6  UNL     1      26.668  13.731  16.107  1.00  0.00    -0.392 OA
ATOM     19  H6  UNL     1      27.158  14.384  16.592  1.00  0.00     0.210 HD
ENDBRANCH  13  18
BRANCH  14  20
HETATM   20  C19 UNL     1      28.623  11.129  17.407  1.00  0.00     0.174 C 
BRANCH  20  21
HETATM   21  O7  UNL     1      28.773  10.528  18.660  1.00  0.00    -0.400 OA
ATOM     22  H7  UNL     1      29.312   9.757  18.533  1.00  0.00     0.209 HD
ENDBRANCH  20  21
ENDBRANCH  14  20
ENDBRANCH   9  10
ENDBRANCH   7   9
BRANCH   8  23
HETATM   23  O8  UNL     1      25.259  15.128  20.110  1.00  0.00    -0.392 OA
ATOM     24  H8  UNL     1      25.246  15.938  19.614  1.00  0.00     0.210 HD
ENDBRANCH   8  23
BRANCH   1  25
HETATM   25  N1  UNL     1      25.202  17.630  21.407  1.00  0.00    -0.349 N 
HETATM   26  C2  UNL     1      25.085  18.331  20.183  1.00  0.00     0.214 C 
HETATM   27  C1  UNL     1      23.951  19.264  20.009  1.00  0.00     0.117 C 
HETATM   28  O1  UNL     1      25.921  18.158  19.288  1.00  0.00    -0.274 OA
ATOM     29  H1  UNL     1      24.512  17.774  22.144  1.00  0.00     0.163 HD
ENDBRANCH   1  25
BRANCH   2  30
HETATM   30  O2  UNL     1      27.022  17.938  23.584  1.00  0.00    -0.352 OA
BRANCH  30  31
HETATM   31  C5  UNL     1      28.361  18.284  23.590  1.00  0.00     0.155 C 
HETATM   32  C6  UNL     1      28.729  19.234  22.498  1.00  0.00     0.034 C 
HETATM   33  C7  UNL     1      30.076  19.758  22.938  1.00  0.00     0.005 C 
HETATM   34  C8  UNL     1      29.811  20.022  24.414  1.00  0.00     0.035 C 
HETATM   35  C9  UNL     1      28.906  18.851  24.833  1.00  0.00     0.212 C 
BRANCH  35  36
HETATM   36  N2  UNL     1      29.783  17.937  25.548  1.00  0.00    -0.073 N 
ATOM     37  H23 UNL     1      29.449  17.787  26.500  1.00  0.00     0.274 HD
ATOM     38  H22 UNL     1      29.692  16.989  25.184  1.00  0.00     0.274 HD
ATOM     39  H21 UNL     1      30.761  18.232  25.551  1.00  0.00     0.274 HD
ENDBRANCH  35  36
ENDBRANCH  30  31
ENDBRANCH   2  30
TORSDOF 12
ENDMDL
MODEL 4
REMARK VINA RESULT: -6.749946167      2.876      3.727
REMARK  12 active torsions:
REMARK  status: ('A' for Active; 'I' for Inactive)
REMARK       I    between atoms: C2_2  and  N1_4 
REMARK    1  A    between atoms: N1_4  and  C3_6 
REMARK    2  A    between atoms: C4_7  and  O2_8 
REMARK    3  A    between atoms: O2_8  and  C5_9 
REMARK    4  A    between atoms: C9_13  and  N2_14 
REMARK    5  A    between atoms: C13_22  and  S1_23 
REMARK    6  A    between atoms: S1_23  and  C14_24 
REMARK    7  A    between atoms: C15_26  and  C16_27 
REMARK    8  A    between atoms: C16_27  and  O5_28 
REMARK    9  A    between atoms: C17_30  and  O6_31 
REMARK   10  A    between atoms: C18_33  and  C19_34 
REMARK   11  A    between atoms: C19_34  and  O7_35 
REMARK   12  A    between atoms: C20_37  and  O8_38 
ROOT
HETATM    1  C3  UNL     1      26.105  16.656  21.329  1.00  0.00     0.169 C 
HETATM    2  C4  UNL     1      26.584  16.850  22.738  1.00  0.00     0.286 C 
HETATM    3  O3  UNL     1      27.621  16.027  23.088  1.00  0.00    -0.348 OA
HETATM    4  C10 UNL     1      28.005  15.053  22.218  1.00  0.00     0.072 C 
HETATM    5  C11 UNL     1      29.146  15.522  21.347  1.00  0.00     0.047 C 
HETATM    6  C12 UNL     1      28.604  13.961  23.129  1.00  0.00     0.047 C 
HETATM    7  C13 UNL     1      26.953  14.399  21.416  1.00  0.00     0.114 C 
HETATM    8  C20 UNL     1      25.665  15.195  21.272  1.00  0.00     0.162 C 
ENDROOT
BRANCH   7   9
HETATM    9  S1  UNL     1      27.456  13.969  19.727  1.00  0.00    -0.126 SA
BRANCH   9  10
HETATM   10  C14 UNL     1      28.198  12.348  19.617  1.00  0.00     0.192 C 
HETATM   11  O4  UNL     1      27.865  11.662  18.458  1.00  0.00    -0.365 OA
HETATM   12  C15 UNL     1      28.857  11.937  17.525  1.00  0.00     0.175 C 
HETATM   13  C17 UNL     1      30.133  12.218  18.245  1.00  0.00     0.158 C 
HETATM   14  C18 UNL     1      29.703  12.389  19.674  1.00  0.00     0.080 C 
BRANCH  12  15
HETATM   15  C16 UNL     1      29.037  10.673  16.693  1.00  0.00     0.198 C 
BRANCH  15  16
HETATM   16  O5  UNL     1      28.441   9.579  17.320  1.00  0.00    -0.398 OA
ATOM     17  H5  UNL     1      29.099   8.956  17.607  1.00  0.00     0.209 HD
ENDBRANCH  15  16
ENDBRANCH  12  15
BRANCH  13  18
HETATM   18  O6  UNL     1      30.649  13.430  17.771  1.00  0.00    -0.392 OA
ATOM     19  H6  UNL     1      30.510  14.095  18.436  1.00  0.00     0.210 HD
ENDBRANCH  13  18
BRANCH  14  20
HETATM   20  C19 UNL     1      30.277  11.218  20.465  1.00  0.00     0.174 C 
BRANCH  20  21
HETATM   21  O7  UNL     1      29.594  10.073  20.048  1.00  0.00    -0.400 OA
ATOM     22  H7  UNL     1      30.106   9.327  20.337  1.00  0.00     0.209 HD
ENDBRANCH  20  21
ENDBRANCH  14  20
ENDBRANCH   9  10
ENDBRANCH   7   9
BRANCH   8  23
HETATM   23  O8  UNL     1      25.014  14.888  20.095  1.00  0.00    -0.392 OA
ATOM     24  H8  UNL     1      25.433  14.176  19.625  1.00  0.00     0.210 HD
ENDBRANCH   8  23
BRANCH   1  25
HETATM   25  N1  UNL     1      25.025  17.547  21.028  1.00  0.00    -0.349 N 
HETATM   26  C2  UNL     1      25.172  18.533  20.022  1.00  0.00     0.214 C 
HETATM   27  C1  UNL     1      24.033  19.433  19.742  1.00  0.00     0.117 C 
HETATM   28  O1  UNL     1      26.238  18.627  19.400  1.00  0.00    -0.274 OA
ATOM     29  H1  UNL     1      24.146  17.471  21.541  1.00  0.00     0.163 HD
ENDBRANCH   1  25
BRANCH   2  30
HETATM   30  O2  UNL     1      26.917  18.130  23.085  1.00  0.00    -0.352 OA
BRANCH  30  31
HETATM   31  C5  UNL     1      28.270  18.404  23.178  1.00  0.00     0.155 C 
HETATM   32  C6  UNL     1      28.741  19.395  22.165  1.00  0.00     0.034 C 
HETATM   33  C7  UNL     1      30.088  19.820  22.702  1.00  0.00     0.005 C 
HETATM   34  C8  UNL     1      29.760  20.010  24.176  1.00  0.00     0.035 C 
HETATM   35  C9  UNL     1      28.777  18.866  24.478  1.00  0.00     0.212 C 
BRANCH  35  36
HETATM   36  N2  UNL     1      29.568  17.867  25.178  1.00  0.00    -0.073 N 
ATOM     37  H23 UNL     1      29.036  17.005  25.300  1.00  0.00     0.274 HD
ATOM     38  H22 UNL     1      30.321  17.520  24.583  1.00  0.00     0.274 HD
ATOM     39  H21 UNL     1      29.936  18.194  26.072  1.00  0.00     0.274 HD
ENDBRANCH  35  36
ENDBRANCH  30  31
ENDBRANCH   2  30
TORSDOF 12
ENDMDL
MODEL 5
REMARK VINA RESULT: -6.607137863      1.153      1.421
REMARK  12 active torsions:
REMARK  status: ('A' for Active; 'I' for Inactive)
REMARK       I    between atoms: C2_2  and  N1_4 
REMARK    1  A    between atoms: N1_4  and  C3_6 
REMARK    2  A    between atoms: C4_7  and  O2_8 
REMARK    3  A    between atoms: O2_8  and  C5_9 
REMARK    4  A    between atoms: C9_13  and  N2_14 
REMARK    5  A    between atoms: C13_22  and  S1_23 
REMARK    6  A    between atoms: S1_23  and  C14_24 
REMARK    7  A    between atoms: C15_26  and  C16_27 
REMARK    8  A    between atoms: C16_27  and  O5_28 
REMARK    9  A    between atoms: C17_30  and  O6_31 
REMARK   10  A    between atoms: C18_33  and  C19_34 
REMARK   11  A    between atoms: C19_34  and  O7_35 
REMARK   12  A    between atoms: C20_37  and  O8_38 
ROOT
HETATM    1  C3  UNL     1      26.352  15.089  20.674  1.00  0.00     0.169 C 
HETATM    2  C4  UNL     1      27.349  14.819  21.763  1.00  0.00     0.286 C 
HETATM    3  O3  UNL     1      28.224  13.806  21.473  1.00  0.00    -0.348 OA
HETATM    4  C10 UNL     1      28.024  13.073  20.344  1.00  0.00     0.072 C 
HETATM    5  C11 UNL     1      28.837  13.617  19.193  1.00  0.00     0.047 C 
HETATM    6  C12 UNL     1      28.651  11.703  20.678  1.00  0.00     0.047 C 
HETATM    7  C13 UNL     1      26.631  12.808  19.937  1.00  0.00     0.114 C 
HETATM    8  C20 UNL     1      25.600  13.770  20.508  1.00  0.00     0.162 C 
ENDROOT
BRANCH   7   9
HETATM    9  S1  UNL     1      26.359  12.806  18.144  1.00  0.00    -0.126 SA
BRANCH   9  10
HETATM   10  C14 UNL     1      26.474  11.174  17.428  1.00  0.00     0.192 C 
HETATM   11  O4  UNL     1      25.349  10.804  16.705  1.00  0.00    -0.365 OA
HETATM   12  C15 UNL     1      25.583  11.160  15.383  1.00  0.00     0.175 C 
HETATM   13  C17 UNL     1      27.052  11.123  15.124  1.00  0.00     0.158 C 
HETATM   14  C18 UNL     1      27.650  11.024  16.499  1.00  0.00     0.080 C 
BRANCH  12  15
HETATM   15  C16 UNL     1      24.911  10.098  14.519  1.00  0.00     0.198 C 
BRANCH  15  16
HETATM   16  O5  UNL     1      25.813   9.085  14.191  1.00  0.00    -0.398 OA
ATOM     17  H5  UNL     1      25.734   8.356  14.794  1.00  0.00     0.209 HD
ENDBRANCH  15  16
ENDBRANCH  12  15
BRANCH  13  18
HETATM   18  O6  UNL     1      27.428  12.341  14.545  1.00  0.00    -0.392 OA
ATOM     19  H6  UNL     1      26.697  12.944  14.613  1.00  0.00     0.210 HD
ENDBRANCH  13  18
BRANCH  14  20
HETATM   20  C19 UNL     1      28.299   9.649  16.614  1.00  0.00     0.174 C 
BRANCH  20  21
HETATM   21  O7  UNL     1      27.262   8.720  16.732  1.00  0.00    -0.400 OA
ATOM     22  H7  UNL     1      26.954   8.537  15.852  1.00  0.00     0.209 HD
ENDBRANCH  20  21
ENDBRANCH  14  20
ENDBRANCH   9  10
ENDBRANCH   7   9
BRANCH   8  23
HETATM   23  O8  UNL     1      24.508  13.888  19.674  1.00  0.00    -0.392 OA
ATOM     24  H8  UNL     1      23.917  14.582  19.946  1.00  0.00     0.210 HD
ENDBRANCH   8  23
BRANCH   1  25
HETATM   25  N1  UNL     1      25.471  16.158  21.039  1.00  0.00    -0.349 N 
HETATM   26  C2  UNL     1      25.498  17.380  20.324  1.00  0.00     0.214 C 
HETATM   27  C1  UNL     1      24.573  18.458  20.732  1.00  0.00     0.117 C 
HETATM   28  O1  UNL     1      26.284  17.526  19.379  1.00  0.00    -0.274 OA
ATOM     29  H1  UNL     1      24.823  16.039  21.818  1.00  0.00     0.163 HD
ENDBRANCH   1  25
BRANCH   2  30
HETATM   30  O2  UNL     1      28.070  15.899  22.192  1.00  0.00    -0.352 OA
BRANCH  30  31
HETATM   31  C5  UNL     1      28.681  15.771  23.426  1.00  0.00     0.155 C 
HETATM   32  C6  UNL     1      29.736  16.800  23.670  1.00  0.00     0.034 C 
HETATM   33  C7  UNL     1      29.958  16.717  25.163  1.00  0.00     0.005 C 
HETATM   34  C8  UNL     1      28.521  16.653  25.661  1.00  0.00     0.035 C 
HETATM   35  C9  UNL     1      27.814  15.777  24.614  1.00  0.00     0.212 C 
BRANCH  35  36
HETATM   36  N2  UNL     1      27.684  14.472  25.241  1.00  0.00    -0.073 N 
ATOM     37  H23 UNL     1      28.199  13.765  24.716  1.00  0.00     0.274 HD
ATOM     38  H22 UNL     1      28.202  14.441  26.120  1.00  0.00     0.274 HD
ATOM     39  H21 UNL     1      26.715  14.184  25.382  1.00  0.00     0.274 HD
ENDBRANCH  35  36
ENDBRANCH  30  31
ENDBRANCH   2  30
TORSDOF 12
ENDMDL
