MODEL 1
REMARK VINA RESULT: -6.694445384      0.000      0.000
REMARK  15 active torsions:
REMARK  status: ('A' for Active; 'I' for Inactive)
REMARK    1  A    between atoms: N1_1  and  C1_4 
REMARK    2  A    between atoms: N5_15  and  C5_16 
REMARK    3  A    between atoms: C5_16  and  C6_17 
REMARK    4  A    between atoms: C7_18  and  C8_19 
REMARK    5  A    between atoms: C8_19  and  C9_20 
REMARK    6  A    between atoms: C9_20  and  N6_21 
REMARK       I    between atoms: N6_21  and  C10_23 
REMARK    7  A    between atoms: C10_23  and  C11_25 
REMARK    8  A    between atoms: C11_25  and  O2_26 
REMARK    9  A    between atoms: C11_25  and  C12_28 
REMARK   10  A    between atoms: C11_25  and  C16_41 
REMARK   11  A    between atoms: C12_28  and  N7_29 
REMARK   12  A    between atoms: C14_31  and  N8_32 
REMARK   13  A    between atoms: C16_41  and  N13_42 
REMARK   14  A    between atoms: C16_41  and  C17_46 
REMARK   15  A    between atoms: C17_46  and  N14_47 
ROOT
HETATM    1  N6  UNL     1       9.511   4.745  -5.174  1.00  0.00    -0.358 N 
ATOM      2  H6  UNL     1      10.136   4.258  -4.532  1.00  0.00     0.162 HD
HETATM    3  C10 UNL     1       9.805   6.058  -5.590  1.00  0.00     0.255 C 
HETATM    4  O1  UNL     1       9.031   6.644  -6.381  1.00  0.00    -0.270 OA
ENDROOT
BRANCH   3   5
HETATM    5  C11 UNL     1      11.068   6.725  -5.055  1.00  0.00     0.180 C 
BRANCH   5   6
HETATM    6  O2  UNL     1      11.825   7.021  -6.231  1.00  0.00    -0.377 OA
ATOM      7  H2  UNL     1      12.726   7.013  -5.930  1.00  0.00     0.211 HD
ENDBRANCH   5   6
BRANCH   5   8
HETATM    8  C12 UNL     1      11.833   5.753  -4.252  1.00  0.00     0.159 C 
BRANCH   8   9
HETATM    9  N7  UNL     1      11.668   5.742  -2.842  1.00  0.00    -0.226 NA
HETATM   10  C13 UNL     1      12.460   4.620  -2.297  1.00  0.00     0.157 C 
HETATM   11  C14 UNL     1      11.169   3.888  -2.111  1.00  0.00     0.246 C 
HETATM   12  N12 UNL     1      10.556   5.157  -2.285  1.00  0.00    -0.135 NA
BRANCH  11  13
HETATM   13  N8  UNL     1      10.959   3.360  -0.769  1.00  0.00    -0.191 N 
HETATM   14  N9  UNL     1      11.697   2.404  -0.230  1.00  0.00     0.002 NA
HETATM   15  N10 UNL     1      11.227   2.172   0.998  1.00  0.00    -0.233 N 
HETATM   16  C15 UNL     1      10.172   3.011   1.213  1.00  0.00     0.353 A 
ATOM     17  H10 UNL     1      11.593   1.487   1.660  1.00  0.00     0.189 HD
HETATM   18  O3  UNL     1       9.451   3.115   2.239  1.00  0.00    -0.244 OA
HETATM   19  N11 UNL     1      10.029   3.742   0.089  1.00  0.00    -0.234 N 
ATOM     20  H11 UNL     1       9.325   4.464  -0.071  1.00  0.00     0.193 HD
ENDBRANCH  11  13
ENDBRANCH   8   9
ENDBRANCH   5   8
BRANCH   5  21
HETATM   21  C16 UNL     1      10.704   8.032  -4.475  1.00  0.00     0.253 C 
BRANCH  21  22
HETATM   22  N13 UNL     1       9.468   8.002  -3.695  1.00  0.00    -0.070 N 
ATOM     23 3H13 UNL     1       9.484   7.235  -3.022  1.00  0.00     0.274 HD
ATOM     24 2H13 UNL     1       9.429   8.793  -3.052  1.00  0.00     0.274 HD
ATOM     25 1H13 UNL     1       8.625   7.962  -4.268  1.00  0.00     0.274 HD
ENDBRANCH  21  22
BRANCH  21  26
HETATM   26  C17 UNL     1      10.731   9.216  -5.398  1.00  0.00     0.266 C 
BRANCH  26  27
HETATM   27  N14 UNL     1       9.348   9.743  -5.388  1.00  0.00    -0.077 N 
ATOM     28 3H14 UNL     1       8.878   9.687  -6.291  1.00  0.00     0.274 HD
ATOM     29 2H14 UNL     1       8.687   9.158  -4.877  1.00  0.00     0.274 HD
ATOM     30 1H14 UNL     1       9.428  10.692  -5.022  1.00  0.00     0.274 HD
ENDBRANCH  26  27
ENDBRANCH  21  26
ENDBRANCH   5  21
ENDBRANCH   3   5
BRANCH   1  31
HETATM   31  C9  UNL     1       8.317   4.091  -5.662  1.00  0.00     0.126 C 
BRANCH  31  32
HETATM   32  C8  UNL     1       7.230   4.092  -4.669  1.00  0.00     0.047 C 
BRANCH  32  33
HETATM   33  C7  UNL     1       5.953   3.497  -5.013  1.00  0.00    -0.024 C 
HETATM   34  C6  UNL     1       5.529   2.137  -4.990  1.00  0.00     0.014 C 
BRANCH  34  35
HETATM   35  C5  UNL     1       5.312   1.155  -3.965  1.00  0.00     0.099 C 
BRANCH  35  36
HETATM   36  N5  UNL     1       6.309   0.434  -3.267  1.00  0.00    -0.302 N 
HETATM   37  C4  UNL     1       7.124  -0.573  -3.674  1.00  0.00     0.190 A 
HETATM   38  N4  UNL     1       7.998  -0.878  -2.715  1.00  0.00    -0.346 N 
HETATM   39  C3  UNL     1       7.796  -0.090  -1.646  1.00  0.00     0.123 A 
ATOM     40  H4  UNL     1       8.714  -1.601  -2.783  1.00  0.00     0.167 HD
HETATM   41  C2  UNL     1       8.423  -0.012  -0.423  1.00  0.00     0.145 A 
HETATM   42  C18 UNL     1       6.745   0.720  -1.998  1.00  0.00     0.159 A 
HETATM   43  N2  UNL     1       7.974   0.904   0.449  1.00  0.00    -0.175 N 
HETATM   44  N3  UNL     1       9.405  -0.759  -0.076  1.00  0.00    -0.383 N 
HETATM   45  C1  UNL     1       6.928   1.711   0.100  1.00  0.00     0.679 A 
ATOM     46  H2  UNL     1       8.409   0.997   1.366  1.00  0.00     0.186 HD
HETATM   47  N15 UNL     1       6.329   1.617  -1.102  1.00  0.00    -0.174 N 
ATOM     48  H15 UNL     1       5.551   2.236  -1.329  1.00  0.00     0.186 HD
ATOM     49  H32 UNL     1       9.869  -0.702   0.831  1.00  0.00     0.157 HD
ATOM     50  H31 UNL     1       9.746  -1.455  -0.739  1.00  0.00     0.157 HD
BRANCH  45  51
HETATM   51  N1  UNL     1       6.517   2.582   0.959  1.00  0.00    -0.234 N 
ATOM     52  H12 UNL     1       7.193   3.129   1.493  1.00  0.00     0.174 HD
ATOM     53  H11 UNL     1       5.511   2.701   1.082  1.00  0.00     0.174 HD
ENDBRANCH  45  51
ENDBRANCH  35  36
ENDBRANCH  34  35
ENDBRANCH  32  33
ENDBRANCH  31  32
ENDBRANCH   1  31
TORSDOF 15
ENDMDL
MODEL 2
REMARK VINA RESULT: -6.587398790      2.118      5.006
REMARK  15 active torsions:
REMARK  status: ('A' for Active; 'I' for Inactive)
REMARK    1  A    between atoms: N1_1  and  C1_4 
REMARK    2  A    between atoms: N5_15  and  C5_16 
REMARK    3  A    between atoms: C5_16  and  C6_17 
REMARK    4  A    between atoms: C7_18  and  C8_19 
REMARK    5  A    between atoms: C8_19  and  C9_20 
REMARK    6  A    between atoms: C9_20  and  N6_21 
REMARK       I    between atoms: N6_21  and  C10_23 
REMARK    7  A    between atoms: C10_23  and  C11_25 
REMARK    8  A    between atoms: C11_25  and  O2_26 
REMARK    9  A    between atoms: C11_25  and  C12_28 
REMARK   10  A    between atoms: C11_25  and  C16_41 
REMARK   11  A    between atoms: C12_28  and  N7_29 
REMARK   12  A    between atoms: C14_31  and  N8_32 
REMARK   13  A    between atoms: C16_41  and  N13_42 
REMARK   14  A    between atoms: C16_41  and  C17_46 
REMARK   15  A    between atoms: C17_46  and  N14_47 
ROOT
HETATM    1  N6  UNL     1      11.735   6.502  -3.807  1.00  0.00    -0.358 N 
ATOM      2  H6  UNL     1      11.377   5.652  -4.242  1.00  0.00     0.162 HD
HETATM    3  C10 UNL     1      11.096   7.737  -4.035  1.00  0.00     0.255 C 
HETATM    4  O1  UNL     1      11.543   8.773  -3.491  1.00  0.00    -0.270 OA
ENDROOT
BRANCH   3   5
HETATM    5  C11 UNL     1       9.874   7.766  -4.945  1.00  0.00     0.180 C 
BRANCH   5   6
HETATM    6  O2  UNL     1       8.867   8.393  -4.148  1.00  0.00    -0.377 OA
ATOM      7  H2  UNL     1       9.359   8.868  -3.489  1.00  0.00     0.211 HD
ENDBRANCH   5   6
BRANCH   5   8
HETATM    8  C12 UNL     1       9.439   6.386  -5.228  1.00  0.00     0.159 C 
BRANCH   8   9
HETATM    9  N7  UNL     1       8.817   5.634  -4.197  1.00  0.00    -0.226 NA
HETATM   10  C13 UNL     1       8.826   4.212  -4.597  1.00  0.00     0.157 C 
HETATM   11  C14 UNL     1       7.368   4.359  -4.900  1.00  0.00     0.246 C 
HETATM   12  N12 UNL     1       7.447   5.553  -4.136  1.00  0.00    -0.135 NA
BRANCH  11  13
HETATM   13  N8  UNL     1       6.514   3.362  -4.268  1.00  0.00    -0.191 N 
HETATM   14  N9  UNL     1       5.259   3.139  -4.617  1.00  0.00     0.002 NA
HETATM   15  N10 UNL     1       4.785   2.166  -3.835  1.00  0.00    -0.233 N 
HETATM   16  C15 UNL     1       5.782   1.785  -2.984  1.00  0.00     0.353 A 
ATOM     17  H10 UNL     1       3.843   1.776  -3.868  1.00  0.00     0.189 HD
HETATM   18  O3  UNL     1       5.752   0.900  -2.090  1.00  0.00    -0.244 OA
HETATM   19  N11 UNL     1       6.852   2.551  -3.279  1.00  0.00    -0.234 N 
ATOM     20  H11 UNL     1       7.762   2.512  -2.820  1.00  0.00     0.193 HD
ENDBRANCH  11  13
ENDBRANCH   8   9
ENDBRANCH   5   8
BRANCH   5  21
HETATM   21  C16 UNL     1      10.135   8.696  -6.060  1.00  0.00     0.253 C 
BRANCH  21  22
HETATM   22  N13 UNL     1      11.557   8.881  -6.347  1.00  0.00    -0.070 N 
ATOM     23 3H13 UNL     1      11.746   9.842  -6.632  1.00  0.00     0.274 HD
ATOM     24 2H13 UNL     1      12.106   8.847  -5.488  1.00  0.00     0.274 HD
ATOM     25 1H13 UNL     1      11.923   8.222  -7.035  1.00  0.00     0.274 HD
ENDBRANCH  21  22
BRANCH  21  26
HETATM   26  C17 UNL     1       9.417  10.014  -6.028  1.00  0.00     0.266 C 
BRANCH  26  27
HETATM   27  N14 UNL     1      10.357  10.949  -5.370  1.00  0.00    -0.077 N 
ATOM     28 3H14 UNL     1       9.909  11.598  -4.723  1.00  0.00     0.274 HD
ATOM     29 2H14 UNL     1      10.968  10.506  -4.684  1.00  0.00     0.274 HD
ATOM     30 1H14 UNL     1      10.856  11.406  -6.134  1.00  0.00     0.274 HD
ENDBRANCH  26  27
ENDBRANCH  21  26
ENDBRANCH   5  21
ENDBRANCH   3   5
BRANCH   1  31
HETATM   31  C9  UNL     1      12.900   6.447  -2.951  1.00  0.00     0.126 C 
BRANCH  31  32
HETATM   32  C8  UNL     1      12.611   5.823  -1.650  1.00  0.00     0.047 C 
BRANCH  32  33
HETATM   33  C7  UNL     1      12.717   4.384  -1.512  1.00  0.00    -0.024 C 
HETATM   34  C6  UNL     1      12.966   3.579  -0.364  1.00  0.00     0.014 C 
BRANCH  34  35
HETATM   35  C5  UNL     1      12.256   3.289   0.851  1.00  0.00     0.099 C 
BRANCH  35  36
HETATM   36  N5  UNL     1      11.067   2.532   0.970  1.00  0.00    -0.302 N 
HETATM   37  C4  UNL     1      10.824   1.357   1.606  1.00  0.00     0.190 A 
HETATM   38  N4  UNL     1       9.525   1.066   1.559  1.00  0.00    -0.346 N 
HETATM   39  C3  UNL     1       8.864   2.029   0.896  1.00  0.00     0.123 A 
ATOM     40  H4  UNL     1       9.096   0.235   1.966  1.00  0.00     0.167 HD
HETATM   41  C2  UNL     1       7.534   2.191   0.584  1.00  0.00     0.145 A 
HETATM   42  C18 UNL     1       9.831   2.935   0.535  1.00  0.00     0.159 A 
HETATM   43  N2  UNL     1       7.185   3.289  -0.104  1.00  0.00    -0.175 N 
HETATM   44  N3  UNL     1       6.617   1.357   0.913  1.00  0.00    -0.383 N 
HETATM   45  C1  UNL     1       8.146   4.191  -0.466  1.00  0.00     0.679 A 
ATOM     46  H2  UNL     1       6.210   3.449  -0.356  1.00  0.00     0.186 HD
HETATM   47  N15 UNL     1       9.442   4.013  -0.149  1.00  0.00    -0.174 N 
ATOM     48  H15 UNL     1      10.133   4.707  -0.435  1.00  0.00     0.186 HD
ATOM     49  H32 UNL     1       5.631   1.477   0.681  1.00  0.00     0.157 HD
ATOM     50  H31 UNL     1       6.882   0.522   1.436  1.00  0.00     0.157 HD
BRANCH  45  51
HETATM   51  N1  UNL     1       7.781   5.238  -1.127  1.00  0.00    -0.234 N 
ATOM     52  H12 UNL     1       6.839   5.294  -1.512  1.00  0.00     0.174 HD
ATOM     53  H11 UNL     1       8.459   5.991  -1.249  1.00  0.00     0.174 HD
ENDBRANCH  45  51
ENDBRANCH  35  36
ENDBRANCH  34  35
ENDBRANCH  32  33
ENDBRANCH  31  32
ENDBRANCH   1  31
TORSDOF 15
ENDMDL
MODEL 3
REMARK VINA RESULT: -6.579025351      2.371      6.097
REMARK  15 active torsions:
REMARK  status: ('A' for Active; 'I' for Inactive)
REMARK    1  A    between atoms: N1_1  and  C1_4 
REMARK    2  A    between atoms: N5_15  and  C5_16 
REMARK    3  A    between atoms: C5_16  and  C6_17 
REMARK    4  A    between atoms: C7_18  and  C8_19 
REMARK    5  A    between atoms: C8_19  and  C9_20 
REMARK    6  A    between atoms: C9_20  and  N6_21 
REMARK       I    between atoms: N6_21  and  C10_23 
REMARK    7  A    between atoms: C10_23  and  C11_25 
REMARK    8  A    between atoms: C11_25  and  O2_26 
REMARK    9  A    between atoms: C11_25  and  C12_28 
REMARK   10  A    between atoms: C11_25  and  C16_41 
REMARK   11  A    between atoms: C12_28  and  N7_29 
REMARK   12  A    between atoms: C14_31  and  N8_32 
REMARK   13  A    between atoms: C16_41  and  N13_42 
REMARK   14  A    between atoms: C16_41  and  C17_46 
REMARK   15  A    between atoms: C17_46  and  N14_47 
ROOT
HETATM    1  N6  UNL     1      11.391   3.050  -2.259  1.00  0.00    -0.358 N 
ATOM      2  H6  UNL     1      11.270   3.077  -3.271  1.00  0.00     0.162 HD
HETATM    3  C10 UNL     1      11.464   4.247  -1.522  1.00  0.00     0.255 C 
HETATM    4  O1  UNL     1      11.609   4.200  -0.278  1.00  0.00    -0.270 OA
ENDROOT
BRANCH   3   5
HETATM    5  C11 UNL     1      11.363   5.571  -2.272  1.00  0.00     0.180 C 
BRANCH   5   6
HETATM    6  O2  UNL     1      10.455   6.344  -1.484  1.00  0.00    -0.377 OA
ATOM      7  H2  UNL     1      10.893   6.427  -0.645  1.00  0.00     0.211 HD
ENDBRANCH   5   6
BRANCH   5   8
HETATM    8  C12 UNL     1      10.742   5.341  -3.590  1.00  0.00     0.159 C 
BRANCH   8   9
HETATM    9  N7  UNL     1       9.691   6.196  -4.015  1.00  0.00    -0.226 NA
HETATM   10  C13 UNL     1       9.860   6.445  -5.461  1.00  0.00     0.157 C 
HETATM   11  C14 UNL     1      10.361   7.808  -5.098  1.00  0.00     0.246 C 
HETATM   12  N12 UNL     1       9.788   7.553  -3.824  1.00  0.00    -0.135 NA
BRANCH  11  13
HETATM   13  N8  UNL     1       9.691   8.903  -5.788  1.00  0.00    -0.191 N 
HETATM   14  N9  UNL     1       9.604   9.001  -7.103  1.00  0.00     0.002 NA
HETATM   15  N10 UNL     1       8.931  10.119  -7.384  1.00  0.00    -0.233 N 
HETATM   16  C15 UNL     1       8.597  10.719  -6.204  1.00  0.00     0.353 A 
ATOM     17  H10 UNL     1       8.704  10.464  -8.317  1.00  0.00     0.189 HD
HETATM   18  O3  UNL     1       7.961  11.789  -6.023  1.00  0.00    -0.244 OA
HETATM   19  N11 UNL     1       9.087   9.935  -5.223  1.00  0.00    -0.234 N 
ATOM     20  H11 UNL     1       9.006  10.107  -4.221  1.00  0.00     0.193 HD
ENDBRANCH  11  13
ENDBRANCH   8   9
ENDBRANCH   5   8
BRANCH   5  21
HETATM   21  C16 UNL     1      12.660   6.266  -2.183  1.00  0.00     0.253 C 
BRANCH  21  22
HETATM   22  N13 UNL     1      13.757   5.405  -1.741  1.00  0.00    -0.070 N 
ATOM     23 3H13 UNL     1      14.640   5.916  -1.745  1.00  0.00     0.274 HD
ATOM     24 2H13 UNL     1      13.679   5.206  -0.744  1.00  0.00     0.274 HD
ATOM     25 1H13 UNL     1      13.837   4.541  -2.277  1.00  0.00     0.274 HD
ENDBRANCH  21  22
BRANCH  21  26
HETATM   26  C17 UNL     1      12.679   7.579  -1.454  1.00  0.00     0.266 C 
BRANCH  26  27
HETATM   27  N14 UNL     1      12.721   7.222  -0.018  1.00  0.00    -0.077 N 
ATOM     28 3H14 UNL     1      11.889   6.731   0.309  1.00  0.00     0.274 HD
ATOM     29 2H14 UNL     1      13.387   6.482   0.204  1.00  0.00     0.274 HD
ATOM     30 1H14 UNL     1      12.901   8.100   0.469  1.00  0.00     0.274 HD
ENDBRANCH  26  27
ENDBRANCH  21  26
ENDBRANCH   5  21
ENDBRANCH   3   5
BRANCH   1  31
HETATM   31  C9  UNL     1      11.489   1.780  -1.572  1.00  0.00     0.126 C 
BRANCH  31  32
HETATM   32  C8  UNL     1      11.058   0.652  -2.413  1.00  0.00     0.047 C 
BRANCH  32  33
HETATM   33  C7  UNL     1      10.193  -0.366  -1.848  1.00  0.00    -0.024 C 
HETATM   34  C6  UNL     1       9.536  -0.426  -0.586  1.00  0.00     0.014 C 
BRANCH  34  35
HETATM   35  C5  UNL     1       8.488   0.319   0.054  1.00  0.00     0.099 C 
BRANCH  35  36
HETATM   36  N5  UNL     1       8.327   1.724   0.041  1.00  0.00    -0.302 N 
HETATM   37  C4  UNL     1       8.613   2.658   0.985  1.00  0.00     0.190 A 
HETATM   38  N4  UNL     1       8.407   3.882   0.501  1.00  0.00    -0.346 N 
HETATM   39  C3  UNL     1       7.981   3.805  -0.771  1.00  0.00     0.123 A 
ATOM     40  H4  UNL     1       8.552   4.749   1.019  1.00  0.00     0.167 HD
HETATM   41  C2  UNL     1       7.637   4.770  -1.691  1.00  0.00     0.145 A 
HETATM   42  C18 UNL     1       7.934   2.461  -1.046  1.00  0.00     0.159 A 
HETATM   43  N2  UNL     1       7.242   4.358  -2.905  1.00  0.00    -0.175 N 
HETATM   44  N3  UNL     1       7.674   6.029  -1.452  1.00  0.00    -0.383 N 
HETATM   45  C1  UNL     1       7.194   3.021  -3.181  1.00  0.00     0.679 A 
ATOM     46  H2  UNL     1       6.979   5.038  -3.618  1.00  0.00     0.186 HD
HETATM   47  N15 UNL     1       7.535   2.094  -2.266  1.00  0.00    -0.174 N 
ATOM     48  H15 UNL     1       7.488   1.104  -2.506  1.00  0.00     0.186 HD
ATOM     49  H32 UNL     1       7.419   6.743  -2.134  1.00  0.00     0.157 HD
ATOM     50  H31 UNL     1       7.974   6.342  -0.529  1.00  0.00     0.157 HD
BRANCH  45  51
HETATM   51  N1  UNL     1       6.811   2.654  -4.358  1.00  0.00    -0.234 N 
ATOM     52  H12 UNL     1       7.324   2.967  -5.181  1.00  0.00     0.174 HD
ATOM     53  H11 UNL     1       5.990   2.053  -4.432  1.00  0.00     0.174 HD
ENDBRANCH  45  51
ENDBRANCH  35  36
ENDBRANCH  34  35
ENDBRANCH  32  33
ENDBRANCH  31  32
ENDBRANCH   1  31
TORSDOF 15
ENDMDL
MODEL 4
REMARK VINA RESULT: -6.556963049      2.591      6.528
REMARK  15 active torsions:
REMARK  status: ('A' for Active; 'I' for Inactive)
REMARK    1  A    between atoms: N1_1  and  C1_4 
REMARK    2  A    between atoms: N5_15  and  C5_16 
REMARK    3  A    between atoms: C5_16  and  C6_17 
REMARK    4  A    between atoms: C7_18  and  C8_19 
REMARK    5  A    between atoms: C8_19  and  C9_20 
REMARK    6  A    between atoms: C9_20  and  N6_21 
REMARK       I    between atoms: N6_21  and  C10_23 
REMARK    7  A    between atoms: C10_23  and  C11_25 
REMARK    8  A    between atoms: C11_25  and  O2_26 
REMARK    9  A    between atoms: C11_25  and  C12_28 
REMARK   10  A    between atoms: C11_25  and  C16_41 
REMARK   11  A    between atoms: C12_28  and  N7_29 
REMARK   12  A    between atoms: C14_31  and  N8_32 
REMARK   13  A    between atoms: C16_41  and  N13_42 
REMARK   14  A    between atoms: C16_41  and  C17_46 
REMARK   15  A    between atoms: C17_46  and  N14_47 
ROOT
HETATM    1  N6  UNL     1      10.285   0.885  -2.748  1.00  0.00    -0.358 N 
ATOM      2  H6  UNL     1      10.104   1.880  -2.881  1.00  0.00     0.162 HD
HETATM    3  C10 UNL     1       9.368  -0.072  -3.224  1.00  0.00     0.255 C 
HETATM    4  O1  UNL     1       9.603  -1.291  -3.058  1.00  0.00    -0.270 OA
ENDROOT
BRANCH   3   5
HETATM    5  C11 UNL     1       8.109   0.417  -3.932  1.00  0.00     0.180 C 
BRANCH   5   6
HETATM    6  O2  UNL     1       7.738  -0.679  -4.771  1.00  0.00    -0.377 OA
ATOM      7  H2  UNL     1       7.768  -0.316  -5.648  1.00  0.00     0.211 HD
ENDBRANCH   5   6
BRANCH   5   8
HETATM    8  C12 UNL     1       8.446   1.561  -4.799  1.00  0.00     0.159 C 
BRANCH   8   9
HETATM    9  N7  UNL     1       8.417   2.872  -4.254  1.00  0.00    -0.226 NA
HETATM   10  C13 UNL     1       7.977   3.800  -5.315  1.00  0.00     0.157 C 
HETATM   11  C14 UNL     1       9.402   4.245  -5.421  1.00  0.00     0.246 C 
HETATM   12  N12 UNL     1       9.575   3.606  -4.165  1.00  0.00    -0.135 NA
BRANCH  11  13
HETATM   13  N8  UNL     1       9.595   5.687  -5.330  1.00  0.00    -0.191 N 
HETATM   14  N9  UNL     1       9.174   6.545  -6.244  1.00  0.00     0.002 NA
HETATM   15  N10 UNL     1       9.519   7.770  -5.841  1.00  0.00    -0.233 N 
HETATM   16  C15 UNL     1      10.169   7.654  -4.646  1.00  0.00     0.353 A 
ATOM     17  H10 UNL     1       9.330   8.640  -6.338  1.00  0.00     0.189 HD
HETATM   18  O3  UNL     1      10.656   8.566  -3.928  1.00  0.00    -0.244 OA
HETATM   19  N11 UNL     1      10.201   6.338  -4.353  1.00  0.00    -0.234 N 
ATOM     20  H11 UNL     1      10.619   5.919  -3.522  1.00  0.00     0.193 HD
ENDBRANCH  11  13
ENDBRANCH   8   9
ENDBRANCH   5   8
BRANCH   5  21
HETATM   21  C16 UNL     1       7.025   0.543  -2.938  1.00  0.00     0.253 C 
BRANCH  21  22
HETATM   22  N13 UNL     1       7.012  -0.532  -1.947  1.00  0.00    -0.070 N 
ATOM     23 3H13 UNL     1       6.698  -1.407  -2.369  1.00  0.00     0.274 HD
ATOM     24 2H13 UNL     1       7.963  -0.798  -1.691  1.00  0.00     0.274 HD
ATOM     25 1H13 UNL     1       6.462  -0.314  -1.117  1.00  0.00     0.274 HD
ENDBRANCH  21  22
BRANCH  21  26
HETATM   26  C17 UNL     1       5.645   0.804  -3.468  1.00  0.00     0.266 C 
BRANCH  26  27
HETATM   27  N14 UNL     1       5.375   2.226  -3.155  1.00  0.00    -0.077 N 
ATOM     28 3H14 UNL     1       4.467   2.555  -3.481  1.00  0.00     0.274 HD
ATOM     29 2H14 UNL     1       5.217   2.407  -2.164  1.00  0.00     0.274 HD
ATOM     30 1H14 UNL     1       6.166   2.739  -3.547  1.00  0.00     0.274 HD
ENDBRANCH  26  27
ENDBRANCH  21  26
ENDBRANCH   5  21
ENDBRANCH   3   5
BRANCH   1  31
HETATM   31  C9  UNL     1      11.485   0.448  -2.069  1.00  0.00     0.126 C 
BRANCH  31  32
HETATM   32  C8  UNL     1      12.682   1.175  -2.522  1.00  0.00     0.047 C 
BRANCH  32  33
HETATM   33  C7  UNL     1      13.504   1.868  -1.548  1.00  0.00    -0.024 C 
HETATM   34  C6  UNL     1      13.224   3.011  -0.746  1.00  0.00     0.014 C 
BRANCH  34  35
HETATM   35  C5  UNL     1      12.320   3.303   0.332  1.00  0.00     0.099 C 
BRANCH  35  36
HETATM   36  N5  UNL     1      11.112   2.627   0.623  1.00  0.00    -0.302 N 
HETATM   37  C4  UNL     1      10.852   1.605   1.478  1.00  0.00     0.190 A 
HETATM   38  N4  UNL     1       9.543   1.358   1.519  1.00  0.00    -0.346 N 
HETATM   39  C3  UNL     1       8.893   2.201   0.699  1.00  0.00     0.123 A 
ATOM     40  H4  UNL     1       9.100   0.637   2.088  1.00  0.00     0.167 HD
HETATM   41  C2  UNL     1       7.559   2.349   0.394  1.00  0.00     0.145 A 
HETATM   42  C18 UNL     1       9.877   2.984   0.147  1.00  0.00     0.159 A 
HETATM   43  N2  UNL     1       7.225   3.308  -0.484  1.00  0.00    -0.175 N 
HETATM   44  N3  UNL     1       6.627   1.628   0.898  1.00  0.00    -0.383 N 
HETATM   45  C1  UNL     1       8.202   4.088  -1.035  1.00  0.00     0.679 A 
ATOM     46  H2  UNL     1       6.249   3.453  -0.739  1.00  0.00     0.186 HD
HETATM   47  N15 UNL     1       9.502   3.926  -0.721  1.00  0.00    -0.174 N 
ATOM     48  H15 UNL     1      10.205   4.526  -1.151  1.00  0.00     0.186 HD
ATOM     49  H32 UNL     1       5.639   1.738   0.671  1.00  0.00     0.157 HD
ATOM     50  H31 UNL     1       6.881   0.900   1.565  1.00  0.00     0.157 HD
BRANCH  45  51
HETATM   51  N1  UNL     1       7.852   5.002  -1.876  1.00  0.00    -0.234 N 
ATOM     52  H12 UNL     1       6.864   5.202  -2.028  1.00  0.00     0.174 HD
ATOM     53  H11 UNL     1       8.586   5.506  -2.374  1.00  0.00     0.174 HD
ENDBRANCH  45  51
ENDBRANCH  35  36
ENDBRANCH  34  35
ENDBRANCH  32  33
ENDBRANCH  31  32
ENDBRANCH   1  31
TORSDOF 15
ENDMDL
MODEL 5
REMARK VINA RESULT: -6.528302321      2.504      5.396
REMARK  15 active torsions:
REMARK  status: ('A' for Active; 'I' for Inactive)
REMARK    1  A    between atoms: N1_1  and  C1_4 
REMARK    2  A    between atoms: N5_15  and  C5_16 
REMARK    3  A    between atoms: C5_16  and  C6_17 
REMARK    4  A    between atoms: C7_18  and  C8_19 
REMARK    5  A    between atoms: C8_19  and  C9_20 
REMARK    6  A    between atoms: C9_20  and  N6_21 
REMARK       I    between atoms: N6_21  and  C10_23 
REMARK    7  A    between atoms: C10_23  and  C11_25 
REMARK    8  A    between atoms: C11_25  and  O2_26 
REMARK    9  A    between atoms: C11_25  and  C12_28 
REMARK   10  A    between atoms: C11_25  and  C16_41 
REMARK   11  A    between atoms: C12_28  and  N7_29 
REMARK   12  A    between atoms: C14_31  and  N8_32 
REMARK   13  A    between atoms: C16_41  and  N13_42 
REMARK   14  A    between atoms: C16_41  and  C17_46 
REMARK   15  A    between atoms: C17_46  and  N14_47 
ROOT
HETATM    1  N6  UNL     1      11.239   5.013  -2.493  1.00  0.00    -0.358 N 
ATOM      2  H6  UNL     1      11.264   4.398  -3.307  1.00  0.00     0.162 HD
HETATM    3  C10 UNL     1      10.528   6.227  -2.545  1.00  0.00     0.255 C 
HETATM    4  O1  UNL     1      10.501   6.971  -1.538  1.00  0.00    -0.270 OA
ENDROOT
BRANCH   3   5
HETATM    5  C11 UNL     1       9.811   6.596  -3.839  1.00  0.00     0.180 C 
BRANCH   5   6
HETATM    6  O2  UNL     1       8.648   7.301  -3.399  1.00  0.00    -0.377 OA
ATOM      7  H2  UNL     1       8.306   7.696  -4.193  1.00  0.00     0.211 HD
ENDBRANCH   5   6
BRANCH   5   8
HETATM    8  C12 UNL     1       9.368   5.367  -4.522  1.00  0.00     0.159 C 
BRANCH   8   9
HETATM    9  N7  UNL     1       8.277   4.634  -3.984  1.00  0.00    -0.226 NA
HETATM   10  C13 UNL     1       8.090   3.421  -4.807  1.00  0.00     0.157 C 
HETATM   11  C14 UNL     1       6.897   4.096  -5.407  1.00  0.00     0.246 C 
HETATM   12  N12 UNL     1       6.988   4.985  -4.304  1.00  0.00    -0.135 NA
BRANCH  11  13
HETATM   13  N8  UNL     1       5.673   3.306  -5.371  1.00  0.00    -0.191 N 
HETATM   14  N9  UNL     1       5.632   2.025  -5.047  1.00  0.00     0.002 NA
HETATM   15  N10 UNL     1       4.359   1.628  -5.119  1.00  0.00    -0.233 N 
HETATM   16  C15 UNL     1       3.603   2.699  -5.498  1.00  0.00     0.353 A 
ATOM     17  H10 UNL     1       4.012   0.688  -4.925  1.00  0.00     0.189 HD
HETATM   18  O3  UNL     1       2.359   2.754  -5.681  1.00  0.00    -0.244 OA
HETATM   19  N11 UNL     1       4.453   3.735  -5.648  1.00  0.00    -0.234 N 
ATOM     20  H11 UNL     1       4.200   4.683  -5.926  1.00  0.00     0.193 HD
ENDBRANCH  11  13
ENDBRANCH   8   9
ENDBRANCH   5   8
BRANCH   5  21
HETATM   21  C16 UNL     1      10.626   7.587  -4.567  1.00  0.00     0.253 C 
BRANCH  21  22
HETATM   22  N13 UNL     1      11.297   8.549  -3.693  1.00  0.00    -0.070 N 
ATOM     23 3H13 UNL     1      11.707   8.078  -2.886  1.00  0.00     0.274 HD
ATOM     24 2H13 UNL     1      12.145   8.905  -4.132  1.00  0.00     0.274 HD
ATOM     25 1H13 UNL     1      10.695   9.317  -3.395  1.00  0.00     0.274 HD
ENDBRANCH  21  22
BRANCH  21  26
HETATM   26  C17 UNL     1       9.977   8.278  -5.731  1.00  0.00     0.266 C 
BRANCH  26  27
HETATM   27  N14 UNL     1       9.523   9.583  -5.199  1.00  0.00    -0.077 N 
ATOM     28 3H14 UNL     1       9.551   9.646  -4.182  1.00  0.00     0.274 HD
ATOM     29 2H14 UNL     1      10.170  10.350  -5.381  1.00  0.00     0.274 HD
ATOM     30 1H14 UNL     1       8.594   9.724  -5.597  1.00  0.00     0.274 HD
ENDBRANCH  26  27
ENDBRANCH  21  26
ENDBRANCH   5  21
ENDBRANCH   3   5
BRANCH   1  31
HETATM   31  C9  UNL     1      11.932   4.641  -1.279  1.00  0.00     0.126 C 
BRANCH  31  32
HETATM   32  C8  UNL     1      12.353   3.231  -1.283  1.00  0.00     0.047 C 
BRANCH  32  33
HETATM   33  C7  UNL     1      12.691   2.587  -0.029  1.00  0.00    -0.024 C 
HETATM   34  C6  UNL     1      11.954   2.480   1.185  1.00  0.00     0.014 C 
BRANCH  34  35
HETATM   35  C5  UNL     1      10.737   1.830   1.585  1.00  0.00     0.099 C 
BRANCH  35  36
HETATM   36  N5  UNL     1       9.707   1.373   0.729  1.00  0.00    -0.302 N 
HETATM   37  C4  UNL     1       9.253   0.118   0.480  1.00  0.00     0.190 A 
HETATM   38  N4  UNL     1       8.183   0.162  -0.313  1.00  0.00    -0.346 N 
HETATM   39  C3  UNL     1       7.890   1.438  -0.615  1.00  0.00     0.123 A 
ATOM     40  H4  UNL     1       7.662  -0.652  -0.640  1.00  0.00     0.167 HD
HETATM   41  C2  UNL     1       6.898   2.001  -1.384  1.00  0.00     0.145 A 
HETATM   42  C18 UNL     1       8.843   2.182   0.036  1.00  0.00     0.159 A 
HETATM   43  N2  UNL     1       6.878   3.339  -1.490  1.00  0.00    -0.175 N 
HETATM   44  N3  UNL     1       6.001   1.324  -2.000  1.00  0.00    -0.383 N 
HETATM   45  C1  UNL     1       7.825   4.081  -0.843  1.00  0.00     0.679 A 
ATOM     46  H2  UNL     1       6.160   3.799  -2.050  1.00  0.00     0.186 HD
HETATM   47  N15 UNL     1       8.787   3.509  -0.095  1.00  0.00    -0.174 N 
ATOM     48  H15 UNL     1       9.478   4.093   0.374  1.00  0.00     0.186 HD
ATOM     49  H32 UNL     1       5.266   1.742  -2.570  1.00  0.00     0.157 HD
ATOM     50  H31 UNL     1       6.016   0.307  -1.920  1.00  0.00     0.157 HD
BRANCH  45  51
HETATM   51  N1  UNL     1       7.780   5.366  -0.963  1.00  0.00    -0.234 N 
ATOM     52  H12 UNL     1       7.511   5.785  -1.852  1.00  0.00     0.174 HD
ATOM     53  H11 UNL     1       8.022   5.934  -0.151  1.00  0.00     0.174 HD
ENDBRANCH  45  51
ENDBRANCH  35  36
ENDBRANCH  34  35
ENDBRANCH  32  33
ENDBRANCH  31  32
ENDBRANCH   1  31
TORSDOF 15
ENDMDL
