MODEL 1
REMARK VINA RESULT: -6.123152377      0.000      0.000
REMARK  17 active torsions:
REMARK  status: ('A' for Active; 'I' for Inactive)
REMARK    1  A    between atoms: C1_4  and  C2_6 
REMARK    2  A    between atoms: C3_9  and  N4_10 
REMARK       I    between atoms: N4_10  and  C4_12 
REMARK    3  A    between atoms: C4_12  and  C5_14 
REMARK    4  A    between atoms: C5_14  and  C6_15 
REMARK    5  A    between atoms: C6_15  and  N5_16 
REMARK    6  A    between atoms: C6_15  and  C7_20 
REMARK    7  A    between atoms: C7_20  and  N6_21 
REMARK       I    between atoms: N8_28  and  C9_30 
REMARK    8  A    between atoms: C9_30  and  C10_32 
REMARK    9  A    between atoms: C10_32  and  S1_33 
REMARK   10  A    between atoms: S1_33  and  S2_34 
REMARK   11  A    between atoms: S2_34  and  C11_35 
REMARK   12  A    between atoms: C11_35  and  C12_36 
REMARK   13  A    between atoms: C12_36  and  N9_37 
REMARK   14  A    between atoms: C12_36  and  C14_46 
REMARK   15  A    between atoms: N9_37  and  C13_39 
REMARK   16  A    between atoms: C13_39  and  N10_40 
REMARK   17  A    between atoms: C13_39  and  O3_44 
ROOT
HETATM    1  C2  UNL     1       9.422   2.355   0.121  1.00  0.00     0.134 A 
HETATM    2  N3  UNL     1      10.220   3.378   0.354  1.00  0.00    -0.182 N 
ATOM      3  H3  UNL     1       9.862   4.069   1.014  1.00  0.00     0.185 HD
HETATM    4  C3  UNL     1      11.423   3.640  -0.146  1.00  0.00     0.687 A 
HETATM    5  N7  UNL     1      12.085   2.855  -1.040  1.00  0.00    -0.170 N 
ATOM      6  H7  UNL     1      13.006   3.169  -1.348  1.00  0.00     0.186 HD
HETATM    7  C8  UNL     1      11.630   1.713  -1.544  1.00  0.00     0.168 A 
HETATM    8  N8  UNL     1      12.306   1.006  -2.395  1.00  0.00    -0.306 N 
ATOM      9  H8  UNL     1      13.228   1.291  -2.723  1.00  0.00     0.171 HD
HETATM   10  C9  UNL     1      11.670  -0.213  -2.850  1.00  0.00     0.233 C 
HETATM   11  O2  UNL     1      11.903  -1.285  -2.260  1.00  0.00    -0.272 OA
HETATM   12  S3  UNL     1      10.092   1.228  -1.004  1.00  0.00    -0.032 SA
ENDROOT
BRANCH   4  13
HETATM   13  N4  UNL     1      12.052   4.702   0.205  1.00  0.00    -0.159 N 
HETATM   14  C4  UNL     1      12.433   5.798  -0.543  1.00  0.00     0.237 C 
HETATM   15  O1  UNL     1      13.208   6.684  -0.026  1.00  0.00    -0.273 OA
ATOM     16  H4  UNL     1      12.312   4.743   1.191  1.00  0.00     0.187 HD
BRANCH  14  17
HETATM   17  C5  UNL     1      12.012   6.044  -1.922  1.00  0.00     0.138 C 
BRANCH  17  18
HETATM   18  C6  UNL     1      11.086   7.212  -2.078  1.00  0.00     0.217 C 
BRANCH  18  19
HETATM   19  N5  UNL     1       9.729   6.800  -1.860  1.00  0.00    -0.073 N 
ATOM     20  H53 UNL     1       9.178   6.835  -2.717  1.00  0.00     0.274 HD
ATOM     21  H52 UNL     1       9.660   5.799  -1.678  1.00  0.00     0.274 HD
ATOM     22  H51 UNL     1       9.309   7.353  -1.114  1.00  0.00     0.274 HD
ENDBRANCH  18  19
BRANCH  18  23
HETATM   23  C7  UNL     1      11.228   7.953  -3.368  1.00  0.00     0.262 C 
BRANCH  23  24
HETATM   24  N6  UNL     1       9.912   8.203  -3.956  1.00  0.00    -0.077 N 
ATOM     25  H63 UNL     1       9.440   7.337  -4.217  1.00  0.00     0.274 HD
ATOM     26  H62 UNL     1       9.242   8.535  -3.263  1.00  0.00     0.274 HD
ATOM     27  H61 UNL     1       9.993   8.844  -4.744  1.00  0.00     0.274 HD
ENDBRANCH  23  24
ENDBRANCH  18  23
ENDBRANCH  17  18
ENDBRANCH  14  17
ENDBRANCH   4  13
BRANCH  10  28
HETATM   28  C10 UNL     1      10.775  -0.043  -4.015  1.00  0.00     0.189 C 
BRANCH  28  29
HETATM   29  S1  UNL     1      11.280   1.384  -4.979  1.00  0.00    -0.088 SA
BRANCH  29  30
HETATM   30  S2  UNL     1      10.065   3.068  -4.767  1.00  0.00    -0.095 SA
BRANCH  30  31
HETATM   31  C11 UNL     1       8.380   2.712  -4.236  1.00  0.00     0.120 C 
BRANCH  31  32
HETATM   32  C12 UNL     1       7.805   3.813  -3.389  1.00  0.00     0.180 C 
BRANCH  32  33
HETATM   33  N9  UNL     1       6.830   3.377  -2.477  1.00  0.00    -0.362 N 
ATOM     34  H9  UNL     1       6.581   3.975  -1.690  1.00  0.00     0.158 HD
BRANCH  33  35
HETATM   35  C13 UNL     1       6.191   2.137  -2.625  1.00  0.00     0.420 C 
BRANCH  35  36
HETATM   36  N10 UNL     1       4.945   2.399  -3.389  1.00  0.00    -0.035 N 
ATOM     37 3H10 UNL     1       4.321   1.594  -3.435  1.00  0.00     0.279 HD
ATOM     38 2H10 UNL     1       4.301   3.029  -2.911  1.00  0.00     0.279 HD
ATOM     39 1H10 UNL     1       5.237   2.738  -4.306  1.00  0.00     0.279 HD
ENDBRANCH  35  36
BRANCH  35  40
HETATM   40  O3  UNL     1       5.684   1.688  -1.376  1.00  0.00    -0.355 OA
ATOM     41  H3  UNL     1       4.737   1.765  -1.356  1.00  0.00     0.213 HD
ENDBRANCH  35  40
ENDBRANCH  33  35
ENDBRANCH  32  33
BRANCH  32  42
HETATM   42  C14 UNL     1       7.389   4.937  -4.251  1.00  0.00     0.254 C 
HETATM   43  N11 UNL     1       6.217   4.920  -5.034  1.00  0.00    -0.060 NA
HETATM   44  O4  UNL     1       8.117   5.962  -4.290  1.00  0.00    -0.275 OA
ENDBRANCH  32  42
ENDBRANCH  31  32
ENDBRANCH  30  31
ENDBRANCH  29  30
ENDBRANCH  28  29
ENDBRANCH  10  28
BRANCH   1  45
HETATM   45  C1  UNL     1       8.115   2.102   0.685  1.00  0.00     0.144 C 
HETATM   46  N1  UNL     1       7.246   3.027   0.787  1.00  0.00    -0.385 N 
ATOM     47  H12 UNL     1       6.324   2.847   1.185  1.00  0.00     0.157 HD
ATOM     48  H11 UNL     1       7.479   3.966   0.464  1.00  0.00     0.157 HD
HETATM   49  N2  UNL     1       7.790   0.795   1.135  1.00  0.00    -0.080 NA
ENDBRANCH   1  45
TORSDOF 17
ENDMDL
MODEL 2
REMARK VINA RESULT: -6.106798114      2.251      5.557
REMARK  17 active torsions:
REMARK  status: ('A' for Active; 'I' for Inactive)
REMARK    1  A    between atoms: C1_4  and  C2_6 
REMARK    2  A    between atoms: C3_9  and  N4_10 
REMARK       I    between atoms: N4_10  and  C4_12 
REMARK    3  A    between atoms: C4_12  and  C5_14 
REMARK    4  A    between atoms: C5_14  and  C6_15 
REMARK    5  A    between atoms: C6_15  and  N5_16 
REMARK    6  A    between atoms: C6_15  and  C7_20 
REMARK    7  A    between atoms: C7_20  and  N6_21 
REMARK       I    between atoms: N8_28  and  C9_30 
REMARK    8  A    between atoms: C9_30  and  C10_32 
REMARK    9  A    between atoms: C10_32  and  S1_33 
REMARK   10  A    between atoms: S1_33  and  S2_34 
REMARK   11  A    between atoms: S2_34  and  C11_35 
REMARK   12  A    between atoms: C11_35  and  C12_36 
REMARK   13  A    between atoms: C12_36  and  N9_37 
REMARK   14  A    between atoms: C12_36  and  C14_46 
REMARK   15  A    between atoms: N9_37  and  C13_39 
REMARK   16  A    between atoms: C13_39  and  N10_40 
REMARK   17  A    between atoms: C13_39  and  O3_44 
ROOT
HETATM    1  C2  UNL     1       8.854   5.952  -2.579  1.00  0.00     0.134 A 
HETATM    2  N3  UNL     1       8.798   5.354  -1.406  1.00  0.00    -0.182 N 
ATOM      3  H3  UNL     1       9.355   5.787  -0.669  1.00  0.00     0.185 HD
HETATM    4  C3  UNL     1       8.123   4.268  -1.044  1.00  0.00     0.687 A 
HETATM    5  N7  UNL     1       7.323   3.536  -1.867  1.00  0.00    -0.170 N 
ATOM      6  H7  UNL     1       6.858   2.721  -1.466  1.00  0.00     0.186 HD
HETATM    7  C8  UNL     1       7.096   3.797  -3.150  1.00  0.00     0.168 A 
HETATM    8  N8  UNL     1       6.322   3.063  -3.887  1.00  0.00    -0.306 N 
ATOM      9  H8  UNL     1       5.844   2.242  -3.518  1.00  0.00     0.171 HD
HETATM   10  C9  UNL     1       6.181   3.481  -5.266  1.00  0.00     0.233 C 
HETATM   11  O2  UNL     1       5.240   4.231  -5.588  1.00  0.00    -0.272 OA
HETATM   12  S3  UNL     1       7.890   5.164  -3.777  1.00  0.00    -0.032 SA
ENDROOT
BRANCH   4  13
HETATM   13  N4  UNL     1       8.198   3.832   0.160  1.00  0.00    -0.159 N 
HETATM   14  C4  UNL     1       9.152   3.033   0.758  1.00  0.00     0.237 C 
HETATM   15  O1  UNL     1       8.945   2.572   1.941  1.00  0.00    -0.273 OA
ATOM     16  H4  UNL     1       7.433   4.119   0.770  1.00  0.00     0.187 HD
BRANCH  14  17
HETATM   17  C5  UNL     1      10.422   2.655   0.139  1.00  0.00     0.138 C 
BRANCH  17  18
HETATM   18  C6  UNL     1      11.623   3.288   0.775  1.00  0.00     0.217 C 
BRANCH  18  19
HETATM   19  N5  UNL     1      11.804   4.620   0.273  1.00  0.00    -0.073 N 
ATOM     20  H53 UNL     1      12.519   4.660  -0.453  1.00  0.00     0.274 HD
ATOM     21  H52 UNL     1      11.008   4.929  -0.284  1.00  0.00     0.274 HD
ATOM     22  H51 UNL     1      12.004   5.260   1.041  1.00  0.00     0.274 HD
ENDBRANCH  18  19
BRANCH  18  23
HETATM   23  C7  UNL     1      12.880   2.490   0.662  1.00  0.00     0.262 C 
BRANCH  23  24
HETATM   24  N6  UNL     1      12.982   1.889  -0.668  1.00  0.00    -0.077 N 
ATOM     25  H63 UNL     1      12.065   1.739  -1.089  1.00  0.00     0.274 HD
ATOM     26  H62 UNL     1      13.357   2.544  -1.354  1.00  0.00     0.274 HD
ATOM     27  H61 UNL     1      13.527   1.028  -0.626  1.00  0.00     0.274 HD
ENDBRANCH  23  24
ENDBRANCH  18  23
ENDBRANCH  17  18
ENDBRANCH  14  17
ENDBRANCH   4  13
BRANCH  10  28
HETATM   28  C10 UNL     1       7.213   2.948  -6.181  1.00  0.00     0.189 C 
BRANCH  28  29
HETATM   29  S1  UNL     1       7.693   1.294  -5.675  1.00  0.00    -0.088 SA
BRANCH  29  30
HETATM   30  S2  UNL     1       9.678   1.101  -5.057  1.00  0.00    -0.095 SA
BRANCH  30  31
HETATM   31  C11 UNL     1       9.928   1.274  -3.281  1.00  0.00     0.120 C 
BRANCH  31  32
HETATM   32  C12 UNL     1       9.389   0.099  -2.512  1.00  0.00     0.180 C 
BRANCH  32  33
HETATM   33  N9  UNL     1       8.245   0.393  -1.754  1.00  0.00    -0.362 N 
ATOM     34  H9  UNL     1       8.292   1.123  -1.044  1.00  0.00     0.158 HD
BRANCH  33  35
HETATM   35  C13 UNL     1       7.039  -0.295  -1.950  1.00  0.00     0.420 C 
BRANCH  35  36
HETATM   36  N10 UNL     1       7.273  -1.234  -3.077  1.00  0.00    -0.035 N 
ATOM     37 3H10 UNL     1       8.186  -1.118  -3.518  1.00  0.00     0.279 HD
ATOM     38 2H10 UNL     1       7.400  -2.201  -2.779  1.00  0.00     0.279 HD
ATOM     39 1H10 UNL     1       6.493  -1.108  -3.722  1.00  0.00     0.279 HD
ENDBRANCH  35  36
BRANCH  35  40
HETATM   40  O3  UNL     1       6.054   0.575  -2.491  1.00  0.00    -0.355 OA
ATOM     41  H3  UNL     1       6.055   0.528  -3.440  1.00  0.00     0.213 HD
ENDBRANCH  35  40
ENDBRANCH  33  35
ENDBRANCH  32  33
BRANCH  32  42
HETATM   42  C14 UNL     1      10.484  -0.546  -1.759  1.00  0.00     0.254 C 
HETATM   43  N11 UNL     1      11.814  -0.602  -2.222  1.00  0.00    -0.060 NA
HETATM   44  O4  UNL     1      10.216  -1.072  -0.649  1.00  0.00    -0.275 OA
ENDBRANCH  32  42
ENDBRANCH  31  32
ENDBRANCH  30  31
ENDBRANCH  29  30
ENDBRANCH  28  29
ENDBRANCH  10  28
BRANCH   1  45
HETATM   45  C1  UNL     1       9.603   7.135  -2.938  1.00  0.00     0.144 C 
HETATM   46  N1  UNL     1      10.695   7.433  -2.355  1.00  0.00    -0.385 N 
ATOM     47  H12 UNL     1      11.223   8.268  -2.608  1.00  0.00     0.157 HD
ATOM     48  H11 UNL     1      11.047   6.821  -1.618  1.00  0.00     0.157 HD
HETATM   49  N2  UNL     1       9.113   7.987  -3.964  1.00  0.00    -0.080 NA
ENDBRANCH   1  45
TORSDOF 17
ENDMDL
MODEL 3
REMARK VINA RESULT: -6.083454001      3.201      7.200
REMARK  17 active torsions:
REMARK  status: ('A' for Active; 'I' for Inactive)
REMARK    1  A    between atoms: C1_4  and  C2_6 
REMARK    2  A    between atoms: C3_9  and  N4_10 
REMARK       I    between atoms: N4_10  and  C4_12 
REMARK    3  A    between atoms: C4_12  and  C5_14 
REMARK    4  A    between atoms: C5_14  and  C6_15 
REMARK    5  A    between atoms: C6_15  and  N5_16 
REMARK    6  A    between atoms: C6_15  and  C7_20 
REMARK    7  A    between atoms: C7_20  and  N6_21 
REMARK       I    between atoms: N8_28  and  C9_30 
REMARK    8  A    between atoms: C9_30  and  C10_32 
REMARK    9  A    between atoms: C10_32  and  S1_33 
REMARK   10  A    between atoms: S1_33  and  S2_34 
REMARK   11  A    between atoms: S2_34  and  C11_35 
REMARK   12  A    between atoms: C11_35  and  C12_36 
REMARK   13  A    between atoms: C12_36  and  N9_37 
REMARK   14  A    between atoms: C12_36  and  C14_46 
REMARK   15  A    between atoms: N9_37  and  C13_39 
REMARK   16  A    between atoms: C13_39  and  N10_40 
REMARK   17  A    between atoms: C13_39  and  O3_44 
ROOT
HETATM    1  C2  UNL     1       7.133   0.905  -2.955  1.00  0.00     0.134 A 
HETATM    2  N3  UNL     1       5.939   1.212  -3.421  1.00  0.00    -0.182 N 
ATOM      3  H3  UNL     1       5.275   0.439  -3.461  1.00  0.00     0.185 HD
HETATM    4  C3  UNL     1       5.475   2.381  -3.847  1.00  0.00     0.687 A 
HETATM    5  N7  UNL     1       6.191   3.540  -3.882  1.00  0.00    -0.170 N 
ATOM      6  H7  UNL     1       5.718   4.373  -4.233  1.00  0.00     0.186 HD
HETATM    7  C8  UNL     1       7.455   3.673  -3.495  1.00  0.00     0.168 A 
HETATM    8  N8  UNL     1       8.087   4.804  -3.551  1.00  0.00    -0.306 N 
ATOM      9  H8  UNL     1       7.644   5.655  -3.897  1.00  0.00     0.171 HD
HETATM   10  C9  UNL     1       9.461   4.783  -3.094  1.00  0.00     0.233 C 
HETATM   11  O2  UNL     1       9.718   5.064  -1.908  1.00  0.00    -0.272 OA
HETATM   12  S3  UNL     1       8.204   2.261  -2.918  1.00  0.00    -0.032 SA
ENDROOT
BRANCH   4  13
HETATM   13  N4  UNL     1       4.269   2.483  -4.271  1.00  0.00    -0.159 N 
HETATM   14  C4  UNL     1       3.749   2.269  -5.532  1.00  0.00     0.237 C 
HETATM   15  O1  UNL     1       2.529   2.593  -5.781  1.00  0.00    -0.273 OA
ATOM     16  H4  UNL     1       3.587   2.767  -3.567  1.00  0.00     0.187 HD
BRANCH  14  17
HETATM   17  C5  UNL     1       4.494   1.684  -6.646  1.00  0.00     0.138 C 
BRANCH  17  18
HETATM   18  C6  UNL     1       4.042   0.305  -7.025  1.00  0.00     0.217 C 
BRANCH  18  19
HETATM   19  N5  UNL     1       3.143  -0.211  -6.033  1.00  0.00    -0.073 N 
ATOM     20  H53 UNL     1       3.534  -1.017  -5.546  1.00  0.00     0.274 HD
ATOM     21  H52 UNL     1       3.055   0.418  -5.235  1.00  0.00     0.274 HD
ATOM     22  H51 UNL     1       2.239  -0.421  -6.454  1.00  0.00     0.274 HD
ENDBRANCH  18  19
BRANCH  18  23
HETATM   23  C7  UNL     1       5.149  -0.657  -7.307  1.00  0.00     0.262 C 
BRANCH  23  24
HETATM   24  N6  UNL     1       6.005  -0.805  -6.129  1.00  0.00    -0.077 N 
ATOM     25  H63 UNL     1       6.718  -0.077  -6.082  1.00  0.00     0.274 HD
ATOM     26  H62 UNL     1       5.507  -0.584  -5.267  1.00  0.00     0.274 HD
ATOM     27  H61 UNL     1       6.413  -1.740  -6.104  1.00  0.00     0.274 HD
ENDBRANCH  23  24
ENDBRANCH  18  23
ENDBRANCH  17  18
ENDBRANCH  14  17
ENDBRANCH   4  13
BRANCH  10  28
HETATM   28  C10 UNL     1      10.450   4.414  -4.129  1.00  0.00     0.189 C 
BRANCH  28  29
HETATM   29  S1  UNL     1      12.115   4.569  -3.478  1.00  0.00    -0.088 SA
BRANCH  29  30
HETATM   30  S2  UNL     1      12.798   2.917  -2.399  1.00  0.00    -0.095 SA
BRANCH  30  31
HETATM   31  C11 UNL     1      12.496   3.006  -0.625  1.00  0.00     0.120 C 
BRANCH  31  32
HETATM   32  C12 UNL     1      11.126   2.508  -0.255  1.00  0.00     0.180 C 
BRANCH  32  33
HETATM   33  N9  UNL     1      10.350   3.447   0.442  1.00  0.00    -0.362 N 
ATOM     34  H9  UNL     1      10.664   4.416   0.490  1.00  0.00     0.158 HD
BRANCH  33  35
HETATM   35  C13 UNL     1       9.152   3.083   1.075  1.00  0.00     0.420 C 
BRANCH  35  36
HETATM   36  N10 UNL     1       8.086   3.914   0.460  1.00  0.00    -0.035 N 
ATOM     37 3H10 UNL     1       7.325   4.137   1.101  1.00  0.00     0.279 HD
ATOM     38 2H10 UNL     1       8.377   4.874   0.273  1.00  0.00     0.279 HD
ATOM     39 1H10 UNL     1       7.779   3.414  -0.375  1.00  0.00     0.279 HD
ENDBRANCH  35  36
BRANCH  35  40
HETATM   40  O3  UNL     1       9.143   3.539   2.421  1.00  0.00    -0.355 OA
ATOM     41  H3  UNL     1       8.259   3.532   2.767  1.00  0.00     0.213 HD
ENDBRANCH  35  40
ENDBRANCH  33  35
ENDBRANCH  32  33
BRANCH  32  42
HETATM   42  C14 UNL     1      11.238   1.188   0.399  1.00  0.00     0.254 C 
HETATM   43  N11 UNL     1      10.643   0.017  -0.114  1.00  0.00    -0.060 NA
HETATM   44  O4  UNL     1      11.896   1.105   1.467  1.00  0.00    -0.275 OA
ENDBRANCH  32  42
ENDBRANCH  31  32
ENDBRANCH  30  31
ENDBRANCH  29  30
ENDBRANCH  28  29
ENDBRANCH  10  28
BRANCH   1  45
HETATM   45  C1  UNL     1       7.605  -0.383  -2.500  1.00  0.00     0.144 C 
HETATM   46  N1  UNL     1       7.989  -0.563  -1.299  1.00  0.00    -0.385 N 
ATOM     47  H12 UNL     1       8.322  -1.472  -0.978  1.00  0.00     0.157 HD
ATOM     48  H11 UNL     1       7.962   0.221  -0.646  1.00  0.00     0.157 HD
HETATM   49  N2  UNL     1       7.643  -1.475  -3.408  1.00  0.00    -0.080 NA
ENDBRANCH   1  45
TORSDOF 17
ENDMDL
MODEL 4
REMARK VINA RESULT: -6.065127213      3.283      7.553
REMARK  17 active torsions:
REMARK  status: ('A' for Active; 'I' for Inactive)
REMARK    1  A    between atoms: C1_4  and  C2_6 
REMARK    2  A    between atoms: C3_9  and  N4_10 
REMARK       I    between atoms: N4_10  and  C4_12 
REMARK    3  A    between atoms: C4_12  and  C5_14 
REMARK    4  A    between atoms: C5_14  and  C6_15 
REMARK    5  A    between atoms: C6_15  and  N5_16 
REMARK    6  A    between atoms: C6_15  and  C7_20 
REMARK    7  A    between atoms: C7_20  and  N6_21 
REMARK       I    between atoms: N8_28  and  C9_30 
REMARK    8  A    between atoms: C9_30  and  C10_32 
REMARK    9  A    between atoms: C10_32  and  S1_33 
REMARK   10  A    between atoms: S1_33  and  S2_34 
REMARK   11  A    between atoms: S2_34  and  C11_35 
REMARK   12  A    between atoms: C11_35  and  C12_36 
REMARK   13  A    between atoms: C12_36  and  N9_37 
REMARK   14  A    between atoms: C12_36  and  C14_46 
REMARK   15  A    between atoms: N9_37  and  C13_39 
REMARK   16  A    between atoms: C13_39  and  N10_40 
REMARK   17  A    between atoms: C13_39  and  O3_44 
ROOT
HETATM    1  C2  UNL     1       7.031   3.395  -4.599  1.00  0.00     0.134 A 
HETATM    2  N3  UNL     1       5.743   3.412  -4.878  1.00  0.00    -0.182 N 
ATOM      3  H3  UNL     1       5.421   4.226  -5.401  1.00  0.00     0.185 HD
HETATM    4  C3  UNL     1       4.803   2.523  -4.577  1.00  0.00     0.687 A 
HETATM    5  N7  UNL     1       5.012   1.368  -3.886  1.00  0.00    -0.170 N 
ATOM      6  H7  UNL     1       4.204   0.769  -3.718  1.00  0.00     0.186 HD
HETATM    7  C8  UNL     1       6.184   0.959  -3.412  1.00  0.00     0.168 A 
HETATM    8  N8  UNL     1       6.324  -0.152  -2.759  1.00  0.00    -0.306 N 
ATOM      9  H8  UNL     1       5.538  -0.774  -2.574  1.00  0.00     0.171 HD
HETATM   10  C9  UNL     1       7.667  -0.455  -2.308  1.00  0.00     0.233 C 
HETATM   11  O2  UNL     1       8.412  -1.152  -3.021  1.00  0.00    -0.272 OA
HETATM   12  S3  UNL     1       7.503   1.989  -3.713  1.00  0.00    -0.032 SA
ENDROOT
BRANCH   4  13
HETATM   13  N4  UNL     1       3.587   2.718  -4.939  1.00  0.00    -0.159 N 
HETATM   14  C4  UNL     1       2.979   2.509  -6.161  1.00  0.00     0.237 C 
HETATM   15  O1  UNL     1       1.781   2.933  -6.356  1.00  0.00    -0.273 OA
ATOM     16  H4  UNL     1       2.975   3.086  -4.211  1.00  0.00     0.187 HD
BRANCH  14  17
HETATM   17  C5  UNL     1       3.605   1.822  -7.290  1.00  0.00     0.138 C 
BRANCH  17  18
HETATM   18  C6  UNL     1       3.363   0.342  -7.313  1.00  0.00     0.217 C 
BRANCH  18  19
HETATM   19  N5  UNL     1       2.191   0.021  -6.551  1.00  0.00    -0.073 N 
ATOM     20  H53 UNL     1       2.299  -0.853  -6.036  1.00  0.00     0.274 HD
ATOM     21  H52 UNL     1       2.069   0.649  -5.757  1.00  0.00     0.274 HD
ATOM     22  H51 UNL     1       1.371   0.008  -7.157  1.00  0.00     0.274 HD
ENDBRANCH  18  19
BRANCH  18  23
HETATM   23  C7  UNL     1       4.531  -0.487  -6.888  1.00  0.00     0.262 C 
BRANCH  23  24
HETATM   24  N6  UNL     1       4.303  -1.893  -7.223  1.00  0.00    -0.077 N 
ATOM     25  H63 UNL     1       3.988  -2.430  -6.415  1.00  0.00     0.274 HD
ATOM     26  H62 UNL     1       3.481  -2.015  -7.814  1.00  0.00     0.274 HD
ATOM     27  H61 UNL     1       5.139  -2.295  -7.646  1.00  0.00     0.274 HD
ENDBRANCH  23  24
ENDBRANCH  18  23
ENDBRANCH  17  18
ENDBRANCH  14  17
ENDBRANCH   4  13
BRANCH  10  28
HETATM   28  C10 UNL     1       8.020   0.123  -0.993  1.00  0.00     0.189 C 
BRANCH  28  29
HETATM   29  S1  UNL     1       9.741  -0.214  -0.611  1.00  0.00    -0.088 SA
BRANCH  29  30
HETATM   30  S2  UNL     1      11.124   0.904  -1.704  1.00  0.00    -0.095 SA
BRANCH  30  31
HETATM   31  C11 UNL     1      11.233   2.636  -1.219  1.00  0.00     0.120 C 
BRANCH  31  32
HETATM   32  C12 UNL     1      10.054   3.073  -0.394  1.00  0.00     0.180 C 
BRANCH  32  33
HETATM   33  N9  UNL     1       9.452   4.258  -0.847  1.00  0.00    -0.362 N 
ATOM     34  H9  UNL     1      10.043   5.044  -1.120  1.00  0.00     0.158 HD
BRANCH  33  35
HETATM   35  C13 UNL     1       8.058   4.386  -0.931  1.00  0.00     0.420 C 
BRANCH  35  36
HETATM   36  N10 UNL     1       7.790   5.808  -1.267  1.00  0.00    -0.035 N 
ATOM     37 3H10 UNL     1       7.425   6.348  -0.483  1.00  0.00     0.279 HD
ATOM     38 2H10 UNL     1       8.638   6.357  -1.413  1.00  0.00     0.279 HD
ATOM     39 1H10 UNL     1       7.169   5.799  -2.077  1.00  0.00     0.279 HD
ENDBRANCH  35  36
BRANCH  35  40
HETATM   40  O3  UNL     1       7.470   4.272   0.357  1.00  0.00    -0.355 OA
ATOM     41  H3  UNL     1       7.787   3.492   0.798  1.00  0.00     0.213 HD
ENDBRANCH  35  40
ENDBRANCH  33  35
ENDBRANCH  32  33
BRANCH  32  42
HETATM   42  C14 UNL     1      10.421   3.070   1.036  1.00  0.00     0.254 C 
HETATM   43  N11 UNL     1       9.497   2.824   2.072  1.00  0.00    -0.060 NA
HETATM   44  O4  UNL     1      11.618   3.301   1.346  1.00  0.00    -0.275 OA
ENDBRANCH  32  42
ENDBRANCH  31  32
ENDBRANCH  30  31
ENDBRANCH  29  30
ENDBRANCH  28  29
ENDBRANCH  10  28
BRANCH   1  45
HETATM   45  C1  UNL     1       8.028   4.383  -4.944  1.00  0.00     0.144 C 
HETATM   46  N1  UNL     1       8.954   4.129  -5.780  1.00  0.00    -0.385 N 
ATOM     47  H12 UNL     1       9.657   4.827  -6.023  1.00  0.00     0.157 HD
ATOM     48  H11 UNL     1       8.990   3.207  -6.215  1.00  0.00     0.157 HD
HETATM   49  N2  UNL     1       7.977   5.667  -4.338  1.00  0.00    -0.080 NA
ENDBRANCH   1  45
TORSDOF 17
ENDMDL
MODEL 5
REMARK VINA RESULT: -6.008300668      2.673      5.103
REMARK  17 active torsions:
REMARK  status: ('A' for Active; 'I' for Inactive)
REMARK    1  A    between atoms: C1_4  and  C2_6 
REMARK    2  A    between atoms: C3_9  and  N4_10 
REMARK       I    between atoms: N4_10  and  C4_12 
REMARK    3  A    between atoms: C4_12  and  C5_14 
REMARK    4  A    between atoms: C5_14  and  C6_15 
REMARK    5  A    between atoms: C6_15  and  N5_16 
REMARK    6  A    between atoms: C6_15  and  C7_20 
REMARK    7  A    between atoms: C7_20  and  N6_21 
REMARK       I    between atoms: N8_28  and  C9_30 
REMARK    8  A    between atoms: C9_30  and  C10_32 
REMARK    9  A    between atoms: C10_32  and  S1_33 
REMARK   10  A    between atoms: S1_33  and  S2_34 
REMARK   11  A    between atoms: S2_34  and  C11_35 
REMARK   12  A    between atoms: C11_35  and  C12_36 
REMARK   13  A    between atoms: C12_36  and  N9_37 
REMARK   14  A    between atoms: C12_36  and  C14_46 
REMARK   15  A    between atoms: N9_37  and  C13_39 
REMARK   16  A    between atoms: C13_39  and  N10_40 
REMARK   17  A    between atoms: C13_39  and  O3_44 
ROOT
HETATM    1  C2  UNL     1       6.476   0.873  -3.638  1.00  0.00     0.134 A 
HETATM    2  N3  UNL     1       6.819   0.514  -2.418  1.00  0.00    -0.182 N 
ATOM      3  H3  UNL     1       6.077   0.577  -1.720  1.00  0.00     0.185 HD
HETATM    4  C3  UNL     1       7.990   0.083  -1.963  1.00  0.00     0.687 A 
HETATM    5  N7  UNL     1       9.112  -0.075  -2.720  1.00  0.00    -0.170 N 
ATOM      6  H7  UNL     1       9.951  -0.414  -2.249  1.00  0.00     0.186 HD
HETATM    7  C8  UNL     1       9.201   0.178  -4.021  1.00  0.00     0.168 A 
HETATM    8  N8  UNL     1      10.298   0.009  -4.691  1.00  0.00    -0.306 N 
ATOM      9  H8  UNL     1      11.155  -0.328  -4.252  1.00  0.00     0.171 HD
HETATM   10  C9  UNL     1      10.232   0.331  -6.102  1.00  0.00     0.233 C 
HETATM   11  O2  UNL     1       9.969  -0.566  -6.925  1.00  0.00    -0.272 OA
HETATM   12  S3  UNL     1       7.780   0.742  -4.764  1.00  0.00    -0.032 SA
ENDROOT
BRANCH   4  13
HETATM   13  N4  UNL     1       8.132  -0.221  -0.724  1.00  0.00    -0.159 N 
HETATM   14  C4  UNL     1       7.935   0.547   0.406  1.00  0.00     0.237 C 
HETATM   15  O1  UNL     1       8.299   0.094   1.554  1.00  0.00    -0.273 OA
ATOM     16  H4  UNL     1       8.438  -1.177  -0.548  1.00  0.00     0.187 HD
BRANCH  14  17
HETATM   17  C5  UNL     1       7.326   1.876   0.409  1.00  0.00     0.138 C 
BRANCH  17  18
HETATM   18  C6  UNL     1       8.299   2.993   0.636  1.00  0.00     0.217 C 
BRANCH  18  19
HETATM   19  N5  UNL     1       7.754   4.230   0.159  1.00  0.00    -0.073 N 
ATOM     20  H53 UNL     1       7.736   4.272  -0.860  1.00  0.00     0.274 HD
ATOM     21  H52 UNL     1       6.750   4.295   0.328  1.00  0.00     0.274 HD
ATOM     22  H51 UNL     1       8.260   5.018   0.564  1.00  0.00     0.274 HD
ENDBRANCH  18  19
BRANCH  18  23
HETATM   23  C7  UNL     1       9.665   2.752   0.081  1.00  0.00     0.262 C 
BRANCH  23  24
HETATM   24  N6  UNL     1      10.657   3.537   0.815  1.00  0.00    -0.077 N 
ATOM     25  H63 UNL     1      10.220   4.212   1.443  1.00  0.00     0.274 HD
ATOM     26  H62 UNL     1      11.145   2.977   1.514  1.00  0.00     0.274 HD
ATOM     27  H61 UNL     1      11.304   3.984   0.167  1.00  0.00     0.274 HD
ENDBRANCH  23  24
ENDBRANCH  18  23
ENDBRANCH  17  18
ENDBRANCH  14  17
ENDBRANCH   4  13
BRANCH  10  28
HETATM   28  C10 UNL     1      10.496   1.750  -6.424  1.00  0.00     0.189 C 
BRANCH  28  29
HETATM   29  S1  UNL     1      11.920   2.338  -5.504  1.00  0.00    -0.088 SA
BRANCH  29  30
HETATM   30  S2  UNL     1      11.489   3.709  -3.990  1.00  0.00    -0.095 SA
BRANCH  30  31
HETATM   31  C11 UNL     1       9.759   3.745  -3.486  1.00  0.00     0.120 C 
BRANCH  31  32
HETATM   32  C12 UNL     1       8.983   4.823  -4.191  1.00  0.00     0.180 C 
BRANCH  32  33
HETATM   33  N9  UNL     1       9.463   6.120  -3.947  1.00  0.00    -0.362 N 
ATOM     34  H9  UNL     1       9.553   6.446  -2.986  1.00  0.00     0.158 HD
BRANCH  33  35
HETATM   35  C13 UNL     1       9.822   6.977  -4.998  1.00  0.00     0.420 C 
BRANCH  35  36
HETATM   36  N10 UNL     1       9.639   8.360  -4.488  1.00  0.00    -0.035 N 
ATOM     37 3H10 UNL     1       8.690   8.553  -4.170  1.00  0.00     0.279 HD
ATOM     38 2H10 UNL     1      10.107   8.529  -3.597  1.00  0.00     0.279 HD
ATOM     39 1H10 UNL     1       9.950   8.984  -5.234  1.00  0.00     0.279 HD
ENDBRANCH  35  36
BRANCH  35  40
HETATM   40  O3  UNL     1       8.858   6.917  -6.040  1.00  0.00    -0.355 OA
ATOM     41  H3  UNL     1       8.553   7.789  -6.261  1.00  0.00     0.213 HD
ENDBRANCH  35  40
ENDBRANCH  33  35
ENDBRANCH  32  33
BRANCH  32  42
HETATM   42  C14 UNL     1       7.539   4.639  -3.940  1.00  0.00     0.254 C 
HETATM   43  N11 UNL     1       6.544   4.921  -4.898  1.00  0.00    -0.060 NA
HETATM   44  O4  UNL     1       7.178   4.211  -2.814  1.00  0.00    -0.275 OA
ENDBRANCH  32  42
ENDBRANCH  31  32
ENDBRANCH  30  31
ENDBRANCH  29  30
ENDBRANCH  28  29
ENDBRANCH  10  28
BRANCH   1  45
HETATM   45  C1  UNL     1       5.187   1.339  -4.098  1.00  0.00     0.144 C 
HETATM   46  N1  UNL     1       4.710   2.456  -3.715  1.00  0.00    -0.385 N 
ATOM     47  H12 UNL     1       3.801   2.785  -4.040  1.00  0.00     0.157 HD
ATOM     48  H11 UNL     1       5.251   3.032  -3.070  1.00  0.00     0.157 HD
HETATM   49  N2  UNL     1       4.434   0.538  -4.997  1.00  0.00    -0.080 NA
ENDBRANCH   1  45
TORSDOF 17
ENDMDL
