MODEL 1
REMARK VINA RESULT: -6.615153324      0.000      0.000
REMARK  17 active torsions:
REMARK  status: ('A' for Active; 'I' for Inactive)
REMARK    1  A    between atoms: C3_6  and  N3_7 
REMARK       I    between atoms: N3_7  and  C4_9 
REMARK       I    between atoms: N5_11  and  C5_13 
REMARK    2  A    between atoms: C6_20  and  N9_21 
REMARK    3  A    between atoms: N11_27  and  C8_28 
REMARK    4  A    between atoms: C8_28  and  C9_29 
REMARK    5  A    between atoms: C9_29  and  O1_30 
REMARK    6  A    between atoms: O1_30  and  C10_31 
REMARK    7  A    between atoms: C10_31  and  C11_33 
REMARK    8  A    between atoms: C11_33  and  C12_34 
REMARK    9  A    between atoms: C12_34  and  C13_35 
REMARK   10  A    between atoms: C13_35  and  C14_36 
REMARK   11  A    between atoms: C14_36  and  O3_37 
REMARK   12  A    between atoms: C14_36  and  C15_39 
REMARK   13  A    between atoms: C15_39  and  O4_40 
REMARK   14  A    between atoms: C15_39  and  C16_42 
REMARK   15  A    between atoms: C16_42  and  O5_43 
REMARK   16  A    between atoms: C16_42  and  C17_45 
REMARK   17  A    between atoms: C17_45  and  O6_47 
ROOT
HETATM    1  C1  UNL     1       5.597   1.638  -4.284  1.00  0.00     0.091 C 
HETATM    2  C2  UNL     1       6.400   2.014  -3.079  1.00  0.00     0.112 A 
HETATM    3  N1  UNL     1       6.643   3.248  -2.656  1.00  0.00    -0.253 N 
ATOM      4  H1  UNL     1       6.305   4.094  -3.115  1.00  0.00     0.190 HD
HETATM    5  N2  UNL     1       7.391   3.233  -1.547  1.00  0.00     0.093 N 
HETATM    6  C3  UNL     1       7.874   4.220  -0.785  1.00  0.00     0.735 A 
HETATM    7  N8  UNL     1       8.609   3.912   0.288  1.00  0.00    -0.020 N 
ATOM      8  H8  UNL     1       8.977   4.664   0.870  1.00  0.00     0.203 HD
HETATM    9  C6  UNL     1       8.878   2.625   0.623  1.00  0.00     0.705 A 
HETATM   10  N10 UNL     1       8.376   1.679  -0.166  1.00  0.00    -0.019 N 
ATOM     11  H10 UNL     1       8.570   0.707   0.073  1.00  0.00     0.203 HD
HETATM   12  C7  UNL     1       7.629   1.921  -1.260  1.00  0.00     0.737 A 
HETATM   13  N11 UNL     1       7.016   1.193  -2.206  1.00  0.00    -0.166 N 
ENDROOT
BRANCH  13  14
HETATM   14  C8  UNL     1       7.050  -0.254  -2.263  1.00  0.00     0.176 C 
BRANCH  14  15
HETATM   15  C9  UNL     1       8.090  -0.701  -3.279  1.00  0.00     0.199 C 
BRANCH  15  16
HETATM   16  O1  UNL     1       9.198  -1.304  -2.685  1.00  0.00    -0.320 OA
BRANCH  16  17
HETATM   17  C10 UNL     1      10.187  -0.567  -2.093  1.00  0.00     0.258 C 
HETATM   18  O2  UNL     1      10.316  -0.743  -0.826  1.00  0.00    -0.265 OA
BRANCH  17  19
HETATM   19  C11 UNL     1      11.103   0.385  -2.696  1.00  0.00     0.111 C 
BRANCH  19  20
HETATM   20  C12 UNL     1      11.460   1.581  -1.825  1.00  0.00     0.012 C 
BRANCH  20  21
HETATM   21  C13 UNL     1      12.915   1.749  -1.589  1.00  0.00     0.035 C 
BRANCH  21  22
HETATM   22  C14 UNL     1      13.256   1.946  -0.149  1.00  0.00     0.149 C 
BRANCH  22  23
HETATM   23  O3  UNL     1      12.133   1.288   0.528  1.00  0.00    -0.393 OA
ATOM     24  H3  UNL     1      11.506   1.996   0.609  1.00  0.00     0.210 HD
ENDBRANCH  22  23
BRANCH  22  25
HETATM   25  C15 UNL     1      13.268   3.313   0.415  1.00  0.00     0.178 C 
BRANCH  25  26
HETATM   26  O4  UNL     1      12.433   3.545   1.481  1.00  0.00    -0.390 OA
ATOM     27  H4  UNL     1      12.344   4.448   1.763  1.00  0.00     0.210 HD
ENDBRANCH  25  26
BRANCH  25  28
HETATM   28  C16 UNL     1      13.635   4.463  -0.444  1.00  0.00     0.177 C 
BRANCH  28  29
HETATM   29  O5  UNL     1      14.412   5.367   0.377  1.00  0.00    -0.390 OA
ATOM     30  H5  UNL     1      15.268   5.438  -0.028  1.00  0.00     0.210 HD
ENDBRANCH  28  29
BRANCH  28  31
HETATM   31  C17 UNL     1      12.573   5.331  -1.003  1.00  0.00     0.145 C 
HETATM   32  C18 UNL     1      12.763   6.712  -0.333  1.00  0.00     0.042 C 
BRANCH  31  33
HETATM   33  O6  UNL     1      11.286   4.957  -0.627  1.00  0.00    -0.393 OA
ATOM     34  H6  UNL     1      10.610   5.254  -1.225  1.00  0.00     0.210 HD
ENDBRANCH  31  33
ENDBRANCH  28  31
ENDBRANCH  25  28
ENDBRANCH  22  25
ENDBRANCH  21  22
ENDBRANCH  20  21
ENDBRANCH  19  20
ENDBRANCH  17  19
ENDBRANCH  16  17
ENDBRANCH  15  16
ENDBRANCH  14  15
ENDBRANCH  13  14
BRANCH   6  35
HETATM   35  N3  UNL     1       7.632   5.430  -1.087  1.00  0.00    -0.160 N 
HETATM   36  C4  UNL     1       8.156   6.083  -2.239  1.00  0.00     0.209 C 
HETATM   37  N4  UNL     1       7.235   6.336  -3.295  1.00  0.00    -0.063 NA
HETATM   38  N5  UNL     1       9.368   6.439  -2.361  1.00  0.00    -0.304 N 
HETATM   39  C5  UNL     1       9.799   7.086  -3.550  1.00  0.00     0.188 C 
ATOM     40  H5  UNL     1      10.032   6.261  -1.608  1.00  0.00     0.171 HD
HETATM   41  N6  UNL     1       9.621   8.351  -3.751  1.00  0.00    -0.373 N 
HETATM   42  N7  UNL     1      10.443   6.294  -4.536  1.00  0.00    -0.064 NA
ATOM     43  H62 UNL     1       9.158   8.920  -3.043  1.00  0.00     0.158 HD
ATOM     44  H61 UNL     1       9.931   8.815  -4.605  1.00  0.00     0.158 HD
ATOM     45  H3  UNL     1       7.026   5.967  -0.467  1.00  0.00     0.187 HD
ENDBRANCH   6  35
BRANCH   9  46
HETATM   46  N9  UNL     1       9.587   2.330   1.657  1.00  0.00    -0.234 N 
ATOM     47  H92 UNL     1      10.162   3.030   2.124  1.00  0.00     0.174 HD
ATOM     48  H91 UNL     1       9.600   1.388   2.046  1.00  0.00     0.174 HD
ENDBRANCH   9  46
TORSDOF 17
ENDMDL
MODEL 2
REMARK VINA RESULT: -6.353685257      2.303      3.822
REMARK  17 active torsions:
REMARK  status: ('A' for Active; 'I' for Inactive)
REMARK    1  A    between atoms: C3_6  and  N3_7 
REMARK       I    between atoms: N3_7  and  C4_9 
REMARK       I    between atoms: N5_11  and  C5_13 
REMARK    2  A    between atoms: C6_20  and  N9_21 
REMARK    3  A    between atoms: N11_27  and  C8_28 
REMARK    4  A    between atoms: C8_28  and  C9_29 
REMARK    5  A    between atoms: C9_29  and  O1_30 
REMARK    6  A    between atoms: O1_30  and  C10_31 
REMARK    7  A    between atoms: C10_31  and  C11_33 
REMARK    8  A    between atoms: C11_33  and  C12_34 
REMARK    9  A    between atoms: C12_34  and  C13_35 
REMARK   10  A    between atoms: C13_35  and  C14_36 
REMARK   11  A    between atoms: C14_36  and  O3_37 
REMARK   12  A    between atoms: C14_36  and  C15_39 
REMARK   13  A    between atoms: C15_39  and  O4_40 
REMARK   14  A    between atoms: C15_39  and  C16_42 
REMARK   15  A    between atoms: C16_42  and  O5_43 
REMARK   16  A    between atoms: C16_42  and  C17_45 
REMARK   17  A    between atoms: C17_45  and  O6_47 
ROOT
HETATM    1  C1  UNL     1       6.625   3.303  -5.944  1.00  0.00     0.091 C 
HETATM    2  C2  UNL     1       6.787   3.293  -4.456  1.00  0.00     0.112 A 
HETATM    3  N1  UNL     1       7.650   4.023  -3.760  1.00  0.00    -0.253 N 
ATOM      4  H1  UNL     1       8.312   4.682  -4.168  1.00  0.00     0.190 HD
HETATM    5  N2  UNL     1       7.532   3.777  -2.449  1.00  0.00     0.093 N 
HETATM    6  C3  UNL     1       8.183   4.268  -1.390  1.00  0.00     0.735 A 
HETATM    7  N8  UNL     1       7.856   3.834  -0.169  1.00  0.00    -0.020 N 
ATOM      8  H8  UNL     1       8.351   4.209   0.640  1.00  0.00     0.203 HD
HETATM    9  C6  UNL     1       6.882   2.909   0.022  1.00  0.00     0.705 A 
HETATM   10  N10 UNL     1       6.264   2.451  -1.063  1.00  0.00    -0.019 N 
ATOM     11  H10 UNL     1       5.529   1.756  -0.934  1.00  0.00     0.203 HD
HETATM   12  C7  UNL     1       6.545   2.845  -2.319  1.00  0.00     0.737 A 
HETATM   13  N11 UNL     1       6.103   2.563  -3.554  1.00  0.00    -0.166 N 
ENDROOT
BRANCH  13  14
HETATM   14  C8  UNL     1       5.060   1.599  -3.840  1.00  0.00     0.176 C 
BRANCH  14  15
HETATM   15  C9  UNL     1       5.567   0.196  -3.543  1.00  0.00     0.199 C 
BRANCH  15  16
HETATM   16  O1  UNL     1       6.448  -0.276  -4.515  1.00  0.00    -0.320 OA
BRANCH  16  17
HETATM   17  C10 UNL     1       7.777  -0.461  -4.253  1.00  0.00     0.258 C 
HETATM   18  O2  UNL     1       8.051  -1.466  -3.498  1.00  0.00    -0.265 OA
BRANCH  17  19
HETATM   19  C11 UNL     1       8.917   0.320  -4.705  1.00  0.00     0.111 C 
BRANCH  19  20
HETATM   20  C12 UNL     1      10.184   0.155  -3.878  1.00  0.00     0.012 C 
BRANCH  20  21
HETATM   21  C13 UNL     1      10.153   0.855  -2.571  1.00  0.00     0.035 C 
BRANCH  21  22
HETATM   22  C14 UNL     1      10.439  -0.046  -1.416  1.00  0.00     0.149 C 
BRANCH  22  23
HETATM   23  O3  UNL     1      10.513  -1.362  -2.062  1.00  0.00    -0.393 OA
ATOM     24  H3  UNL     1       9.706  -1.384  -2.563  1.00  0.00     0.210 HD
ENDBRANCH  22  23
BRANCH  22  25
HETATM   25  C15 UNL     1       9.419  -0.218  -0.358  1.00  0.00     0.178 C 
BRANCH  25  26
HETATM   26  O4  UNL     1       8.112  -0.298  -0.773  1.00  0.00    -0.390 OA
ATOM     27  H4  UNL     1       7.484  -0.622  -0.138  1.00  0.00     0.210 HD
ENDBRANCH  25  26
BRANCH  25  28
HETATM   28  C16 UNL     1       9.686   0.278   1.012  1.00  0.00     0.177 C 
BRANCH  28  29
HETATM   29  O5  UNL     1       8.423   0.251   1.719  1.00  0.00    -0.390 OA
ATOM     30  H5  UNL     1       8.164   1.156   1.850  1.00  0.00     0.210 HD
ENDBRANCH  28  29
BRANCH  28  31
HETATM   31  C17 UNL     1      10.164   1.665   1.210  1.00  0.00     0.145 C 
HETATM   32  C18 UNL     1      11.602   1.539   1.766  1.00  0.00     0.042 C 
BRANCH  31  33
HETATM   33  O6  UNL     1       9.484   2.357   2.208  1.00  0.00    -0.393 OA
ATOM     34  H6  UNL     1       9.791   3.248   2.334  1.00  0.00     0.210 HD
ENDBRANCH  31  33
ENDBRANCH  28  31
ENDBRANCH  25  28
ENDBRANCH  22  25
ENDBRANCH  21  22
ENDBRANCH  20  21
ENDBRANCH  19  20
ENDBRANCH  17  19
ENDBRANCH  16  17
ENDBRANCH  15  16
ENDBRANCH  14  15
ENDBRANCH  13  14
BRANCH   6  35
HETATM   35  N3  UNL     1       9.099   5.133  -1.553  1.00  0.00    -0.160 N 
HETATM   36  C4  UNL     1      10.472   4.811  -1.753  1.00  0.00     0.209 C 
HETATM   37  N4  UNL     1      10.981   5.003  -3.069  1.00  0.00    -0.063 NA
HETATM   38  N5  UNL     1      11.237   4.374  -0.839  1.00  0.00    -0.304 N 
HETATM   39  C5  UNL     1      12.595   4.080  -1.134  1.00  0.00     0.188 C 
ATOM     40  H5  UNL     1      10.878   4.236   0.105  1.00  0.00     0.171 HD
HETATM   41  N6  UNL     1      13.506   4.997  -1.177  1.00  0.00    -0.373 N 
HETATM   42  N7  UNL     1      12.937   2.727  -1.388  1.00  0.00    -0.064 NA
ATOM     43  H62 UNL     1      13.261   5.969  -0.994  1.00  0.00     0.158 HD
ATOM     44  H61 UNL     1      14.481   4.785  -1.388  1.00  0.00     0.158 HD
ATOM     45  H3  UNL     1       8.836   6.118  -1.540  1.00  0.00     0.187 HD
ENDBRANCH   6  35
BRANCH   9  46
HETATM   46  N9  UNL     1       6.568   2.492   1.200  1.00  0.00    -0.234 N 
ATOM     47  H92 UNL     1       5.908   3.003   1.787  1.00  0.00     0.174 HD
ATOM     48  H91 UNL     1       6.967   1.639   1.590  1.00  0.00     0.174 HD
ENDBRANCH   9  46
TORSDOF 17
ENDMDL
MODEL 3
REMARK VINA RESULT: -6.332715631      1.616      2.007
REMARK  17 active torsions:
REMARK  status: ('A' for Active; 'I' for Inactive)
REMARK    1  A    between atoms: C3_6  and  N3_7 
REMARK       I    between atoms: N3_7  and  C4_9 
REMARK       I    between atoms: N5_11  and  C5_13 
REMARK    2  A    between atoms: C6_20  and  N9_21 
REMARK    3  A    between atoms: N11_27  and  C8_28 
REMARK    4  A    between atoms: C8_28  and  C9_29 
REMARK    5  A    between atoms: C9_29  and  O1_30 
REMARK    6  A    between atoms: O1_30  and  C10_31 
REMARK    7  A    between atoms: C10_31  and  C11_33 
REMARK    8  A    between atoms: C11_33  and  C12_34 
REMARK    9  A    between atoms: C12_34  and  C13_35 
REMARK   10  A    between atoms: C13_35  and  C14_36 
REMARK   11  A    between atoms: C14_36  and  O3_37 
REMARK   12  A    between atoms: C14_36  and  C15_39 
REMARK   13  A    between atoms: C15_39  and  O4_40 
REMARK   14  A    between atoms: C15_39  and  C16_42 
REMARK   15  A    between atoms: C16_42  and  O5_43 
REMARK   16  A    between atoms: C16_42  and  C17_45 
REMARK   17  A    between atoms: C17_45  and  O6_47 
ROOT
HETATM    1  C1  UNL     1       6.292   2.947  -5.740  1.00  0.00     0.091 C 
HETATM    2  C2  UNL     1       6.518   3.042  -4.263  1.00  0.00     0.112 A 
HETATM    3  N1  UNL     1       6.993   4.096  -3.612  1.00  0.00    -0.253 N 
ATOM      4  H1  UNL     1       7.265   4.974  -4.054  1.00  0.00     0.190 HD
HETATM    5  N2  UNL     1       7.067   3.851  -2.299  1.00  0.00     0.093 N 
HETATM    6  C3  UNL     1       7.481   4.605  -1.275  1.00  0.00     0.735 A 
HETATM    7  N8  UNL     1       7.448   4.095  -0.040  1.00  0.00    -0.020 N 
ATOM      8  H8  UNL     1       7.762   4.669   0.743  1.00  0.00     0.203 HD
HETATM    9  C6  UNL     1       7.008   2.834   0.201  1.00  0.00     0.705 A 
HETATM   10  N10 UNL     1       6.608   2.125  -0.850  1.00  0.00    -0.019 N 
ATOM     11  H10 UNL     1       6.274   1.176  -0.685  1.00  0.00     0.203 HD
HETATM   12  C7  UNL     1       6.615   2.577  -2.118  1.00  0.00     0.737 A 
HETATM   13  N11 UNL     1       6.284   2.101  -3.328  1.00  0.00    -0.166 N 
ENDROOT
BRANCH  13  14
HETATM   14  C8  UNL     1       5.776   0.764  -3.561  1.00  0.00     0.176 C 
BRANCH  14  15
HETATM   15  C9  UNL     1       6.939  -0.197  -3.757  1.00  0.00     0.199 C 
BRANCH  15  16
HETATM   16  O1  UNL     1       7.629  -0.455  -2.573  1.00  0.00    -0.320 OA
BRANCH  16  17
HETATM   17  C10 UNL     1       8.988  -0.323  -2.490  1.00  0.00     0.258 C 
HETATM   18  O2  UNL     1       9.664  -1.293  -2.994  1.00  0.00    -0.265 OA
BRANCH  17  19
HETATM   19  C11 UNL     1       9.769   0.757  -1.909  1.00  0.00     0.111 C 
BRANCH  19  20
HETATM   20  C12 UNL     1      10.575   0.382  -0.674  1.00  0.00     0.012 C 
BRANCH  20  21
HETATM   21  C13 UNL     1       9.918   0.729   0.609  1.00  0.00     0.035 C 
BRANCH  21  22
HETATM   22  C14 UNL     1      10.763   1.594   1.485  1.00  0.00     0.149 C 
BRANCH  22  23
HETATM   23  O3  UNL     1       9.846   1.908   2.586  1.00  0.00    -0.393 OA
ATOM     24  H3  UNL     1      10.431   2.289   3.230  1.00  0.00     0.210 HD
ENDBRANCH  22  23
BRANCH  22  25
HETATM   25  C15 UNL     1      11.204   2.917   0.992  1.00  0.00     0.178 C 
BRANCH  25  26
HETATM   26  O4  UNL     1      10.255   3.684   0.361  1.00  0.00    -0.390 OA
ATOM     27  H4  UNL     1      10.570   4.447  -0.110  1.00  0.00     0.210 HD
ENDBRANCH  25  26
BRANCH  25  28
HETATM   28  C16 UNL     1      12.626   3.136   0.637  1.00  0.00     0.177 C 
BRANCH  28  29
HETATM   29  O5  UNL     1      13.342   3.324   1.881  1.00  0.00    -0.390 OA
ATOM     30  H5  UNL     1      13.084   4.173   2.220  1.00  0.00     0.210 HD
ENDBRANCH  28  29
BRANCH  28  31
HETATM   31  C17 UNL     1      13.007   4.322  -0.164  1.00  0.00     0.145 C 
HETATM   32  C18 UNL     1      14.537   4.471   0.008  1.00  0.00     0.042 C 
BRANCH  31  33
HETATM   33  O6  UNL     1      12.501   5.521   0.330  1.00  0.00    -0.393 OA
ATOM     34  H6  UNL     1      13.011   5.888   1.043  1.00  0.00     0.210 HD
ENDBRANCH  31  33
ENDBRANCH  28  31
ENDBRANCH  25  28
ENDBRANCH  22  25
ENDBRANCH  21  22
ENDBRANCH  20  21
ENDBRANCH  19  20
ENDBRANCH  17  19
ENDBRANCH  16  17
ENDBRANCH  15  16
ENDBRANCH  14  15
ENDBRANCH  13  14
BRANCH   6  35
HETATM   35  N3  UNL     1       7.898   5.786  -1.484  1.00  0.00    -0.160 N 
HETATM   36  C4  UNL     1       9.034   6.099  -2.284  1.00  0.00     0.209 C 
HETATM   37  N4  UNL     1       8.769   6.684  -3.556  1.00  0.00    -0.063 NA
HETATM   38  N5  UNL     1      10.232   5.887  -1.926  1.00  0.00    -0.304 N 
HETATM   39  C5  UNL     1      11.302   6.234  -2.794  1.00  0.00     0.188 C 
ATOM     40  H5  UNL     1      10.428   5.469  -1.017  1.00  0.00     0.171 HD
HETATM   41  N6  UNL     1      11.757   7.441  -2.881  1.00  0.00    -0.373 N 
HETATM   42  N7  UNL     1      11.872   5.202  -3.583  1.00  0.00    -0.064 NA
ATOM     43  H62 UNL     1      11.348   8.183  -2.314  1.00  0.00     0.158 HD
ATOM     44  H61 UNL     1      12.525   7.689  -3.504  1.00  0.00     0.158 HD
ATOM     45  H3  UNL     1       7.389   6.558  -1.053  1.00  0.00     0.187 HD
ENDBRANCH   6  35
BRANCH   9  46
HETATM   46  N9  UNL     1       6.978   2.345   1.392  1.00  0.00    -0.234 N 
ATOM     47  H92 UNL     1       6.805   2.936   2.205  1.00  0.00     0.174 HD
ATOM     48  H91 UNL     1       7.126   1.352   1.567  1.00  0.00     0.174 HD
ENDBRANCH   9  46
TORSDOF 17
ENDMDL
MODEL 4
REMARK VINA RESULT: -6.326522680      1.539      2.247
REMARK  17 active torsions:
REMARK  status: ('A' for Active; 'I' for Inactive)
REMARK    1  A    between atoms: C3_6  and  N3_7 
REMARK       I    between atoms: N3_7  and  C4_9 
REMARK       I    between atoms: N5_11  and  C5_13 
REMARK    2  A    between atoms: C6_20  and  N9_21 
REMARK    3  A    between atoms: N11_27  and  C8_28 
REMARK    4  A    between atoms: C8_28  and  C9_29 
REMARK    5  A    between atoms: C9_29  and  O1_30 
REMARK    6  A    between atoms: O1_30  and  C10_31 
REMARK    7  A    between atoms: C10_31  and  C11_33 
REMARK    8  A    between atoms: C11_33  and  C12_34 
REMARK    9  A    between atoms: C12_34  and  C13_35 
REMARK   10  A    between atoms: C13_35  and  C14_36 
REMARK   11  A    between atoms: C14_36  and  O3_37 
REMARK   12  A    between atoms: C14_36  and  C15_39 
REMARK   13  A    between atoms: C15_39  and  O4_40 
REMARK   14  A    between atoms: C15_39  and  C16_42 
REMARK   15  A    between atoms: C16_42  and  O5_43 
REMARK   16  A    between atoms: C16_42  and  C17_45 
REMARK   17  A    between atoms: C17_45  and  O6_47 
ROOT
HETATM    1  C1  UNL     1       6.212   3.066  -5.597  1.00  0.00     0.091 C 
HETATM    2  C2  UNL     1       6.604   3.168  -4.157  1.00  0.00     0.112 A 
HETATM    3  N1  UNL     1       6.994   4.270  -3.530  1.00  0.00    -0.253 N 
ATOM      4  H1  UNL     1       7.075   5.187  -3.968  1.00  0.00     0.190 HD
HETATM    5  N2  UNL     1       7.267   4.016  -2.244  1.00  0.00     0.093 N 
HETATM    6  C3  UNL     1       7.689   4.805  -1.251  1.00  0.00     0.735 A 
HETATM    7  N8  UNL     1       7.887   4.274  -0.041  1.00  0.00    -0.020 N 
ATOM      8  H8  UNL     1       8.207   4.875   0.719  1.00  0.00     0.203 HD
HETATM    9  C6  UNL     1       7.673   2.957   0.205  1.00  0.00     0.705 A 
HETATM   10  N10 UNL     1       7.255   2.214  -0.815  1.00  0.00    -0.019 N 
ATOM     11  H10 UNL     1       7.089   1.222  -0.645  1.00  0.00     0.203 HD
HETATM   12  C7  UNL     1       7.036   2.685  -2.057  1.00  0.00     0.737 A 
HETATM   13  N11 UNL     1       6.631   2.185  -3.235  1.00  0.00    -0.166 N 
ENDROOT
BRANCH  13  14
HETATM   14  C8  UNL     1       6.302   0.791  -3.454  1.00  0.00     0.176 C 
BRANCH  14  15
HETATM   15  C9  UNL     1       7.577  -0.039  -3.457  1.00  0.00     0.199 C 
BRANCH  15  16
HETATM   16  O1  UNL     1       7.841  -0.625  -2.219  1.00  0.00    -0.320 OA
BRANCH  16  17
HETATM   17  C10 UNL     1       9.071  -0.533  -1.628  1.00  0.00     0.258 C 
HETATM   18  O2  UNL     1       9.062  -0.148  -0.402  1.00  0.00    -0.265 OA
BRANCH  17  19
HETATM   19  C11 UNL     1      10.381  -0.807  -2.195  1.00  0.00     0.111 C 
BRANCH  19  20
HETATM   20  C12 UNL     1      11.358   0.359  -2.159  1.00  0.00     0.012 C 
BRANCH  20  21
HETATM   21  C13 UNL     1      11.008   1.475  -3.071  1.00  0.00     0.035 C 
BRANCH  21  22
HETATM   22  C14 UNL     1      10.586   2.712  -2.349  1.00  0.00     0.149 C 
BRANCH  22  23
HETATM   23  O3  UNL     1      10.254   3.617  -3.454  1.00  0.00    -0.393 OA
ATOM     24  H3  UNL     1      11.038   4.151  -3.518  1.00  0.00     0.210 HD
ENDBRANCH  22  23
BRANCH  22  25
HETATM   25  C15 UNL     1      11.579   3.462  -1.550  1.00  0.00     0.178 C 
BRANCH  25  26
HETATM   26  O4  UNL     1      12.837   3.580  -2.089  1.00  0.00    -0.390 OA
ATOM     27  H4  UNL     1      13.109   4.454  -2.346  1.00  0.00     0.210 HD
ENDBRANCH  25  26
BRANCH  25  28
HETATM   28  C16 UNL     1      11.444   3.528  -0.076  1.00  0.00     0.177 C 
BRANCH  28  29
HETATM   29  O5  UNL     1      11.768   4.884   0.313  1.00  0.00    -0.390 OA
ATOM     30  H5  UNL     1      11.165   5.121   1.008  1.00  0.00     0.210 HD
ENDBRANCH  28  29
BRANCH  28  31
HETATM   31  C17 UNL     1      12.328   2.702   0.779  1.00  0.00     0.145 C 
HETATM   32  C18 UNL     1      11.402   1.671   1.467  1.00  0.00     0.042 C 
BRANCH  31  33
HETATM   33  O6  UNL     1      12.893   3.400   1.842  1.00  0.00    -0.393 OA
ATOM     34  H6  UNL     1      12.614   3.091   2.696  1.00  0.00     0.210 HD
ENDBRANCH  31  33
ENDBRANCH  28  31
ENDBRANCH  25  28
ENDBRANCH  22  25
ENDBRANCH  21  22
ENDBRANCH  20  21
ENDBRANCH  19  20
ENDBRANCH  17  19
ENDBRANCH  16  17
ENDBRANCH  15  16
ENDBRANCH  14  15
ENDBRANCH  13  14
BRANCH   6  35
HETATM   35  N3  UNL     1       7.896   6.039  -1.466  1.00  0.00    -0.160 N 
HETATM   36  C4  UNL     1       8.950   6.539  -2.283  1.00  0.00     0.209 C 
HETATM   37  N4  UNL     1       8.570   7.069  -3.550  1.00  0.00    -0.063 NA
HETATM   38  N5  UNL     1      10.172   6.534  -1.944  1.00  0.00    -0.304 N 
HETATM   39  C5  UNL     1      11.154   7.056  -2.827  1.00  0.00     0.188 C 
ATOM     40  H5  UNL     1      10.450   6.157  -1.037  1.00  0.00     0.171 HD
HETATM   41  N6  UNL     1      11.397   8.323  -2.920  1.00  0.00    -0.373 N 
HETATM   42  N7  UNL     1      11.879   6.135  -3.626  1.00  0.00    -0.064 NA
ATOM     43  H62 UNL     1      10.876   8.985  -2.346  1.00  0.00     0.158 HD
ATOM     44  H61 UNL     1      12.102   8.697  -3.555  1.00  0.00     0.158 HD
ATOM     45  H3  UNL     1       7.270   6.714  -1.026  1.00  0.00     0.187 HD
ENDBRANCH   6  35
BRANCH   9  46
HETATM   46  N9  UNL     1       7.865   2.448   1.373  1.00  0.00    -0.234 N 
ATOM     47  H92 UNL     1       7.124   1.945   1.862  1.00  0.00     0.174 HD
ATOM     48  H91 UNL     1       8.762   2.527   1.851  1.00  0.00     0.174 HD
ENDBRANCH   9  46
TORSDOF 17
ENDMDL
MODEL 5
REMARK VINA RESULT: -6.266639739      1.952      3.235
REMARK  17 active torsions:
REMARK  status: ('A' for Active; 'I' for Inactive)
REMARK    1  A    between atoms: C3_6  and  N3_7 
REMARK       I    between atoms: N3_7  and  C4_9 
REMARK       I    between atoms: N5_11  and  C5_13 
REMARK    2  A    between atoms: C6_20  and  N9_21 
REMARK    3  A    between atoms: N11_27  and  C8_28 
REMARK    4  A    between atoms: C8_28  and  C9_29 
REMARK    5  A    between atoms: C9_29  and  O1_30 
REMARK    6  A    between atoms: O1_30  and  C10_31 
REMARK    7  A    between atoms: C10_31  and  C11_33 
REMARK    8  A    between atoms: C11_33  and  C12_34 
REMARK    9  A    between atoms: C12_34  and  C13_35 
REMARK   10  A    between atoms: C13_35  and  C14_36 
REMARK   11  A    between atoms: C14_36  and  O3_37 
REMARK   12  A    between atoms: C14_36  and  C15_39 
REMARK   13  A    between atoms: C15_39  and  O4_40 
REMARK   14  A    between atoms: C15_39  and  C16_42 
REMARK   15  A    between atoms: C16_42  and  O5_43 
REMARK   16  A    between atoms: C16_42  and  C17_45 
REMARK   17  A    between atoms: C17_45  and  O6_47 
ROOT
HETATM    1  C1  UNL     1       7.151   2.749  -6.741  1.00  0.00     0.091 C 
HETATM    2  C2  UNL     1       7.443   3.150  -5.330  1.00  0.00     0.112 A 
HETATM    3  N1  UNL     1       8.500   3.837  -4.916  1.00  0.00    -0.253 N 
ATOM      4  H1  UNL     1       9.246   4.173  -5.525  1.00  0.00     0.190 HD
HETATM    5  N2  UNL     1       8.455   4.031  -3.593  1.00  0.00     0.093 N 
HETATM    6  C3  UNL     1       9.289   4.655  -2.755  1.00  0.00     0.735 A 
HETATM    7  N8  UNL     1       8.991   4.696  -1.453  1.00  0.00    -0.020 N 
ATOM      8  H8  UNL     1       9.626   5.173  -0.813  1.00  0.00     0.203 HD
HETATM    9  C6  UNL     1       7.866   4.120  -0.960  1.00  0.00     0.705 A 
HETATM   10  N10 UNL     1       7.068   3.511  -1.833  1.00  0.00    -0.019 N 
ATOM     11  H10 UNL     1       6.219   3.073  -1.477  1.00  0.00     0.203 HD
HETATM   12  C7  UNL     1       7.309   3.433  -3.155  1.00  0.00     0.737 A 
HETATM   13  N11 UNL     1       6.706   2.902  -4.229  1.00  0.00    -0.166 N 
ENDROOT
BRANCH  13  14
HETATM   14  C8  UNL     1       5.462   2.162  -4.176  1.00  0.00     0.176 C 
BRANCH  14  15
HETATM   15  C9  UNL     1       5.684   0.844  -3.449  1.00  0.00     0.199 C 
BRANCH  15  16
HETATM   16  O1  UNL     1       6.732   0.100  -3.989  1.00  0.00    -0.320 OA
BRANCH  16  17
HETATM   17  C10 UNL     1       7.692  -0.469  -3.198  1.00  0.00     0.258 C 
HETATM   18  O2  UNL     1       7.832  -1.739  -3.336  1.00  0.00    -0.265 OA
BRANCH  17  19
HETATM   19  C11 UNL     1       8.570   0.163  -2.227  1.00  0.00     0.111 C 
BRANCH  19  20
HETATM   20  C12 UNL     1       8.069   0.139  -0.791  1.00  0.00     0.012 C 
BRANCH  20  21
HETATM   21  C13 UNL     1       9.118  -0.162   0.214  1.00  0.00     0.035 C 
BRANCH  21  22
HETATM   22  C14 UNL     1       8.994   0.659   1.454  1.00  0.00     0.149 C 
BRANCH  22  23
HETATM   23  O3  UNL     1       7.666   1.261   1.295  1.00  0.00    -0.393 OA
ATOM     24  H3  UNL     1       7.149   0.527   0.986  1.00  0.00     0.210 HD
ENDBRANCH  22  23
BRANCH  22  25
HETATM   25  C15 UNL     1       9.895   1.815   1.654  1.00  0.00     0.178 C 
BRANCH  25  26
HETATM   26  O4  UNL     1       9.359   2.907   2.292  1.00  0.00    -0.390 OA
ATOM     27  H4  UNL     1       9.740   3.752   2.080  1.00  0.00     0.210 HD
ENDBRANCH  25  26
BRANCH  25  28
HETATM   28  C16 UNL     1      11.028   2.037   0.727  1.00  0.00     0.177 C 
BRANCH  28  29
HETATM   29  O5  UNL     1      12.134   1.244   1.221  1.00  0.00    -0.390 OA
ATOM     30  H5  UNL     1      12.598   0.916   0.460  1.00  0.00     0.210 HD
ENDBRANCH  28  29
BRANCH  28  31
HETATM   31  C17 UNL     1      11.609   3.392   0.590  1.00  0.00     0.145 C 
HETATM   32  C18 UNL     1      12.448   3.360  -0.710  1.00  0.00     0.042 C 
BRANCH  31  33
HETATM   33  O6  UNL     1      12.540   3.707   1.575  1.00  0.00    -0.393 OA
ATOM     34  H6  UNL     1      13.178   4.358   1.306  1.00  0.00     0.210 HD
ENDBRANCH  31  33
ENDBRANCH  28  31
ENDBRANCH  25  28
ENDBRANCH  22  25
ENDBRANCH  21  22
ENDBRANCH  20  21
ENDBRANCH  19  20
ENDBRANCH  17  19
ENDBRANCH  16  17
ENDBRANCH  15  16
ENDBRANCH  14  15
ENDBRANCH  13  14
BRANCH   6  35
HETATM   35  N3  UNL     1      10.348   5.197  -3.201  1.00  0.00    -0.160 N 
HETATM   36  C4  UNL     1      10.431   6.557  -3.617  1.00  0.00     0.209 C 
HETATM   37  N4  UNL     1      11.144   7.438  -2.753  1.00  0.00    -0.063 NA
HETATM   38  N5  UNL     1       9.916   7.004  -4.686  1.00  0.00    -0.304 N 
HETATM   39  C5  UNL     1      10.052   8.378  -5.017  1.00  0.00     0.188 C 
ATOM     40  H5  UNL     1       9.405   6.377  -5.308  1.00  0.00     0.171 HD
HETATM   41  N6  UNL     1      11.118   8.852  -5.574  1.00  0.00    -0.373 N 
HETATM   42  N7  UNL     1       8.967   9.241  -4.714  1.00  0.00    -0.064 NA
ATOM     43  H62 UNL     1      11.898   8.232  -5.793  1.00  0.00     0.158 HD
ATOM     44  H61 UNL     1      11.216   9.839  -5.812  1.00  0.00     0.158 HD
ATOM     45  H3  UNL     1      11.189   4.624  -3.267  1.00  0.00     0.187 HD
ENDBRANCH   6  35
BRANCH   9  46
HETATM   46  N9  UNL     1       7.581   4.160   0.296  1.00  0.00    -0.234 N 
ATOM     47  H92 UNL     1       7.952   3.469   0.947  1.00  0.00     0.174 HD
ATOM     48  H91 UNL     1       6.975   4.882   0.684  1.00  0.00     0.174 HD
ENDBRANCH   9  46
TORSDOF 17
ENDMDL
