MODEL 1
REMARK VINA RESULT: -4.970938507      0.000      0.000
REMARK  1 active torsions:
REMARK  status: ('A' for Active; 'I' for Inactive)
REMARK    1  A    between atoms: C2_2  and  C5_5 
ROOT
HETATM    1  C5  UNL     1     -36.443 -20.954  21.216  1.00  0.00     0.130 A 
HETATM    2  C6  UNL     1     -37.085 -22.250  21.540  1.00  0.00     0.059 A 
HETATM    3  C7  UNL     1     -38.070 -21.911  20.441  1.00  0.00     0.170 A 
HETATM    4  O1  UNL     1     -37.365 -20.749  20.186  1.00  0.00    -0.385 OA
ENDROOT
BRANCH   1   5
HETATM    5  C2  UNL     1     -35.028 -20.981  20.730  1.00  0.00    -0.025 C 
HETATM    6  C1  UNL     1     -34.124 -20.008  21.382  1.00  0.00     0.017 C 
HETATM    7  C3  UNL     1     -35.030 -20.711  19.235  1.00  0.00     0.017 C 
HETATM    8  C4  UNL     1     -34.492 -22.383  20.928  1.00  0.00     0.017 C 
ENDBRANCH   1   5
TORSDOF 1
ENDMDL
MODEL 2
REMARK VINA RESULT: -4.969987067      0.192      1.544
REMARK  1 active torsions:
REMARK  status: ('A' for Active; 'I' for Inactive)
REMARK    1  A    between atoms: C2_2  and  C5_5 
ROOT
HETATM    1  C5  UNL     1     -36.516 -20.988  21.248  1.00  0.00     0.130 A 
HETATM    2  C6  UNL     1     -37.209 -22.264  21.540  1.00  0.00     0.059 A 
HETATM    3  C7  UNL     1     -38.112 -21.913  20.376  1.00  0.00     0.170 A 
HETATM    4  O1  UNL     1     -37.364 -20.771  20.158  1.00  0.00    -0.385 OA
ENDROOT
BRANCH   1   5
HETATM    5  C2  UNL     1     -35.074 -21.053  20.855  1.00  0.00    -0.025 C 
HETATM    6  C1  UNL     1     -34.458 -22.395  20.956  1.00  0.00     0.017 C 
HETATM    7  C3  UNL     1     -34.293 -20.097  21.740  1.00  0.00     0.017 C 
HETATM    8  C4  UNL     1     -34.952 -20.544  19.434  1.00  0.00     0.017 C 
ENDBRANCH   1   5
TORSDOF 1
ENDMDL
MODEL 3
REMARK VINA RESULT: -4.772100366      1.746      3.283
REMARK  1 active torsions:
REMARK  status: ('A' for Active; 'I' for Inactive)
REMARK    1  A    between atoms: C2_2  and  C5_5 
ROOT
HETATM    1  C5  UNL     1     -34.358 -19.959  21.865  1.00  0.00     0.130 A 
HETATM    2  C6  UNL     1     -33.081 -20.298  22.537  1.00  0.00     0.059 A 
HETATM    3  C7  UNL     1     -33.826 -20.054  23.832  1.00  0.00     0.170 A 
HETATM    4  O1  UNL     1     -34.977 -19.806  23.109  1.00  0.00    -0.385 OA
ENDROOT
BRANCH   1   5
HETATM    5  C2  UNL     1     -35.003 -21.014  21.024  1.00  0.00    -0.025 C 
HETATM    6  C1  UNL     1     -34.359 -22.346  21.086  1.00  0.00     0.017 C 
HETATM    7  C3  UNL     1     -34.999 -20.544  19.580  1.00  0.00     0.017 C 
HETATM    8  C4  UNL     1     -36.452 -21.132  21.449  1.00  0.00     0.017 C 
ENDBRANCH   1   5
TORSDOF 1
ENDMDL
MODEL 4
REMARK VINA RESULT: -4.765261297      1.736      3.409
REMARK  1 active torsions:
REMARK  status: ('A' for Active; 'I' for Inactive)
REMARK    1  A    between atoms: C2_2  and  C5_5 
ROOT
HETATM    1  C5  UNL     1     -34.339 -19.957  21.818  1.00  0.00     0.130 A 
HETATM    2  C6  UNL     1     -33.106 -20.401  22.510  1.00  0.00     0.059 A 
HETATM    3  C7  UNL     1     -33.828 -20.042  23.791  1.00  0.00     0.170 A 
HETATM    4  O1  UNL     1     -34.946 -19.703  23.051  1.00  0.00    -0.385 OA
ENDROOT
BRANCH   1   5
HETATM    5  C2  UNL     1     -35.083 -20.968  21.005  1.00  0.00    -0.025 C 
HETATM    6  C1  UNL     1     -36.491 -21.183  21.408  1.00  0.00     0.017 C 
HETATM    7  C3  UNL     1     -34.347 -22.293  21.099  1.00  0.00     0.017 C 
HETATM    8  C4  UNL     1     -35.031 -20.533  19.555  1.00  0.00     0.017 C 
ENDBRANCH   1   5
TORSDOF 1
ENDMDL
MODEL 5
REMARK VINA RESULT: -4.720908892      1.706      3.257
REMARK  1 active torsions:
REMARK  status: ('A' for Active; 'I' for Inactive)
REMARK    1  A    between atoms: C2_2  and  C5_5 
ROOT
HETATM    1  C5  UNL     1     -34.337 -19.966  21.777  1.00  0.00     0.130 A 
HETATM    2  C6  UNL     1     -33.108 -20.407  22.478  1.00  0.00     0.059 A 
HETATM    3  C7  UNL     1     -33.857 -20.093  23.756  1.00  0.00     0.170 A 
HETATM    4  O1  UNL     1     -34.968 -19.753  23.006  1.00  0.00    -0.385 OA
ENDROOT
BRANCH   1   5
HETATM    5  C2  UNL     1     -35.050 -20.969  20.926  1.00  0.00    -0.025 C 
HETATM    6  C1  UNL     1     -35.145 -20.618  19.491  1.00  0.00     0.017 C 
HETATM    7  C3  UNL     1     -36.456 -21.147  21.473  1.00  0.00     0.017 C 
HETATM    8  C4  UNL     1     -34.342 -22.299  21.077  1.00  0.00     0.017 C 
ENDBRANCH   1   5
TORSDOF 1
ENDMDL
