MODEL 1
REMARK VINA RESULT: -5.134522878      0.000      0.000
REMARK  1 active torsions:
REMARK  status: ('A' for Active; 'I' for Inactive)
REMARK    1  A    between atoms: O1_2  and  C2_3 
ROOT
HETATM    1  C2  UNL     1     -37.372 -22.027  21.430  1.00  0.00     0.132 C 
HETATM    2  C3  UNL     1     -36.148 -21.305  22.003  1.00  0.00     0.034 C 
HETATM    3  C4  UNL     1     -34.854 -21.422  21.378  1.00  0.00     0.023 C 
HETATM    4  C5  UNL     1     -34.384 -20.481  20.295  1.00  0.00     0.129 C 
HETATM    5  N1  UNL     1     -35.318 -20.417  19.129  1.00  0.00    -0.361 N 
ATOM      6  H1  UNL     1     -35.107 -20.009  18.218  1.00  0.00     0.168 HD
HETATM    7  C6  UNL     1     -36.485 -20.990  19.484  1.00  0.00    -0.073 C 
HETATM    8  C7  UNL     1     -37.669 -21.557  19.971  1.00  0.00     0.136 C 
ENDROOT
BRANCH   1   9
HETATM    9  O1  UNL     1     -38.424 -21.854  22.251  1.00  0.00    -0.390 OA
HETATM   10  C1  UNL     1     -39.660 -21.792  21.687  1.00  0.00     0.202 C 
ENDBRANCH   1   9
TORSDOF 1
ENDMDL
MODEL 2
REMARK VINA RESULT: -5.076873570      1.094      1.351
REMARK  1 active torsions:
REMARK  status: ('A' for Active; 'I' for Inactive)
REMARK    1  A    between atoms: O1_2  and  C2_3 
ROOT
HETATM    1  C2  UNL     1     -37.318 -21.622  20.247  1.00  0.00     0.132 C 
HETATM    2  C3  UNL     1     -36.656 -21.535  21.626  1.00  0.00     0.034 C 
HETATM    3  C4  UNL     1     -35.284 -21.937  21.820  1.00  0.00     0.023 C 
HETATM    4  C5  UNL     1     -34.126 -20.982  21.661  1.00  0.00     0.129 C 
HETATM    5  N1  UNL     1     -34.096 -20.313  20.324  1.00  0.00    -0.361 N 
ATOM      6  H1  UNL     1     -33.309 -19.793  19.936  1.00  0.00     0.168 HD
HETATM    7  C6  UNL     1     -35.284 -20.513  19.719  1.00  0.00    -0.073 C 
HETATM    8  C7  UNL     1     -36.567 -20.735  19.205  1.00  0.00     0.136 C 
ENDROOT
BRANCH   1   9
HETATM    9  O1  UNL     1     -38.621 -21.302  20.351  1.00  0.00    -0.390 OA
HETATM   10  C1  UNL     1     -39.407 -22.102  21.121  1.00  0.00     0.202 C 
ENDBRANCH   1   9
TORSDOF 1
ENDMDL
MODEL 3
REMARK VINA RESULT: -5.014256690      2.105      3.635
REMARK  1 active torsions:
REMARK  status: ('A' for Active; 'I' for Inactive)
REMARK    1  A    between atoms: O1_2  and  C2_3 
ROOT
HETATM    1  C2  UNL     1     -34.698 -20.579  21.396  1.00  0.00     0.132 C 
HETATM    2  C3  UNL     1     -35.726 -21.619  21.853  1.00  0.00     0.034 C 
HETATM    3  C4  UNL     1     -37.137 -21.421  21.628  1.00  0.00     0.023 C 
HETATM    4  C5  UNL     1     -37.835 -21.889  20.375  1.00  0.00     0.129 C 
HETATM    5  N1  UNL     1     -37.215 -21.354  19.123  1.00  0.00    -0.361 N 
ATOM      6  H1  UNL     1     -37.634 -21.378  18.193  1.00  0.00     0.168 HD
HETATM    7  C6  UNL     1     -36.010 -20.835  19.431  1.00  0.00    -0.073 C 
HETATM    8  C7  UNL     1     -34.757 -20.372  19.849  1.00  0.00     0.136 C 
ENDROOT
BRANCH   1   9
HETATM    9  O1  UNL     1     -33.472 -20.938  21.821  1.00  0.00    -0.390 OA
HETATM   10  C1  UNL     1     -32.864 -20.139  22.738  1.00  0.00     0.202 C 
ENDBRANCH   1   9
TORSDOF 1
ENDMDL
MODEL 4
REMARK VINA RESULT: -4.988218698      2.461      3.773
REMARK  1 active torsions:
REMARK  status: ('A' for Active; 'I' for Inactive)
REMARK    1  A    between atoms: O1_2  and  C2_3 
ROOT
HETATM    1  C2  UNL     1     -33.934 -20.858  21.428  1.00  0.00     0.132 C 
HETATM    2  C3  UNL     1     -34.401 -20.054  20.211  1.00  0.00     0.034 C 
HETATM    3  C4  UNL     1     -35.125 -20.684  19.134  1.00  0.00     0.023 C 
HETATM    4  C5  UNL     1     -36.630 -20.795  19.119  1.00  0.00     0.129 C 
HETATM    5  N1  UNL     1     -37.180 -21.468  20.336  1.00  0.00    -0.361 N 
ATOM      6  H1  UNL     1     -38.132 -21.820  20.443  1.00  0.00     0.168 HD
HETATM    7  C6  UNL     1     -36.208 -21.531  21.267  1.00  0.00    -0.073 C 
HETATM    8  C7  UNL     1     -35.146 -21.497  22.178  1.00  0.00     0.136 C 
ENDROOT
BRANCH   1   9
HETATM    9  O1  UNL     1     -33.189 -20.074  22.229  1.00  0.00    -0.390 OA
HETATM   10  C1  UNL     1     -33.607 -19.905  23.512  1.00  0.00     0.202 C 
ENDBRANCH   1   9
TORSDOF 1
ENDMDL
MODEL 5
REMARK VINA RESULT: -4.870807312      0.971      1.021
REMARK  1 active torsions:
REMARK  status: ('A' for Active; 'I' for Inactive)
REMARK    1  A    between atoms: O1_2  and  C2_3 
ROOT
HETATM    1  C2  UNL     1     -37.471 -21.737  21.821  1.00  0.00     0.132 C 
HETATM    2  C3  UNL     1     -36.165 -21.005  22.146  1.00  0.00     0.034 C 
HETATM    3  C4  UNL     1     -34.945 -21.307  21.438  1.00  0.00     0.023 C 
HETATM    4  C5  UNL     1     -34.543 -20.598  20.169  1.00  0.00     0.129 C 
HETATM    5  N1  UNL     1     -35.584 -20.676  19.098  1.00  0.00    -0.361 N 
ATOM      6  H1  UNL     1     -35.445 -20.444  18.114  1.00  0.00     0.168 HD
HETATM    7  C6  UNL     1     -36.735 -21.105  19.651  1.00  0.00    -0.073 C 
HETATM    8  C7  UNL     1     -37.889 -21.506  20.334  1.00  0.00     0.136 C 
ENDROOT
BRANCH   1   9
HETATM    9  O1  UNL     1     -38.428 -21.360  22.689  1.00  0.00    -0.390 OA
HETATM   10  C1  UNL     1     -38.090 -20.456  23.647  1.00  0.00     0.202 C 
ENDBRANCH   1   9
TORSDOF 1
ENDMDL
