MODEL 1
REMARK VINA RESULT: -4.610245362      0.000      0.000
REMARK  1 active torsions:
REMARK  status: ('A' for Active; 'I' for Inactive)
REMARK    1  A    between atoms: S1_2  and  C2_3 
ROOT
HETATM    1  C2  UNL     1     -36.971 -21.224  20.675  1.00  0.00     0.246 C 
HETATM    2  C3  UNL     1     -35.650 -21.783  21.111  1.00  0.00     0.045 C 
HETATM    3  C4  UNL     1     -34.689 -20.949  20.268  1.00  0.00     0.030 C 
HETATM    4  C5  UNL     1     -35.538 -20.404  19.153  1.00  0.00     0.233 C 
HETATM    5  N1  UNL     1     -36.794 -21.148  19.227  1.00  0.00    -0.062 N 
ATOM      6  H11 UNL     1     -37.575 -20.749  18.707  1.00  0.00     0.278 HD
ATOM      7  H12 UNL     1     -36.809 -22.040  18.733  1.00  0.00     0.278 HD
ENDROOT
BRANCH   1   8
HETATM    8  S1  UNL     1     -38.389 -22.198  21.160  1.00  0.00    -0.141 SA
HETATM    9  C1  UNL     1     -39.919 -21.670  20.360  1.00  0.00     0.092 C 
ENDBRANCH   1   8
TORSDOF 1
ENDMDL
MODEL 2
REMARK VINA RESULT: -4.547549549      1.372      1.715
REMARK  1 active torsions:
REMARK  status: ('A' for Active; 'I' for Inactive)
REMARK    1  A    between atoms: S1_2  and  C2_3 
ROOT
HETATM    1  C2  UNL     1     -36.849 -22.045  21.106  1.00  0.00     0.246 C 
HETATM    2  C3  UNL     1     -36.573 -21.043  20.025  1.00  0.00     0.045 C 
HETATM    3  C4  UNL     1     -35.049 -21.087  19.969  1.00  0.00     0.030 C 
HETATM    4  C5  UNL     1     -34.639 -21.689  21.284  1.00  0.00     0.233 C 
HETATM    5  N1  UNL     1     -35.848 -21.680  22.105  1.00  0.00    -0.062 N 
ATOM      6  H11 UNL     1     -35.821 -22.267  22.939  1.00  0.00     0.278 HD
ATOM      7  H12 UNL     1     -36.029 -20.816  22.617  1.00  0.00     0.278 HD
ENDROOT
BRANCH   1   8
HETATM    8  S1  UNL     1     -38.520 -22.017  21.741  1.00  0.00    -0.141 SA
HETATM    9  C1  UNL     1     -39.759 -21.730  20.459  1.00  0.00     0.092 C 
ENDBRANCH   1   8
TORSDOF 1
ENDMDL
MODEL 3
REMARK VINA RESULT: -4.278106908      1.648      2.034
REMARK  1 active torsions:
REMARK  status: ('A' for Active; 'I' for Inactive)
REMARK    1  A    between atoms: S1_2  and  C2_3 
ROOT
HETATM    1  C2  UNL     1     -36.239 -21.677  21.094  1.00  0.00     0.246 C 
HETATM    2  C3  UNL     1     -35.307 -20.985  20.144  1.00  0.00     0.045 C 
HETATM    3  C4  UNL     1     -34.114 -20.711  21.054  1.00  0.00     0.030 C 
HETATM    4  C5  UNL     1     -34.667 -20.815  22.448  1.00  0.00     0.233 C 
HETATM    5  N1  UNL     1     -36.120 -20.837  22.284  1.00  0.00    -0.062 N 
ATOM      6  H11 UNL     1     -36.652 -21.146  23.097  1.00  0.00     0.278 HD
ATOM      7  H12 UNL     1     -36.573 -19.925  22.228  1.00  0.00     0.278 HD
ENDROOT
BRANCH   1   8
HETATM    8  S1  UNL     1     -37.920 -21.834  20.508  1.00  0.00    -0.141 SA
HETATM    9  C1  UNL     1     -39.131 -21.915  21.846  1.00  0.00     0.092 C 
ENDBRANCH   1   8
TORSDOF 1
ENDMDL
MODEL 4
REMARK VINA RESULT: -4.160925292      3.054      4.040
REMARK  1 active torsions:
REMARK  status: ('A' for Active; 'I' for Inactive)
REMARK    1  A    between atoms: S1_2  and  C2_3 
ROOT
HETATM    1  C2  UNL     1     -34.858 -20.487  21.982  1.00  0.00     0.246 C 
HETATM    2  C3  UNL     1     -34.342 -20.584  20.576  1.00  0.00     0.045 C 
HETATM    3  C4  UNL     1     -35.613 -20.972  19.827  1.00  0.00     0.030 C 
HETATM    4  C5  UNL     1     -36.530 -21.512  20.888  1.00  0.00     0.233 C 
HETATM    5  N1  UNL     1     -35.689 -21.685  22.071  1.00  0.00    -0.062 N 
ATOM      6  H11 UNL     1     -36.187 -21.812  22.953  1.00  0.00     0.278 HD
ATOM      7  H12 UNL     1     -35.185 -22.570  22.130  1.00  0.00     0.278 HD
ENDROOT
BRANCH   1   8
HETATM    8  S1  UNL     1     -33.588 -20.416  23.238  1.00  0.00    -0.141 SA
HETATM    9  C1  UNL     1     -34.084 -19.470  24.694  1.00  0.00     0.092 C 
ENDBRANCH   1   8
TORSDOF 1
ENDMDL
MODEL 5
REMARK VINA RESULT: -4.139682545      2.297      3.860
REMARK  1 active torsions:
REMARK  status: ('A' for Active; 'I' for Inactive)
REMARK    1  A    between atoms: S1_2  and  C2_3 
ROOT
HETATM    1  C2  UNL     1     -36.242 -21.238  21.211  1.00  0.00     0.246 C 
HETATM    2  C3  UNL     1     -36.938 -21.258  19.882  1.00  0.00     0.045 C 
HETATM    3  C4  UNL     1     -38.360 -21.615  20.304  1.00  0.00     0.030 C 
HETATM    4  C5  UNL     1     -38.210 -22.216  21.674  1.00  0.00     0.233 C 
HETATM    5  N1  UNL     1     -36.776 -22.445  21.838  1.00  0.00    -0.062 N 
ATOM      6  H11 UNL     1     -36.463 -22.621  22.793  1.00  0.00     0.278 HD
ATOM      7  H12 UNL     1     -36.423 -23.328  21.469  1.00  0.00     0.278 HD
ENDROOT
BRANCH   1   8
HETATM    8  S1  UNL     1     -34.457 -21.224  21.117  1.00  0.00    -0.141 SA
HETATM    9  C1  UNL     1     -33.719 -19.775  21.903  1.00  0.00     0.092 C 
ENDBRANCH   1   8
TORSDOF 1
ENDMDL
