MODEL 1
REMARK VINA RESULT: -6.400062117      0.000      0.000
REMARK  6 active torsions:
REMARK  status: ('A' for Active; 'I' for Inactive)
REMARK    1  A    between atoms: O1_2  and  C2_3 
REMARK    2  A    between atoms: C3_6  and  N2_7 
REMARK    3  A    between atoms: N2_7  and  N3_9 
REMARK       I    between atoms: N3_9  and  C4_11 
REMARK    4  A    between atoms: C4_11  and  C5_13 
REMARK       I    between atoms: C5_13  and  N4_15 
REMARK    5  A    between atoms: N4_15  and  N5_16 
REMARK    6  A    between atoms: C6_21  and  N7_22 
ROOT
HETATM    1  C2  UNL     1      -7.678   3.320  -0.576  1.00  0.00     0.252 A 
HETATM    2  N1  UNL     1      -6.754   2.590   0.040  1.00  0.00    -0.152 N 
ATOM      3  H1  UNL     1      -6.587   1.635  -0.274  1.00  0.00     0.188 HD
HETATM    4  C3  UNL     1      -6.030   3.080   1.071  1.00  0.00     0.714 A 
HETATM    5  N6  UNL     1      -6.234   4.335   1.492  1.00  0.00    -0.021 N 
ATOM      6  H6  UNL     1      -5.698   4.720   2.271  1.00  0.00     0.203 HD
HETATM    7  C6  UNL     1      -7.180   5.088   0.850  1.00  0.00     0.693 A 
HETATM    8  N8  UNL     1      -7.894   4.589  -0.169  1.00  0.00    -0.154 N 
ATOM      9  H8  UNL     1      -8.595   5.165  -0.635  1.00  0.00     0.188 HD
ENDROOT
BRANCH   4  10
HETATM   10  N2  UNL     1      -5.081   2.371   1.654  1.00  0.00    -0.128 N 
ATOM     11  H2  UNL     1      -4.304   1.984   1.117  1.00  0.00     0.205 HD
BRANCH  10  12
HETATM   12  N3  UNL     1      -5.186   2.160   3.093  1.00  0.00    -0.246 N 
HETATM   13  C4  UNL     1      -4.595   3.126   3.976  1.00  0.00     0.344 C 
HETATM   14  O2  UNL     1      -4.068   4.090   4.051  1.00  0.00    -0.259 OA
ATOM     15  H3  UNL     1      -5.670   1.343   3.465  1.00  0.00     0.191 HD
BRANCH  13  16
HETATM   16  C5  UNL     1      -4.815   2.461   5.493  1.00  0.00     0.404 C 
HETATM   17  O3  UNL     1      -5.865   2.859   5.920  1.00  0.00    -0.244 OA
HETATM   18  N4  UNL     1      -3.796   1.690   5.786  1.00  0.00    -0.284 NA
BRANCH  18  19
HETATM   19  N5  UNL     1      -2.766   0.911   6.082  1.00  0.00    -0.276 N 
ATOM     20  H52 UNL     1      -3.553   1.521   5.858  1.00  0.00     0.191 HD
ATOM     21  H51 UNL     1      -1.973   0.312   6.310  1.00  0.00     0.191 HD
ENDBRANCH  18  19
ENDBRANCH  13  16
ENDBRANCH  10  12
ENDBRANCH   4  10
BRANCH   1  22
HETATM   22  O1  UNL     1      -8.481   2.896  -1.624  1.00  0.00    -0.326 OA
HETATM   23  C1  UNL     1      -9.753   2.330  -1.510  1.00  0.00     0.213 C 
ENDBRANCH   1  22
BRANCH   7  24
HETATM   24  N7  UNL     1      -7.353   6.312   1.306  1.00  0.00    -0.234 N 
ATOM     25  H72 UNL     1      -7.412   6.525   2.301  1.00  0.00     0.174 HD
ATOM     26  H71 UNL     1      -7.412   7.048   0.601  1.00  0.00     0.174 HD
ENDBRANCH   7  24
TORSDOF 6
ENDMDL
MODEL 2
REMARK VINA RESULT: -6.363380744      2.134      6.386
REMARK  6 active torsions:
REMARK  status: ('A' for Active; 'I' for Inactive)
REMARK    1  A    between atoms: O1_2  and  C2_3 
REMARK    2  A    between atoms: C3_6  and  N2_7 
REMARK    3  A    between atoms: N2_7  and  N3_9 
REMARK       I    between atoms: N3_9  and  C4_11 
REMARK    4  A    between atoms: C4_11  and  C5_13 
REMARK       I    between atoms: C5_13  and  N4_15 
REMARK    5  A    between atoms: N4_15  and  N5_16 
REMARK    6  A    between atoms: C6_21  and  N7_22 
ROOT
HETATM    1  C2  UNL     1      -5.824   0.700   4.803  1.00  0.00     0.252 A 
HETATM    2  N1  UNL     1      -6.550   0.352   3.747  1.00  0.00    -0.152 N 
ATOM      3  H1  UNL     1      -7.081  -0.518   3.776  1.00  0.00     0.188 HD
HETATM    4  C3  UNL     1      -6.604   1.119   2.635  1.00  0.00     0.714 A 
HETATM    5  N6  UNL     1      -5.916   2.267   2.583  1.00  0.00    -0.021 N 
ATOM      6  H6  UNL     1      -5.943   2.857   1.751  1.00  0.00     0.203 HD
HETATM    7  C6  UNL     1      -5.175   2.628   3.677  1.00  0.00     0.693 A 
HETATM    8  N8  UNL     1      -5.128   1.856   4.772  1.00  0.00    -0.154 N 
ATOM      9  H8  UNL     1      -4.570   2.141   5.577  1.00  0.00     0.188 HD
ENDROOT
BRANCH   4  10
HETATM   10  N2  UNL     1      -7.361   0.796   1.603  1.00  0.00    -0.128 N 
ATOM     11  H2  UNL     1      -7.568  -0.179   1.383  1.00  0.00     0.205 HD
BRANCH  10  12
HETATM   12  N3  UNL     1      -7.890   1.884   0.789  1.00  0.00    -0.246 N 
HETATM   13  C4  UNL     1      -7.728   1.822  -0.637  1.00  0.00     0.344 C 
HETATM   14  O2  UNL     1      -7.369   1.222  -1.487  1.00  0.00    -0.259 OA
ATOM     15  H3  UNL     1      -8.366   2.674   1.224  1.00  0.00     0.191 HD
BRANCH  13  16
HETATM   16  C5  UNL     1      -8.337   3.284  -1.167  1.00  0.00     0.404 C 
HETATM   17  O3  UNL     1      -9.137   3.057  -2.034  1.00  0.00    -0.244 OA
HETATM   18  N4  UNL     1      -7.785   4.261  -0.490  1.00  0.00    -0.284 NA
BRANCH  18  19
HETATM   19  N5  UNL     1      -7.227   5.248   0.196  1.00  0.00    -0.276 N 
ATOM     20  H52 UNL     1      -7.645   4.482  -0.332  1.00  0.00     0.191 HD
ATOM     21  H51 UNL     1      -6.797   6.008   0.723  1.00  0.00     0.191 HD
ENDBRANCH  18  19
ENDBRANCH  13  16
ENDBRANCH  10  12
ENDBRANCH   4  10
BRANCH   1  22
HETATM   22  O1  UNL     1      -5.692  -0.032   5.974  1.00  0.00    -0.326 OA
HETATM   23  C1  UNL     1      -4.625   0.038   6.873  1.00  0.00     0.213 C 
ENDBRANCH   1  22
BRANCH   7  24
HETATM   24  N7  UNL     1      -4.507   3.759   3.576  1.00  0.00    -0.234 N 
ATOM     25  H72 UNL     1      -4.211   4.145   2.679  1.00  0.00     0.174 HD
ATOM     26  H71 UNL     1      -4.310   4.243   4.452  1.00  0.00     0.174 HD
ENDBRANCH   7  24
TORSDOF 6
ENDMDL
MODEL 3
REMARK VINA RESULT: -6.310588864      2.288      5.803
REMARK  6 active torsions:
REMARK  status: ('A' for Active; 'I' for Inactive)
REMARK    1  A    between atoms: O1_2  and  C2_3 
REMARK    2  A    between atoms: C3_6  and  N2_7 
REMARK    3  A    between atoms: N2_7  and  N3_9 
REMARK       I    between atoms: N3_9  and  C4_11 
REMARK    4  A    between atoms: C4_11  and  C5_13 
REMARK       I    between atoms: C5_13  and  N4_15 
REMARK    5  A    between atoms: N4_15  and  N5_16 
REMARK    6  A    between atoms: C6_21  and  N7_22 
ROOT
HETATM    1  C2  UNL     1      -5.955   4.548   2.911  1.00  0.00     0.252 A 
HETATM    2  N1  UNL     1      -5.923   3.780   1.828  1.00  0.00    -0.152 N 
ATOM      3  H1  UNL     1      -5.474   2.866   1.881  1.00  0.00     0.188 HD
HETATM    4  C3  UNL     1      -6.470   4.178   0.656  1.00  0.00     0.714 A 
HETATM    5  N6  UNL     1      -7.067   5.374   0.571  1.00  0.00    -0.021 N 
ATOM      6  H6  UNL     1      -7.482   5.690  -0.306  1.00  0.00     0.203 HD
HETATM    7  C6  UNL     1      -7.106   6.159   1.692  1.00  0.00     0.693 A 
HETATM    8  N8  UNL     1      -6.557   5.755   2.847  1.00  0.00    -0.154 N 
ATOM      9  H8  UNL     1      -6.595   6.354   3.671  1.00  0.00     0.188 HD
ENDROOT
BRANCH   4  10
HETATM   10  N2  UNL     1      -6.477   3.397  -0.408  1.00  0.00    -0.128 N 
ATOM     11  H2  UNL     1      -5.690   3.378  -1.057  1.00  0.00     0.205 HD
BRANCH  10  12
HETATM   12  N3  UNL     1      -7.653   2.561  -0.620  1.00  0.00    -0.246 N 
HETATM   13  C4  UNL     1      -8.873   3.183  -1.055  1.00  0.00     0.344 C 
HETATM   14  O2  UNL     1      -9.354   4.121  -1.372  1.00  0.00    -0.259 OA
ATOM     15  H3  UNL     1      -7.610   1.554  -0.463  1.00  0.00     0.191 HD
BRANCH  13  16
HETATM   16  C5  UNL     1      -9.979   1.931  -1.047  1.00  0.00     0.404 C 
HETATM   17  O3  UNL     1     -10.838   2.194  -1.844  1.00  0.00    -0.244 OA
HETATM   18  N4  UNL     1      -9.598   1.014  -0.191  1.00  0.00    -0.284 NA
BRANCH  18  19
HETATM   19  N5  UNL     1      -9.213   0.088   0.675  1.00  0.00    -0.276 N 
ATOM     20  H52 UNL     1      -9.497   0.803   0.005  1.00  0.00     0.191 HD
ATOM     21  H51 UNL     1      -8.916  -0.625   1.342  1.00  0.00     0.191 HD
ENDBRANCH  18  19
ENDBRANCH  13  16
ENDBRANCH  10  12
ENDBRANCH   4  10
BRANCH   1  22
HETATM   22  O1  UNL     1      -5.404   4.234   4.144  1.00  0.00    -0.326 OA
HETATM   23  C1  UNL     1      -4.685   3.077   4.455  1.00  0.00     0.213 C 
ENDBRANCH   1  22
BRANCH   7  24
HETATM   24  N7  UNL     1      -7.694   7.331   1.558  1.00  0.00    -0.234 N 
ATOM     25  H72 UNL     1      -8.016   7.684   0.657  1.00  0.00     0.174 HD
ATOM     26  H71 UNL     1      -7.824   7.867   2.416  1.00  0.00     0.174 HD
ENDBRANCH   7  24
TORSDOF 6
ENDMDL
MODEL 4
REMARK VINA RESULT: -6.303882765      2.301      3.434
REMARK  6 active torsions:
REMARK  status: ('A' for Active; 'I' for Inactive)
REMARK    1  A    between atoms: O1_2  and  C2_3 
REMARK    2  A    between atoms: C3_6  and  N2_7 
REMARK    3  A    between atoms: N2_7  and  N3_9 
REMARK       I    between atoms: N3_9  and  C4_11 
REMARK    4  A    between atoms: C4_11  and  C5_13 
REMARK       I    between atoms: C5_13  and  N4_15 
REMARK    5  A    between atoms: N4_15  and  N5_16 
REMARK    6  A    between atoms: C6_21  and  N7_22 
ROOT
HETATM    1  C2  UNL     1     -10.025   3.336  -0.978  1.00  0.00     0.252 A 
HETATM    2  N1  UNL     1      -9.211   4.320  -0.611  1.00  0.00    -0.152 N 
ATOM      3  H1  UNL     1      -9.590   5.260  -0.497  1.00  0.00     0.188 HD
HETATM    4  C3  UNL     1      -7.894   4.109  -0.386  1.00  0.00     0.714 A 
HETATM    5  N6  UNL     1      -7.383   2.879  -0.527  1.00  0.00    -0.021 N 
ATOM      6  H6  UNL     1      -6.391   2.703  -0.363  1.00  0.00     0.203 HD
HETATM    7  C6  UNL     1      -8.226   1.865  -0.897  1.00  0.00     0.693 A 
HETATM    8  N8  UNL     1      -9.529   2.089  -1.120  1.00  0.00    -0.154 N 
ATOM      9  H8  UNL     1     -10.141   1.321  -1.396  1.00  0.00     0.188 HD
ENDROOT
BRANCH   4  10
HETATM   10  N2  UNL     1      -7.095   5.077   0.022  1.00  0.00    -0.128 N 
ATOM     11  H2  UNL     1      -6.638   5.701  -0.643  1.00  0.00     0.205 HD
BRANCH  10  12
HETATM   12  N3  UNL     1      -6.890   5.220   1.459  1.00  0.00    -0.246 N 
HETATM   13  C4  UNL     1      -6.078   4.250   2.140  1.00  0.00     0.344 C 
HETATM   14  O2  UNL     1      -5.436   3.363   2.032  1.00  0.00    -0.259 OA
ATOM     15  H3  UNL     1      -7.315   5.994   1.969  1.00  0.00     0.191 HD
BRANCH  13  16
HETATM   16  C5  UNL     1      -6.205   4.689   3.747  1.00  0.00     0.404 C 
HETATM   17  O3  UNL     1      -6.418   5.870   3.790  1.00  0.00    -0.244 OA
HETATM   18  N4  UNL     1      -6.049   3.631   4.504  1.00  0.00    -0.284 NA
BRANCH  18  19
HETATM   19  N5  UNL     1      -5.891   2.561   5.270  1.00  0.00    -0.276 N 
ATOM     20  H52 UNL     1      -6.012   3.377   4.670  1.00  0.00     0.191 HD
ATOM     21  H51 UNL     1      -5.770   1.737   5.859  1.00  0.00     0.191 HD
ENDBRANCH  18  19
ENDBRANCH  13  16
ENDBRANCH  10  12
ENDBRANCH   4  10
BRANCH   1  22
HETATM   22  O1  UNL     1     -11.378   3.463  -1.251  1.00  0.00    -0.326 OA
HETATM   23  C1  UNL     1     -12.332   4.067  -0.429  1.00  0.00     0.213 C 
ENDBRANCH   1  22
BRANCH   7  24
HETATM   24  N7  UNL     1      -7.676   0.676  -1.033  1.00  0.00    -0.234 N 
ATOM     25  H72 UNL     1      -7.800  -0.069  -0.348  1.00  0.00     0.174 HD
ATOM     26  H71 UNL     1      -7.123   0.532  -1.879  1.00  0.00     0.174 HD
ENDBRANCH   7  24
TORSDOF 6
ENDMDL
MODEL 5
REMARK VINA RESULT: -6.272377316      2.555      3.249
REMARK  6 active torsions:
REMARK  status: ('A' for Active; 'I' for Inactive)
REMARK    1  A    between atoms: O1_2  and  C2_3 
REMARK    2  A    between atoms: C3_6  and  N2_7 
REMARK    3  A    between atoms: N2_7  and  N3_9 
REMARK       I    between atoms: N3_9  and  C4_11 
REMARK    4  A    between atoms: C4_11  and  C5_13 
REMARK       I    between atoms: C5_13  and  N4_15 
REMARK    5  A    between atoms: N4_15  and  N5_16 
REMARK    6  A    between atoms: C6_21  and  N7_22 
ROOT
HETATM    1  C2  UNL     1      -8.597   0.615   0.926  1.00  0.00     0.252 A 
HETATM    2  N1  UNL     1      -7.419   1.159   1.212  1.00  0.00    -0.152 N 
ATOM      3  H1  UNL     1      -6.902   0.822   2.024  1.00  0.00     0.188 HD
HETATM    4  C3  UNL     1      -6.888   2.147   0.457  1.00  0.00     0.714 A 
HETATM    5  N6  UNL     1      -7.553   2.597  -0.615  1.00  0.00    -0.021 N 
ATOM      6  H6  UNL     1      -7.168   3.343  -1.194  1.00  0.00     0.203 HD
HETATM    7  C6  UNL     1      -8.763   2.028  -0.913  1.00  0.00     0.693 A 
HETATM    8  N8  UNL     1      -9.280   1.052  -0.154  1.00  0.00    -0.154 N 
ATOM      9  H8  UNL     1     -10.182   0.641  -0.390  1.00  0.00     0.188 HD
ENDROOT
BRANCH   4  10
HETATM   10  N2  UNL     1      -5.698   2.656   0.715  1.00  0.00    -0.128 N 
ATOM     11  H2  UNL     1      -5.087   2.981  -0.035  1.00  0.00     0.205 HD
BRANCH  10  12
HETATM   12  N3  UNL     1      -5.290   2.737   2.113  1.00  0.00    -0.246 N 
HETATM   13  C4  UNL     1      -5.623   3.917   2.862  1.00  0.00     0.344 C 
HETATM   14  O2  UNL     1      -6.147   4.884   2.851  1.00  0.00    -0.259 OA
ATOM     15  H3  UNL     1      -4.778   1.971   2.550  1.00  0.00     0.191 HD
BRANCH  13  16
HETATM   16  C5  UNL     1      -4.878   3.671   4.337  1.00  0.00     0.404 C 
HETATM   17  O3  UNL     1      -3.733   4.020   4.233  1.00  0.00    -0.244 OA
HETATM   18  N4  UNL     1      -5.744   3.182   5.190  1.00  0.00    -0.284 NA
BRANCH  18  19
HETATM   19  N5  UNL     1      -6.620   2.687   6.053  1.00  0.00    -0.276 N 
ATOM     20  H52 UNL     1      -5.955   3.073   5.382  1.00  0.00     0.191 HD
ATOM     21  H51 UNL     1      -7.294   2.306   6.717  1.00  0.00     0.191 HD
ENDBRANCH  18  19
ENDBRANCH  13  16
ENDBRANCH  10  12
ENDBRANCH   4  10
BRANCH   1  22
HETATM   22  O1  UNL     1      -9.227  -0.383   1.653  1.00  0.00    -0.326 OA
HETATM   23  C1  UNL     1      -9.963  -0.208   2.827  1.00  0.00     0.213 C 
ENDBRANCH   1  22
BRANCH   7  24
HETATM   24  N7  UNL     1      -9.384   2.511  -1.970  1.00  0.00    -0.234 N 
ATOM     25  H72 UNL     1      -9.193   3.440  -2.344  1.00  0.00     0.174 HD
ATOM     26  H71 UNL     1     -10.067   1.892  -2.408  1.00  0.00     0.174 HD
ENDBRANCH   7  24
TORSDOF 6
ENDMDL
