MODEL 1
REMARK VINA RESULT: -5.636036139      0.000      0.000
REMARK  5 active torsions:
REMARK  status: ('A' for Active; 'I' for Inactive)
REMARK    1  A    between atoms: O1_2  and  N1_3 
REMARK    2  A    between atoms: N1_3  and  C2_5 
REMARK    3  A    between atoms: C3_8  and  N3_9 
REMARK    4  A    between atoms: C5_16  and  S1_17 
REMARK    5  A    between atoms: S1_17  and  N6_18 
ROOT
HETATM    1  C2  UNL     1      -7.908   5.141   1.840  1.00  0.00     0.167 A 
HETATM    2  N2  UNL     1      -8.520   5.019   0.634  1.00  0.00    -0.173 N 
ATOM      3  H2  UNL     1      -9.321   5.617   0.429  1.00  0.00     0.186 HD
HETATM    4  C3  UNL     1      -8.115   4.142  -0.300  1.00  0.00     0.678 A 
HETATM    5  N4  UNL     1      -7.063   3.354  -0.026  1.00  0.00    -0.177 N 
ATOM      6  H4  UNL     1      -6.740   2.682  -0.722  1.00  0.00     0.185 HD
HETATM    7  C4  UNL     1      -6.424   3.445   1.169  1.00  0.00     0.159 A 
HETATM    8  N5  UNL     1      -5.310   2.619   1.472  1.00  0.00    -0.080 NA
HETATM    9  C5  UNL     1      -6.827   4.340   2.137  1.00  0.00     0.166 A 
ENDROOT
BRANCH   9  10
HETATM   10  S1  UNL     1      -6.028   4.468   3.659  1.00  0.00     0.263 S 
HETATM   11  O2  UNL     1      -5.850   5.926   4.049  1.00  0.00    -0.200 OA
HETATM   12  O3  UNL     1      -6.953   3.888   4.714  1.00  0.00    -0.200 OA
BRANCH  10  13
HETATM   13  N6  UNL     1      -4.547   3.645   3.765  1.00  0.00    -0.324 N 
ATOM     14  H62 UNL     1      -4.088   3.263   2.938  1.00  0.00     0.169 HD
ATOM     15  H61 UNL     1      -4.162   3.566   4.706  1.00  0.00     0.169 HD
ENDBRANCH  10  13
ENDBRANCH   9  10
BRANCH   1  16
HETATM   16  N1  UNL     1      -8.292   5.975   2.732  1.00  0.00    -0.249 N 
ATOM     17  H1  UNL     1      -8.595   5.660   3.654  1.00  0.00     0.196 HD
BRANCH  16  18
HETATM   18  O1  UNL     1      -8.283   7.309   2.405  1.00  0.00    -0.284 OA
HETATM   19  C1  UNL     1      -9.394   8.158   2.563  1.00  0.00     0.237 C 
ENDBRANCH  16  18
ENDBRANCH   1  16
BRANCH   4  20
HETATM   20  N3  UNL     1      -8.719   4.041  -1.456  1.00  0.00    -0.234 N 
ATOM     21  H32 UNL     1      -9.051   4.881  -1.929  1.00  0.00     0.174 HD
ATOM     22  H31 UNL     1      -8.870   3.137  -1.905  1.00  0.00     0.174 HD
ENDBRANCH   4  20
TORSDOF 5
ENDMDL
MODEL 2
REMARK VINA RESULT: -5.497861629      3.320      5.135
REMARK  5 active torsions:
REMARK  status: ('A' for Active; 'I' for Inactive)
REMARK    1  A    between atoms: O1_2  and  N1_3 
REMARK    2  A    between atoms: N1_3  and  C2_5 
REMARK    3  A    between atoms: C3_8  and  N3_9 
REMARK    4  A    between atoms: C5_16  and  S1_17 
REMARK    5  A    between atoms: S1_17  and  N6_18 
ROOT
HETATM    1  C2  UNL     1      -6.982   3.575   0.403  1.00  0.00     0.167 A 
HETATM    2  N2  UNL     1      -5.853   3.535   1.155  1.00  0.00    -0.173 N 
ATOM      3  H2  UNL     1      -4.975   3.267   0.708  1.00  0.00     0.186 HD
HETATM    4  C3  UNL     1      -5.842   3.833   2.466  1.00  0.00     0.678 A 
HETATM    5  N4  UNL     1      -6.998   4.183   3.052  1.00  0.00    -0.177 N 
ATOM      6  H4  UNL     1      -7.011   4.413   4.046  1.00  0.00     0.185 HD
HETATM    7  C4  UNL     1      -8.149   4.235   2.334  1.00  0.00     0.159 A 
HETATM    8  N5  UNL     1      -9.379   4.604   2.941  1.00  0.00    -0.080 NA
HETATM    9  C5  UNL     1      -8.176   3.933   0.989  1.00  0.00     0.166 A 
ENDROOT
BRANCH   9  10
HETATM   10  S1  UNL     1      -9.629   3.993   0.064  1.00  0.00     0.263 S 
HETATM   11  O2  UNL     1      -9.315   4.033  -1.423  1.00  0.00    -0.200 OA
HETATM   12  O3  UNL     1     -10.364   2.682   0.276  1.00  0.00    -0.200 OA
BRANCH  10  13
HETATM   13  N6  UNL     1     -10.693   5.251   0.475  1.00  0.00    -0.324 N 
ATOM     14  H62 UNL     1     -10.485   6.223   0.244  1.00  0.00     0.169 HD
ATOM     15  H61 UNL     1     -11.540   4.959   0.962  1.00  0.00     0.169 HD
ENDBRANCH  10  13
ENDBRANCH   9  10
BRANCH   1  16
HETATM   16  N1  UNL     1      -6.995   3.292  -0.846  1.00  0.00    -0.249 N 
ATOM     17  H1  UNL     1      -7.206   4.003  -1.546  1.00  0.00     0.196 HD
BRANCH  16  18
HETATM   18  O1  UNL     1      -6.715   1.997  -1.210  1.00  0.00    -0.284 OA
HETATM   19  C1  UNL     1      -7.602   0.923  -1.011  1.00  0.00     0.237 C 
ENDBRANCH  16  18
ENDBRANCH   1  16
BRANCH   4  20
HETATM   20  N3  UNL     1      -4.742   3.788   3.172  1.00  0.00    -0.234 N 
ATOM     21  H32 UNL     1      -3.997   3.144   2.908  1.00  0.00     0.174 HD
ATOM     22  H31 UNL     1      -4.605   4.384   3.989  1.00  0.00     0.174 HD
ENDBRANCH   4  20
TORSDOF 5
ENDMDL
MODEL 3
REMARK VINA RESULT: -5.447573725      2.661      4.133
REMARK  5 active torsions:
REMARK  status: ('A' for Active; 'I' for Inactive)
REMARK    1  A    between atoms: O1_2  and  N1_3 
REMARK    2  A    between atoms: N1_3  and  C2_5 
REMARK    3  A    between atoms: C3_8  and  N3_9 
REMARK    4  A    between atoms: C5_16  and  S1_17 
REMARK    5  A    between atoms: S1_17  and  N6_18 
ROOT
HETATM    1  C2  UNL     1      -7.965   4.427   1.350  1.00  0.00     0.167 A 
HETATM    2  N2  UNL     1      -6.942   4.483   2.241  1.00  0.00    -0.173 N 
ATOM      3  H2  UNL     1      -7.037   5.087   3.058  1.00  0.00     0.186 HD
HETATM    4  C3  UNL     1      -5.809   3.775   2.093  1.00  0.00     0.678 A 
HETATM    5  N4  UNL     1      -5.686   2.982   1.016  1.00  0.00    -0.177 N 
ATOM      6  H4  UNL     1      -4.834   2.437   0.884  1.00  0.00     0.185 HD
HETATM    7  C4  UNL     1      -6.686   2.900   0.101  1.00  0.00     0.159 A 
HETATM    8  N5  UNL     1      -6.570   2.065  -1.042  1.00  0.00    -0.080 NA
HETATM    9  C5  UNL     1      -7.854   3.618   0.240  1.00  0.00     0.166 A 
ENDROOT
BRANCH   9  10
HETATM   10  S1  UNL     1      -9.132   3.525  -0.913  1.00  0.00     0.263 S 
HETATM   11  O2  UNL     1     -10.344   4.307  -0.433  1.00  0.00    -0.200 OA
HETATM   12  O3  UNL     1      -8.672   4.243  -2.168  1.00  0.00    -0.200 OA
BRANCH  10  13
HETATM   13  N6  UNL     1      -9.587   1.951  -1.358  1.00  0.00    -0.324 N 
ATOM     14  H62 UNL     1      -9.078   1.429  -2.072  1.00  0.00     0.169 HD
ATOM     15  H61 UNL     1     -10.396   1.578  -0.860  1.00  0.00     0.169 HD
ENDBRANCH  10  13
ENDBRANCH   9  10
BRANCH   1  16
HETATM   16  N1  UNL     1      -9.045   5.100   1.489  1.00  0.00    -0.249 N 
ATOM     17  H1  UNL     1      -9.754   5.118   0.755  1.00  0.00     0.196 HD
BRANCH  16  18
HETATM   18  O1  UNL     1      -9.216   5.798   2.660  1.00  0.00    -0.284 OA
HETATM   19  C1  UNL     1      -9.337   7.198   2.722  1.00  0.00     0.237 C 
ENDBRANCH  16  18
ENDBRANCH   1  16
BRANCH   4  20
HETATM   20  N3  UNL     1      -4.837   3.843   2.964  1.00  0.00    -0.234 N 
ATOM     21  H32 UNL     1      -4.822   4.598   3.649  1.00  0.00     0.174 HD
ATOM     22  H31 UNL     1      -4.083   3.156   2.981  1.00  0.00     0.174 HD
ENDBRANCH   4  20
TORSDOF 5
ENDMDL
MODEL 4
REMARK VINA RESULT: -5.406454954      2.904      4.490
REMARK  5 active torsions:
REMARK  status: ('A' for Active; 'I' for Inactive)
REMARK    1  A    between atoms: O1_2  and  N1_3 
REMARK    2  A    between atoms: N1_3  and  C2_5 
REMARK    3  A    between atoms: C3_8  and  N3_9 
REMARK    4  A    between atoms: C5_16  and  S1_17 
REMARK    5  A    between atoms: S1_17  and  N6_18 
ROOT
HETATM    1  C2  UNL     1      -7.076   3.766   0.606  1.00  0.00     0.167 A 
HETATM    2  N2  UNL     1      -6.047   3.382   1.404  1.00  0.00    -0.173 N 
ATOM      3  H2  UNL     1      -5.330   4.068   1.643  1.00  0.00     0.186 HD
HETATM    4  C3  UNL     1      -5.932   2.135   1.892  1.00  0.00     0.678 A 
HETATM    5  N4  UNL     1      -6.875   1.234   1.575  1.00  0.00    -0.177 N 
ATOM      6  H4  UNL     1      -6.806   0.282   1.935  1.00  0.00     0.185 HD
HETATM    7  C4  UNL     1      -7.920   1.579   0.778  1.00  0.00     0.159 A 
HETATM    8  N5  UNL     1      -8.925   0.635   0.436  1.00  0.00    -0.080 NA
HETATM    9  C5  UNL     1      -8.052   2.853   0.271  1.00  0.00     0.166 A 
ENDROOT
BRANCH   9  10
HETATM   10  S1  UNL     1      -9.372   3.306  -0.740  1.00  0.00     0.263 S 
HETATM   11  O2  UNL     1     -10.177   4.425  -0.101  1.00  0.00    -0.200 OA
HETATM   12  O3  UNL     1      -8.794   3.911  -2.007  1.00  0.00    -0.200 OA
BRANCH  10  13
HETATM   13  N6  UNL     1     -10.397   2.033  -1.200  1.00  0.00    -0.324 N 
ATOM     14  H62 UNL     1     -10.091   1.060  -1.160  1.00  0.00     0.169 HD
ATOM     15  H61 UNL     1     -11.326   2.316  -1.512  1.00  0.00     0.169 HD
ENDBRANCH  10  13
ENDBRANCH   9  10
BRANCH   1  16
HETATM   16  N1  UNL     1      -7.188   4.953   0.140  1.00  0.00    -0.249 N 
ATOM     17  H1  UNL     1      -7.350   5.116  -0.854  1.00  0.00     0.196 HD
BRANCH  16  18
HETATM   18  O1  UNL     1      -7.082   5.999   1.024  1.00  0.00    -0.284 OA
HETATM   19  C1  UNL     1      -7.888   6.135   2.169  1.00  0.00     0.237 C 
ENDBRANCH  16  18
ENDBRANCH   1  16
BRANCH   4  20
HETATM   20  N3  UNL     1      -4.932   1.787   2.659  1.00  0.00    -0.234 N 
ATOM     21  H32 UNL     1      -5.099   1.570   3.641  1.00  0.00     0.174 HD
ATOM     22  H31 UNL     1      -3.978   1.724   2.301  1.00  0.00     0.174 HD
ENDBRANCH   4  20
TORSDOF 5
ENDMDL
MODEL 5
REMARK VINA RESULT: -5.378912341      3.814      5.513
REMARK  5 active torsions:
REMARK  status: ('A' for Active; 'I' for Inactive)
REMARK    1  A    between atoms: O1_2  and  N1_3 
REMARK    2  A    between atoms: N1_3  and  C2_5 
REMARK    3  A    between atoms: C3_8  and  N3_9 
REMARK    4  A    between atoms: C5_16  and  S1_17 
REMARK    5  A    between atoms: S1_17  and  N6_18 
ROOT
HETATM    1  C2  UNL     1      -7.684   0.981   1.245  1.00  0.00     0.167 A 
HETATM    2  N2  UNL     1      -6.818   0.639   2.234  1.00  0.00    -0.173 N 
ATOM      3  H2  UNL     1      -6.933  -0.266   2.693  1.00  0.00     0.186 HD
HETATM    4  C3  UNL     1      -5.817   1.441   2.633  1.00  0.00     0.678 A 
HETATM    5  N4  UNL     1      -5.670   2.631   2.029  1.00  0.00    -0.177 N 
ATOM      6  H4  UNL     1      -4.917   3.255   2.318  1.00  0.00     0.185 HD
HETATM    7  C4  UNL     1      -6.516   3.011   1.036  1.00  0.00     0.159 A 
HETATM    8  N5  UNL     1      -6.371   4.266   0.388  1.00  0.00    -0.080 NA
HETATM    9  C5  UNL     1      -7.546   2.198   0.615  1.00  0.00     0.166 A 
ENDROOT
BRANCH   9  10
HETATM   10  S1  UNL     1      -8.628   2.666  -0.644  1.00  0.00     0.263 S 
HETATM   11  O2  UNL     1      -8.472   1.754  -1.849  1.00  0.00    -0.200 OA
HETATM   12  O3  UNL     1     -10.042   2.425  -0.147  1.00  0.00    -0.200 OA
BRANCH  10  13
HETATM   13  N6  UNL     1      -8.519   4.293  -1.119  1.00  0.00    -0.324 N 
ATOM     14  H62 UNL     1      -7.971   4.969  -0.587  1.00  0.00     0.169 HD
ATOM     15  H61 UNL     1      -9.038   4.532  -1.964  1.00  0.00     0.169 HD
ENDBRANCH  10  13
ENDBRANCH   9  10
BRANCH   1  16
HETATM   16  N1  UNL     1      -8.638   0.219   0.862  1.00  0.00    -0.249 N 
ATOM     17  H1  UNL     1      -8.844   0.088  -0.129  1.00  0.00     0.196 HD
BRANCH  16  18
HETATM   18  O1  UNL     1      -9.374  -0.418   1.831  1.00  0.00    -0.284 OA
HETATM   19  C1  UNL     1     -10.391   0.209   2.574  1.00  0.00     0.237 C 
ENDBRANCH  16  18
ENDBRANCH   1  16
BRANCH   4  20
HETATM   20  N3  UNL     1      -4.995   1.092   3.588  1.00  0.00    -0.234 N 
ATOM     21  H32 UNL     1      -5.170   0.240   4.121  1.00  0.00     0.174 HD
ATOM     22  H31 UNL     1      -4.173   1.650   3.819  1.00  0.00     0.174 HD
ENDBRANCH   4  20
TORSDOF 5
ENDMDL
