MODEL 1
REMARK VINA RESULT: -6.321346493      0.000      0.000
REMARK  6 active torsions:
REMARK  status: ('A' for Active; 'I' for Inactive)
REMARK       I    between atoms: C2_2  and  N1_4 
REMARK    1  A    between atoms: N1_4  and  N2_6 
REMARK    2  A    between atoms: N2_6  and  C3_8 
REMARK    3  A    between atoms: C3_8  and  O2_9 
REMARK    4  A    between atoms: C3_8  and  C4_11 
REMARK    5  A    between atoms: N4_14  and  N5_15 
REMARK    6  A    between atoms: C7_21  and  N8_22 
ROOT
HETATM    1  C4  UNL     1      -7.036   1.531   0.961  1.00  0.00     0.105 A 
HETATM    2  C5  UNL     1      -6.394   1.142   2.147  1.00  0.00     0.174 A 
HETATM    3  N3  UNL     1      -6.811   0.031   2.914  1.00  0.00    -0.078 NA
HETATM    4  N4  UNL     1      -5.380   1.974   2.395  1.00  0.00    -0.179 N 
HETATM    5  N7  UNL     1      -5.322   2.876   1.449  1.00  0.00    -0.262 N 
ATOM      6  H7  UNL     1      -4.641   3.634   1.392  1.00  0.00     0.191 HD
HETATM    7  C7  UNL     1      -6.344   2.633   0.529  1.00  0.00     0.133 A 
ENDROOT
BRANCH   1   8
HETATM    8  C3  UNL     1      -8.164   0.893   0.355  1.00  0.00     0.172 C 
BRANCH   8   9
HETATM    9  N2  UNL     1      -9.157   0.077   0.886  1.00  0.00    -0.277 N 
ATOM     10  H2  UNL     1      -9.305  -0.850   0.489  1.00  0.00     0.189 HD
BRANCH   9  11
HETATM   11  N1  UNL     1      -9.968   0.507   1.965  1.00  0.00    -0.268 N 
HETATM   12  C2  UNL     1     -10.283  -0.367   3.044  1.00  0.00     0.232 C 
HETATM   13  C1  UNL     1     -11.132   0.103   4.167  1.00  0.00     0.119 C 
HETATM   14  O1  UNL     1      -9.870  -1.553   3.105  1.00  0.00    -0.272 OA
ATOM     15  H1  UNL     1     -10.332   1.460   1.969  1.00  0.00     0.190 HD
ENDBRANCH   9  11
ENDBRANCH   8   9
BRANCH   8  16
HETATM   16  O2  UNL     1      -8.299   1.102  -0.926  1.00  0.00    -0.344 OA
ATOM     17  H2  UNL     1      -8.478   2.010  -1.141  1.00  0.00     0.219 HD
ENDBRANCH   8  16
ENDBRANCH   1   8
BRANCH   7  18
HETATM   18  N8  UNL     1      -6.465   3.400  -0.466  1.00  0.00    -0.384 N 
ATOM     19  H82 UNL     1      -6.218   4.384  -0.364  1.00  0.00     0.157 HD
ATOM     20  H81 UNL     1      -6.780   3.258  -1.426  1.00  0.00     0.157 HD
ENDBRANCH   7  18
BRANCH   4  21
HETATM   21  N5  UNL     1      -4.541   1.862   3.514  1.00  0.00    -0.276 N 
HETATM   22  C6  UNL     1      -4.517   2.790   4.420  1.00  0.00     0.208 C 
HETATM   23  N6  UNL     1      -3.642   2.605   5.521  1.00  0.00    -0.095 NA
ATOM     24  H5  UNL     1      -3.944   1.042   3.617  1.00  0.00     0.189 HD
ENDBRANCH   4  21
TORSDOF 6
ENDMDL
MODEL 2
REMARK VINA RESULT: -6.270608159      2.702      3.750
REMARK  6 active torsions:
REMARK  status: ('A' for Active; 'I' for Inactive)
REMARK       I    between atoms: C2_2  and  N1_4 
REMARK    1  A    between atoms: N1_4  and  N2_6 
REMARK    2  A    between atoms: N2_6  and  C3_8 
REMARK    3  A    between atoms: C3_8  and  O2_9 
REMARK    4  A    between atoms: C3_8  and  C4_11 
REMARK    5  A    between atoms: N4_14  and  N5_15 
REMARK    6  A    between atoms: C7_21  and  N8_22 
ROOT
HETATM    1  C4  UNL     1      -7.265   2.094   0.376  1.00  0.00     0.105 A 
HETATM    2  C5  UNL     1      -6.434   1.973   1.502  1.00  0.00     0.174 A 
HETATM    3  N3  UNL     1      -5.360   2.855   1.758  1.00  0.00    -0.078 NA
HETATM    4  N4  UNL     1      -6.829   0.929   2.234  1.00  0.00    -0.179 N 
HETATM    5  N7  UNL     1      -7.860   0.365   1.659  1.00  0.00    -0.262 N 
ATOM      6  H7  UNL     1      -8.359  -0.454   2.007  1.00  0.00     0.191 HD
HETATM    7  C7  UNL     1      -8.165   1.066   0.491  1.00  0.00     0.133 A 
ENDROOT
BRANCH   1   8
HETATM    8  C3  UNL     1      -7.171   3.088  -0.648  1.00  0.00     0.172 C 
BRANCH   8   9
HETATM    9  N2  UNL     1      -8.002   4.150  -0.981  1.00  0.00    -0.277 N 
ATOM     10  H2  UNL     1      -7.798   4.701  -1.815  1.00  0.00     0.189 HD
BRANCH   9  11
HETATM   11  N1  UNL     1      -9.126   4.487  -0.186  1.00  0.00    -0.268 N 
HETATM   12  C2  UNL     1     -10.419   3.971  -0.483  1.00  0.00     0.232 C 
HETATM   13  C1  UNL     1     -11.584   4.333   0.363  1.00  0.00     0.119 C 
HETATM   14  O1  UNL     1     -10.642   3.200  -1.452  1.00  0.00    -0.272 OA
ATOM     15  H1  UNL     1      -9.006   5.109   0.613  1.00  0.00     0.190 HD
ENDBRANCH   9  11
ENDBRANCH   8   9
BRANCH   8  16
HETATM   16  O2  UNL     1      -6.122   2.993  -1.419  1.00  0.00    -0.344 OA
ATOM     17  H2  UNL     1      -5.669   2.161  -1.336  1.00  0.00     0.219 HD
ENDBRANCH   8  16
ENDBRANCH   1   8
BRANCH   7  18
HETATM   18  N8  UNL     1      -9.134   0.677  -0.219  1.00  0.00    -0.384 N 
ATOM     19  H82 UNL     1      -9.830   1.359  -0.521  1.00  0.00     0.157 HD
ATOM     20  H81 UNL     1      -9.412  -0.232  -0.589  1.00  0.00     0.157 HD
ENDBRANCH   7  18
BRANCH   4  21
HETATM   21  N5  UNL     1      -6.198   0.533   3.423  1.00  0.00    -0.276 N 
HETATM   22  C6  UNL     1      -6.709   0.833   4.576  1.00  0.00     0.208 C 
HETATM   23  N6  UNL     1      -6.012   0.398   5.732  1.00  0.00    -0.095 NA
ATOM     24  H5  UNL     1      -5.328   0.003   3.380  1.00  0.00     0.189 HD
ENDBRANCH   4  21
TORSDOF 6
ENDMDL
MODEL 3
REMARK VINA RESULT: -6.192435287      3.314      3.818
REMARK  6 active torsions:
REMARK  status: ('A' for Active; 'I' for Inactive)
REMARK       I    between atoms: C2_2  and  N1_4 
REMARK    1  A    between atoms: N1_4  and  N2_6 
REMARK    2  A    between atoms: N2_6  and  C3_8 
REMARK    3  A    between atoms: C3_8  and  O2_9 
REMARK    4  A    between atoms: C3_8  and  C4_11 
REMARK    5  A    between atoms: N4_14  and  N5_15 
REMARK    6  A    between atoms: C7_21  and  N8_22 
ROOT
HETATM    1  C4  UNL     1      -7.636   3.536  -0.067  1.00  0.00     0.105 A 
HETATM    2  C5  UNL     1      -6.919   4.228   0.923  1.00  0.00     0.174 A 
HETATM    3  N3  UNL     1      -7.246   5.542   1.326  1.00  0.00    -0.078 NA
HETATM    4  N4  UNL     1      -5.931   3.453   1.377  1.00  0.00    -0.179 N 
HETATM    5  N7  UNL     1      -5.959   2.306   0.749  1.00  0.00    -0.262 N 
ATOM      6  H7  UNL     1      -5.315   1.530   0.902  1.00  0.00     0.191 HD
HETATM    7  C7  UNL     1      -7.015   2.317  -0.165  1.00  0.00     0.133 A 
ENDROOT
BRANCH   1   8
HETATM    8  C3  UNL     1      -8.768   4.021  -0.793  1.00  0.00     0.172 C 
BRANCH   8   9
HETATM    9  N2  UNL     1      -9.982   4.547  -0.366  1.00  0.00    -0.277 N 
ATOM     10  H2  UNL     1     -10.147   5.550  -0.447  1.00  0.00     0.189 HD
BRANCH   9  11
HETATM   11  N1  UNL     1     -10.994   3.720   0.181  1.00  0.00    -0.268 N 
HETATM   12  C2  UNL     1     -12.218   3.498  -0.512  1.00  0.00     0.232 C 
HETATM   13  C1  UNL     1     -13.266   2.627   0.076  1.00  0.00     0.119 C 
HETATM   14  O1  UNL     1     -12.474   4.014  -1.630  1.00  0.00    -0.272 OA
ATOM     15  H1  UNL     1     -10.843   3.276   1.087  1.00  0.00     0.190 HD
ENDBRANCH   9  11
ENDBRANCH   8   9
BRANCH   8  16
HETATM   16  O2  UNL     1      -8.660   3.966  -2.093  1.00  0.00    -0.344 OA
ATOM     17  H2  UNL     1      -7.766   4.068  -2.399  1.00  0.00     0.219 HD
ENDBRANCH   8  16
ENDBRANCH   1   8
BRANCH   7  18
HETATM   18  N8  UNL     1      -7.214   1.297  -0.881  1.00  0.00    -0.384 N 
ATOM     19  H82 UNL     1      -6.689   0.445  -0.682  1.00  0.00     0.157 HD
ATOM     20  H81 UNL     1      -7.821   1.107  -1.678  1.00  0.00     0.157 HD
ENDBRANCH   7  18
BRANCH   4  21
HETATM   21  N5  UNL     1      -5.024   3.856   2.369  1.00  0.00    -0.276 N 
HETATM   22  C6  UNL     1      -5.151   3.443   3.591  1.00  0.00     0.208 C 
HETATM   23  N6  UNL     1      -4.195   3.895   4.536  1.00  0.00    -0.095 NA
ATOM     24  H5  UNL     1      -4.255   4.481   2.125  1.00  0.00     0.189 HD
ENDBRANCH   4  21
TORSDOF 6
ENDMDL
MODEL 4
REMARK VINA RESULT: -6.180572041      2.903      6.108
REMARK  6 active torsions:
REMARK  status: ('A' for Active; 'I' for Inactive)
REMARK       I    between atoms: C2_2  and  N1_4 
REMARK    1  A    between atoms: N1_4  and  N2_6 
REMARK    2  A    between atoms: N2_6  and  C3_8 
REMARK    3  A    between atoms: C3_8  and  O2_9 
REMARK    4  A    between atoms: C3_8  and  C4_11 
REMARK    5  A    between atoms: N4_14  and  N5_15 
REMARK    6  A    between atoms: C7_21  and  N8_22 
ROOT
HETATM    1  C4  UNL     1      -7.861   2.274  -0.186  1.00  0.00     0.105 A 
HETATM    2  C5  UNL     1      -8.945   2.791  -0.914  1.00  0.00     0.174 A 
HETATM    3  N3  UNL     1      -8.804   3.828  -1.864  1.00  0.00    -0.078 NA
HETATM    4  N4  UNL     1     -10.063   2.155  -0.555  1.00  0.00    -0.179 N 
HETATM    5  N7  UNL     1      -9.776   1.262   0.356  1.00  0.00    -0.262 N 
ATOM      6  H7  UNL     1     -10.446   0.636   0.805  1.00  0.00     0.191 HD
HETATM    7  C7  UNL     1      -8.405   1.304   0.616  1.00  0.00     0.133 A 
ENDROOT
BRANCH   1   8
HETATM    8  C3  UNL     1      -6.496   2.688  -0.285  1.00  0.00     0.172 C 
BRANCH   8   9
HETATM    9  N2  UNL     1      -5.666   3.352   0.611  1.00  0.00    -0.277 N 
ATOM     10  H2  UNL     1      -5.394   4.315   0.419  1.00  0.00     0.189 HD
BRANCH   9  11
HETATM   11  N1  UNL     1      -5.189   2.718   1.785  1.00  0.00    -0.268 N 
HETATM   12  C2  UNL     1      -5.220   3.380   3.045  1.00  0.00     0.232 C 
HETATM   13  C1  UNL     1      -4.718   2.699   4.264  1.00  0.00     0.119 C 
HETATM   14  O1  UNL     1      -5.662   4.549   3.192  1.00  0.00    -0.272 OA
ATOM     15  H1  UNL     1      -4.817   1.769   1.727  1.00  0.00     0.190 HD
ENDBRANCH   9  11
ENDBRANCH   8   9
BRANCH   8  16
HETATM   16  O2  UNL     1      -5.909   2.400  -1.415  1.00  0.00    -0.344 OA
ATOM     17  H2  UNL     1      -6.028   1.495  -1.679  1.00  0.00     0.219 HD
ENDBRANCH   8  16
ENDBRANCH   1   8
BRANCH   7  18
HETATM   18  N8  UNL     1      -7.922   0.516   1.475  1.00  0.00    -0.384 N 
ATOM     19  H82 UNL     1      -7.541   0.902   2.339  1.00  0.00     0.157 HD
ATOM     20  H81 UNL     1      -7.807  -0.497   1.512  1.00  0.00     0.157 HD
ENDBRANCH   7  18
BRANCH   4  21
HETATM   21  N5  UNL     1     -11.326   2.444  -1.094  1.00  0.00    -0.276 N 
HETATM   22  C6  UNL     1     -12.040   3.419  -0.625  1.00  0.00     0.208 C 
HETATM   23  N6  UNL     1     -13.306   3.647  -1.223  1.00  0.00    -0.095 NA
ATOM     24  H5  UNL     1     -11.686   1.880  -1.864  1.00  0.00     0.189 HD
ENDBRANCH   4  21
TORSDOF 6
ENDMDL
MODEL 5
REMARK VINA RESULT: -6.178235583      2.271      2.560
REMARK  6 active torsions:
REMARK  status: ('A' for Active; 'I' for Inactive)
REMARK       I    between atoms: C2_2  and  N1_4 
REMARK    1  A    between atoms: N1_4  and  N2_6 
REMARK    2  A    between atoms: N2_6  and  C3_8 
REMARK    3  A    between atoms: C3_8  and  O2_9 
REMARK    4  A    between atoms: C3_8  and  C4_11 
REMARK    5  A    between atoms: N4_14  and  N5_15 
REMARK    6  A    between atoms: C7_21  and  N8_22 
ROOT
HETATM    1  C4  UNL     1      -6.953   1.834   0.596  1.00  0.00     0.105 A 
HETATM    2  C5  UNL     1      -6.460   1.347   1.817  1.00  0.00     0.174 A 
HETATM    3  N3  UNL     1      -6.943   0.163   2.419  1.00  0.00    -0.078 NA
HETATM    4  N4  UNL     1      -5.510   2.168   2.269  1.00  0.00    -0.179 N 
HETATM    5  N7  UNL     1      -5.354   3.154   1.424  1.00  0.00    -0.262 N 
ATOM      6  H7  UNL     1      -4.692   3.924   1.526  1.00  0.00     0.191 HD
HETATM    7  C7  UNL     1      -6.241   2.982   0.360  1.00  0.00     0.133 A 
ENDROOT
BRANCH   1   8
HETATM    8  C3  UNL     1      -7.975   1.237  -0.208  1.00  0.00     0.172 C 
BRANCH   8   9
HETATM    9  N2  UNL     1      -9.267   0.827   0.098  1.00  0.00    -0.277 N 
ATOM     10  H2  UNL     1      -9.456  -0.166   0.236  1.00  0.00     0.189 HD
BRANCH   9  11
HETATM   11  N1  UNL     1     -10.328   1.758   0.223  1.00  0.00    -0.268 N 
HETATM   12  C2  UNL     1     -10.754   2.543  -0.886  1.00  0.00     0.232 C 
HETATM   13  C1  UNL     1     -11.868   3.512  -0.736  1.00  0.00     0.119 C 
HETATM   14  O1  UNL     1     -10.224   2.463  -2.024  1.00  0.00    -0.272 OA
ATOM     15  H1  UNL     1     -10.795   1.868   1.124  1.00  0.00     0.190 HD
ENDBRANCH   9  11
ENDBRANCH   8   9
BRANCH   8  16
HETATM   16  O2  UNL     1      -7.651   1.032  -1.456  1.00  0.00    -0.344 OA
ATOM     17  H2  UNL     1      -6.958   1.605  -1.763  1.00  0.00     0.219 HD
ENDBRANCH   8  16
ENDBRANCH   1   8
BRANCH   7  18
HETATM   18  N8  UNL     1      -6.252   3.835  -0.570  1.00  0.00    -0.384 N 
ATOM     19  H82 UNL     1      -7.037   4.482  -0.636  1.00  0.00     0.157 HD
ATOM     20  H81 UNL     1      -5.613   4.045  -1.337  1.00  0.00     0.157 HD
ENDBRANCH   7  18
BRANCH   4  21
HETATM   21  N5  UNL     1      -4.821   1.966   3.475  1.00  0.00    -0.276 N 
HETATM   22  C6  UNL     1      -4.547   2.964   4.257  1.00  0.00     0.208 C 
HETATM   23  N6  UNL     1      -3.847   2.679   5.457  1.00  0.00    -0.095 NA
ATOM     24  H5  UNL     1      -4.533   1.024   3.740  1.00  0.00     0.189 HD
ENDBRANCH   4  21
TORSDOF 6
ENDMDL
