MODEL 1
REMARK VINA RESULT: -6.570943706      0.000      0.000
REMARK  4 active torsions:
REMARK  status: ('A' for Active; 'I' for Inactive)
REMARK    1  A    between atoms: N1_1  and  C1_4 
REMARK    2  A    between atoms: C2_7  and  C3_8 
REMARK       I    between atoms: C3_8  and  N3_10 
REMARK    3  A    between atoms: N3_10  and  N4_12 
REMARK    4  A    between atoms: N6_17  and  O2_18 
ROOT
HETATM    1  C1  UNL     1     -10.302 -28.996 -26.449  1.00  0.00     0.695 A 
HETATM    2  N2  UNL     1     -11.634 -29.077 -26.274  1.00  0.00    -0.169 N 
ATOM      3  H2  UNL     1     -12.021 -28.830 -25.364  1.00  0.00     0.186 HD
HETATM    4  C2  UNL     1     -12.478 -29.468 -27.244  1.00  0.00     0.208 A 
HETATM    5  N5  UNL     1     -11.933 -29.785 -28.429  1.00  0.00    -0.238 N 
ATOM      6  H5  UNL     1     -12.539 -30.086 -29.192  1.00  0.00     0.193 HD
HETATM    7  N6  UNL     1     -10.629 -29.714 -28.629  1.00  0.00    -0.079 N 
HETATM    8  N7  UNL     1      -9.813 -29.326 -27.658  1.00  0.00    -0.090 N 
ATOM      9  H7  UNL     1      -8.809 -29.276 -27.829  1.00  0.00     0.210 HD
ENDROOT
BRANCH   4  10
HETATM   10  C3  UNL     1     -13.915 -29.537 -26.998  1.00  0.00     0.305 C 
HETATM   11  O1  UNL     1     -14.423 -30.446 -26.328  1.00  0.00    -0.263 OA
HETATM   12  N3  UNL     1     -14.759 -28.538 -27.537  1.00  0.00    -0.270 N 
ATOM     13  H3  UNL     1     -14.337 -27.791 -28.088  1.00  0.00     0.189 HD
BRANCH  12  14
HETATM   14  N4  UNL     1     -16.139 -28.527 -27.351  1.00  0.00    -0.342 N 
ATOM     15  H42 UNL     1     -16.538 -29.249 -26.752  1.00  0.00     0.176 HD
ATOM     16  H41 UNL     1     -16.753 -27.836 -27.783  1.00  0.00     0.176 HD
ENDBRANCH  12  14
ENDBRANCH   4  10
BRANCH   1  17
HETATM   17  N1  UNL     1      -9.497 -28.612 -25.490  1.00  0.00    -0.233 N 
ATOM     18  H12 UNL     1      -9.531 -29.063 -24.576  1.00  0.00     0.174 HD
ATOM     19  H11 UNL     1      -8.818 -27.862 -25.621  1.00  0.00     0.174 HD
ENDBRANCH   1  17
BRANCH   7  20
HETATM   20  O2  UNL     1     -10.073 -30.045 -29.862  1.00  0.00    -0.253 OA
ATOM     21  H2  UNL     1      -9.512 -30.806 -29.958  1.00  0.00     0.248 HD
ENDBRANCH   7  20
TORSDOF 4
ENDMDL
MODEL 2
REMARK VINA RESULT: -6.543094852      1.015      1.015
REMARK  4 active torsions:
REMARK  status: ('A' for Active; 'I' for Inactive)
REMARK    1  A    between atoms: N1_1  and  C1_4 
REMARK    2  A    between atoms: C2_7  and  C3_8 
REMARK       I    between atoms: C3_8  and  N3_10 
REMARK    3  A    between atoms: N3_10  and  N4_12 
REMARK    4  A    between atoms: N6_17  and  O2_18 
ROOT
HETATM    1  C1  UNL     1      -9.885 -29.349 -26.585  1.00  0.00     0.695 A 
HETATM    2  N2  UNL     1     -11.173 -29.313 -26.194  1.00  0.00    -0.169 N 
ATOM      3  H2  UNL     1     -11.379 -29.115 -25.216  1.00  0.00     0.186 HD
HETATM    4  C2  UNL     1     -12.199 -29.528 -27.034  1.00  0.00     0.208 A 
HETATM    5  N5  UNL     1     -11.890 -29.786 -28.315  1.00  0.00    -0.238 N 
ATOM      6  H5  UNL     1     -12.640 -29.955 -28.984  1.00  0.00     0.193 HD
HETATM    7  N6  UNL     1     -10.635 -29.827 -28.726  1.00  0.00    -0.079 N 
HETATM    8  N7  UNL     1      -9.636 -29.613 -27.880  1.00  0.00    -0.090 N 
ATOM      9  H7  UNL     1      -8.672 -29.647 -28.214  1.00  0.00     0.210 HD
ENDROOT
BRANCH   4  10
HETATM   10  C3  UNL     1     -13.577 -29.477 -26.555  1.00  0.00     0.305 C 
HETATM   11  O1  UNL     1     -14.429 -30.298 -26.920  1.00  0.00    -0.263 OA
HETATM   12  N3  UNL     1     -13.957 -28.462 -25.645  1.00  0.00    -0.270 N 
ATOM     13  H3  UNL     1     -13.252 -27.788 -25.347  1.00  0.00     0.189 HD
BRANCH  12  14
HETATM   14  N4  UNL     1     -15.248 -28.341 -25.138  1.00  0.00    -0.342 N 
ATOM     15  H42 UNL     1     -15.726 -27.452 -25.279  1.00  0.00     0.176 HD
ATOM     16  H41 UNL     1     -15.723 -29.094 -24.640  1.00  0.00     0.176 HD
ENDBRANCH  12  14
ENDBRANCH   4  10
BRANCH   1  17
HETATM   17  N1  UNL     1      -8.899 -29.137 -25.750  1.00  0.00    -0.233 N 
ATOM     18  H12 UNL     1      -8.958 -28.388 -25.060  1.00  0.00     0.174 HD
ATOM     19  H11 UNL     1      -8.051 -29.703 -25.759  1.00  0.00     0.174 HD
ENDBRANCH   1  17
BRANCH   7  20
HETATM   20  O2  UNL     1     -10.324 -30.096 -30.056  1.00  0.00    -0.253 OA
ATOM     21  H2  UNL     1     -10.101 -29.397 -30.658  1.00  0.00     0.248 HD
ENDBRANCH   7  20
TORSDOF 4
ENDMDL
MODEL 3
REMARK VINA RESULT: -6.463817126      1.854      1.854
REMARK  4 active torsions:
REMARK  status: ('A' for Active; 'I' for Inactive)
REMARK    1  A    between atoms: N1_1  and  C1_4 
REMARK    2  A    between atoms: C2_7  and  C3_8 
REMARK       I    between atoms: C3_8  and  N3_10 
REMARK    3  A    between atoms: N3_10  and  N4_12 
REMARK    4  A    between atoms: N6_17  and  O2_18 
ROOT
HETATM    1  C1  UNL     1     -10.144 -30.041 -26.776  1.00  0.00     0.695 A 
HETATM    2  N2  UNL     1     -11.200 -29.300 -26.392  1.00  0.00    -0.169 N 
ATOM      3  H2  UNL     1     -11.358 -29.160 -25.395  1.00  0.00     0.186 HD
HETATM    4  C2  UNL     1     -12.055 -28.738 -27.262  1.00  0.00     0.208 A 
HETATM    5  N5  UNL     1     -11.816 -28.945 -28.566  1.00  0.00    -0.238 N 
ATOM      6  H5  UNL     1     -12.442 -28.535 -29.259  1.00  0.00     0.193 HD
HETATM    7  N6  UNL     1     -10.787 -29.668 -28.972  1.00  0.00    -0.079 N 
HETATM    8  N7  UNL     1      -9.954 -30.214 -28.097  1.00  0.00    -0.090 N 
ATOM      9  H7  UNL     1      -9.164 -30.769 -28.427  1.00  0.00     0.210 HD
ENDROOT
BRANCH   4  10
HETATM   10  C3  UNL     1     -13.185 -27.943 -26.788  1.00  0.00     0.305 C 
HETATM   11  O1  UNL     1     -14.330 -28.102 -27.231  1.00  0.00    -0.263 OA
HETATM   12  N3  UNL     1     -12.972 -26.962 -25.792  1.00  0.00    -0.270 N 
ATOM     13  H3  UNL     1     -12.027 -26.835 -25.429  1.00  0.00     0.189 HD
BRANCH  12  14
HETATM   14  N4  UNL     1     -13.991 -26.162 -25.283  1.00  0.00    -0.342 N 
ATOM     15  H42 UNL     1     -14.367 -25.436 -25.892  1.00  0.00     0.176 HD
ATOM     16  H41 UNL     1     -14.369 -26.273 -24.342  1.00  0.00     0.176 HD
ENDBRANCH  12  14
ENDBRANCH   4  10
BRANCH   1  17
HETATM   17  N1  UNL     1      -9.322 -30.581 -25.912  1.00  0.00    -0.233 N 
ATOM     18  H12 UNL     1      -9.506 -31.511 -25.534  1.00  0.00     0.174 HD
ATOM     19  H11 UNL     1      -8.481 -30.101 -25.591  1.00  0.00     0.174 HD
ENDBRANCH   1  17
BRANCH   7  20
HETATM   20  O2  UNL     1     -10.546 -29.876 -30.327  1.00  0.00    -0.253 OA
ATOM     21  H2  UNL     1     -10.030 -30.616 -30.625  1.00  0.00     0.248 HD
ENDBRANCH   7  20
TORSDOF 4
ENDMDL
MODEL 4
REMARK VINA RESULT: -6.457497654      2.250      4.276
REMARK  4 active torsions:
REMARK  status: ('A' for Active; 'I' for Inactive)
REMARK    1  A    between atoms: N1_1  and  C1_4 
REMARK    2  A    between atoms: C2_7  and  C3_8 
REMARK       I    between atoms: C3_8  and  N3_10 
REMARK    3  A    between atoms: N3_10  and  N4_12 
REMARK    4  A    between atoms: N6_17  and  O2_18 
ROOT
HETATM    1  C1  UNL     1     -12.246 -28.548 -27.723  1.00  0.00     0.695 A 
HETATM    2  N2  UNL     1     -11.341 -29.004 -26.836  1.00  0.00    -0.169 N 
ATOM      3  H2  UNL     1     -11.483 -28.799 -25.848  1.00  0.00     0.186 HD
HETATM    4  C2  UNL     1     -10.260 -29.715 -27.194  1.00  0.00     0.208 A 
HETATM    5  N5  UNL     1     -10.106 -29.966 -28.504  1.00  0.00    -0.238 N 
ATOM      6  H5  UNL     1      -9.297 -30.503 -28.817  1.00  0.00     0.193 HD
HETATM    7  N6  UNL     1     -10.978 -29.531 -29.396  1.00  0.00    -0.079 N 
HETATM    8  N7  UNL     1     -12.039 -28.830 -29.022  1.00  0.00    -0.090 N 
ATOM      9  H7  UNL     1     -12.704 -28.502 -29.723  1.00  0.00     0.210 HD
ENDROOT
BRANCH   4  10
HETATM   10  C3  UNL     1      -9.311 -30.184 -26.189  1.00  0.00     0.305 C 
HETATM   11  O1  UNL     1      -8.429 -29.449 -25.726  1.00  0.00    -0.263 OA
HETATM   12  N3  UNL     1      -9.396 -31.518 -25.725  1.00  0.00    -0.270 N 
ATOM     13  H3  UNL     1     -10.124 -32.120 -26.109  1.00  0.00     0.189 HD
BRANCH  12  14
HETATM   14  N4  UNL     1      -8.533 -32.046 -24.768  1.00  0.00    -0.342 N 
ATOM     15  H42 UNL     1      -7.533 -32.001 -24.962  1.00  0.00     0.176 HD
ATOM     16  H41 UNL     1      -8.858 -32.469 -23.899  1.00  0.00     0.176 HD
ENDBRANCH  12  14
ENDBRANCH   4  10
BRANCH   1  17
HETATM   17  N1  UNL     1     -13.294 -27.856 -27.353  1.00  0.00    -0.233 N 
ATOM     18  H12 UNL     1     -13.200 -27.093 -26.682  1.00  0.00     0.174 HD
ATOM     19  H11 UNL     1     -14.227 -28.050 -27.717  1.00  0.00     0.174 HD
ENDBRANCH   1  17
BRANCH   7  20
HETATM   20  O2  UNL     1     -10.810 -29.796 -30.753  1.00  0.00    -0.253 OA
ATOM     21  H2  UNL     1     -10.839 -29.097 -31.395  1.00  0.00     0.248 HD
ENDBRANCH   7  20
TORSDOF 4
ENDMDL
MODEL 5
REMARK VINA RESULT: -6.321972786      2.378      2.937
REMARK  4 active torsions:
REMARK  status: ('A' for Active; 'I' for Inactive)
REMARK    1  A    between atoms: N1_1  and  C1_4 
REMARK    2  A    between atoms: C2_7  and  C3_8 
REMARK       I    between atoms: C3_8  and  N3_10 
REMARK    3  A    between atoms: N3_10  and  N4_12 
REMARK    4  A    between atoms: N6_17  and  O2_18 
ROOT
HETATM    1  C1  UNL     1     -10.471 -29.498 -28.379  1.00  0.00     0.695 A 
HETATM    2  N2  UNL     1     -11.627 -28.893 -28.048  1.00  0.00    -0.169 N 
ATOM      3  H2  UNL     1     -12.377 -28.867 -28.737  1.00  0.00     0.186 HD
HETATM    4  C2  UNL     1     -11.836 -28.320 -26.851  1.00  0.00     0.208 A 
HETATM    5  N5  UNL     1     -10.826 -28.372 -25.969  1.00  0.00    -0.238 N 
ATOM      6  H5  UNL     1     -10.945 -27.949 -25.049  1.00  0.00     0.193 HD
HETATM    7  N6  UNL     1      -9.680 -28.960 -26.267  1.00  0.00    -0.079 N 
HETATM    8  N7  UNL     1      -9.494 -29.519 -27.455  1.00  0.00    -0.090 N 
ATOM      9  H7  UNL     1      -8.603 -29.969 -27.669  1.00  0.00     0.210 HD
ENDROOT
BRANCH   4  10
HETATM   10  C3  UNL     1     -13.111 -27.677 -26.546  1.00  0.00     0.305 C 
HETATM   11  O1  UNL     1     -14.165 -28.011 -27.104  1.00  0.00    -0.263 OA
HETATM   12  N3  UNL     1     -13.151 -26.641 -25.584  1.00  0.00    -0.270 N 
ATOM     13  H3  UNL     1     -12.282 -26.369 -25.127  1.00  0.00     0.189 HD
BRANCH  12  14
HETATM   14  N4  UNL     1     -14.323 -25.976 -25.232  1.00  0.00    -0.342 N 
ATOM     15  H42 UNL     1     -15.079 -26.533 -24.835  1.00  0.00     0.176 HD
ATOM     16  H41 UNL     1     -14.450 -24.971 -25.353  1.00  0.00     0.176 HD
ENDBRANCH  12  14
ENDBRANCH   4  10
BRANCH   1  17
HETATM   17  N1  UNL     1     -10.287 -30.050 -29.552  1.00  0.00    -0.233 N 
ATOM     18  H12 UNL     1     -10.990 -30.677 -29.945  1.00  0.00     0.174 HD
ATOM     19  H11 UNL     1      -9.448 -29.877 -30.107  1.00  0.00     0.174 HD
ENDBRANCH   1  17
BRANCH   7  20
HETATM   20  O2  UNL     1      -8.638 -29.009 -25.346  1.00  0.00    -0.253 OA
ATOM     21  H2  UNL     1      -7.861 -28.475 -25.457  1.00  0.00     0.248 HD
ENDBRANCH   7  20
TORSDOF 4
ENDMDL
