MODEL 1
REMARK VINA RESULT: -6.699019860      0.000      0.000
REMARK  4 active torsions:
REMARK  status: ('A' for Active; 'I' for Inactive)
REMARK    1  A    between atoms: N1_1  and  N2_4 
REMARK    2  A    between atoms: N2_4  and  C1_6 
REMARK    3  A    between atoms: C3_8  and  C4_9 
REMARK       I    between atoms: C4_9  and  N3_11 
REMARK    4  A    between atoms: N3_11  and  N4_13 
ROOT
HETATM    1  C1  UNL     1     -11.627 -28.891 -27.103  1.00  0.00     0.137 A 
HETATM    2  C2  UNL     1     -12.981 -28.664 -27.229  1.00  0.00     0.088 A 
HETATM    3  C3  UNL     1     -13.827 -29.644 -26.719  1.00  0.00     0.122 A 
HETATM    4  N5  UNL     1     -13.233 -30.707 -26.158  1.00  0.00    -0.281 N 
ATOM      5  H5  UNL     1     -13.840 -31.434 -25.779  1.00  0.00     0.188 HD
HETATM    6  N6  UNL     1     -11.938 -30.892 -26.055  1.00  0.00    -0.241 N 
ATOM      7  H6  UNL     1     -11.577 -31.736 -25.610  1.00  0.00     0.208 HD
HETATM    8  N7  UNL     1     -11.103 -29.983 -26.528  1.00  0.00    -0.270 N 
ATOM      9  H7  UNL     1     -10.093 -30.109 -26.457  1.00  0.00     0.190 HD
ENDROOT
BRANCH   3  10
HETATM   10  C4  UNL     1     -15.278 -29.510 -26.796  1.00  0.00     0.287 C 
HETATM   11  O1  UNL     1     -15.955 -30.559 -26.685  1.00  0.00    -0.264 OA
HETATM   12  N3  UNL     1     -15.925 -28.268 -26.988  1.00  0.00    -0.271 N 
ATOM     13  H3  UNL     1     -15.381 -27.410 -27.079  1.00  0.00     0.189 HD
BRANCH  12  14
HETATM   14  N4  UNL     1     -17.319 -28.231 -27.050  1.00  0.00    -0.342 N 
ATOM     15  H42 UNL     1     -17.861 -28.988 -26.632  1.00  0.00     0.176 HD
ATOM     16  H41 UNL     1     -17.775 -27.445 -27.514  1.00  0.00     0.176 HD
ENDBRANCH  12  14
ENDBRANCH   3  10
BRANCH   1  17
HETATM   17  N2  UNL     1     -10.818 -27.998 -27.567  1.00  0.00    -0.291 N 
ATOM     18  H2  UNL     1     -10.842 -27.057 -27.173  1.00  0.00     0.188 HD
BRANCH  17  19
HETATM   19  N1  UNL     1      -9.917 -28.277 -28.585  1.00  0.00    -0.344 N 
ATOM     20  H12 UNL     1      -8.939 -28.421 -28.333  1.00  0.00     0.176 HD
ATOM     21  H11 UNL     1     -10.206 -28.341 -29.562  1.00  0.00     0.176 HD
ENDBRANCH  17  19
ENDBRANCH   1  17
TORSDOF 4
ENDMDL
MODEL 2
REMARK VINA RESULT: -6.655258845      1.741      2.512
REMARK  4 active torsions:
REMARK  status: ('A' for Active; 'I' for Inactive)
REMARK    1  A    between atoms: N1_1  and  N2_4 
REMARK    2  A    between atoms: N2_4  and  C1_6 
REMARK    3  A    between atoms: C3_8  and  C4_9 
REMARK       I    between atoms: C4_9  and  N3_11 
REMARK    4  A    between atoms: N3_11  and  N4_13 
ROOT
HETATM    1  C1  UNL     1     -10.135 -29.163 -27.388  1.00  0.00     0.137 A 
HETATM    2  C2  UNL     1     -11.405 -29.452 -26.935  1.00  0.00     0.088 A 
HETATM    3  C3  UNL     1     -12.461 -29.072 -27.758  1.00  0.00     0.122 A 
HETATM    4  N5  UNL     1     -12.130 -28.465 -28.906  1.00  0.00    -0.281 N 
ATOM      5  H5  UNL     1     -12.893 -28.180 -29.520  1.00  0.00     0.188 HD
HETATM    6  N6  UNL     1     -10.908 -28.204 -29.308  1.00  0.00    -0.241 N 
ATOM      7  H6  UNL     1     -10.752 -27.736 -30.201  1.00  0.00     0.208 HD
HETATM    8  N7  UNL     1      -9.879 -28.550 -28.553  1.00  0.00    -0.270 N 
ATOM      9  H7  UNL     1      -8.922 -28.356 -28.848  1.00  0.00     0.190 HD
ENDROOT
BRANCH   3  10
HETATM   10  C4  UNL     1     -13.847 -29.327 -27.381  1.00  0.00     0.287 C 
HETATM   11  O1  UNL     1     -14.083 -30.386 -26.753  1.00  0.00    -0.264 OA
HETATM   12  N3  UNL     1     -14.904 -28.441 -27.694  1.00  0.00    -0.271 N 
ATOM     13  H3  UNL     1     -14.720 -27.578 -28.205  1.00  0.00     0.189 HD
BRANCH  12  14
HETATM   14  N4  UNL     1     -16.202 -28.764 -27.295  1.00  0.00    -0.342 N 
ATOM     15  H42 UNL     1     -16.353 -29.562 -26.677  1.00  0.00     0.176 HD
ATOM     16  H41 UNL     1     -16.980 -28.195 -27.629  1.00  0.00     0.176 HD
ENDBRANCH  12  14
ENDBRANCH   3  10
BRANCH   1  17
HETATM   17  N2  UNL     1      -9.135 -29.505 -26.646  1.00  0.00    -0.291 N 
ATOM     18  H2  UNL     1      -8.503 -30.235 -26.974  1.00  0.00     0.188 HD
BRANCH  17  19
HETATM   19  N1  UNL     1      -8.895 -28.910 -25.415  1.00  0.00    -0.344 N 
ATOM     20  H12 UNL     1      -8.034 -29.155 -24.925  1.00  0.00     0.176 HD
ATOM     21  H11 UNL     1      -9.547 -28.245 -24.998  1.00  0.00     0.176 HD
ENDBRANCH  17  19
ENDBRANCH   1  17
TORSDOF 4
ENDMDL
MODEL 3
REMARK VINA RESULT: -6.453626481      1.881      2.702
REMARK  4 active torsions:
REMARK  status: ('A' for Active; 'I' for Inactive)
REMARK    1  A    between atoms: N1_1  and  N2_4 
REMARK    2  A    between atoms: N2_4  and  C1_6 
REMARK    3  A    between atoms: C3_8  and  C4_9 
REMARK       I    between atoms: C4_9  and  N3_11 
REMARK    4  A    between atoms: N3_11  and  N4_13 
ROOT
HETATM    1  C1  UNL     1     -10.063 -29.902 -26.172  1.00  0.00     0.137 A 
HETATM    2  C2  UNL     1     -11.360 -30.203 -26.534  1.00  0.00     0.088 A 
HETATM    3  C3  UNL     1     -12.261 -29.144 -26.554  1.00  0.00     0.122 A 
HETATM    4  N5  UNL     1     -11.773 -27.941 -26.218  1.00  0.00    -0.281 N 
ATOM      5  H5  UNL     1     -12.423 -27.154 -26.228  1.00  0.00     0.188 HD
HETATM    6  N6  UNL     1     -10.531 -27.690 -25.877  1.00  0.00    -0.241 N 
ATOM      7  H6  UNL     1     -10.250 -26.739 -25.637  1.00  0.00     0.208 HD
HETATM    8  N7  UNL     1      -9.645 -28.670 -25.847  1.00  0.00    -0.270 N 
ATOM      9  H7  UNL     1      -8.675 -28.495 -25.584  1.00  0.00     0.190 HD
ENDROOT
BRANCH   3  10
HETATM   10  C4  UNL     1     -13.659 -29.343 -26.923  1.00  0.00     0.287 C 
HETATM   11  O1  UNL     1     -14.104 -30.514 -26.865  1.00  0.00    -0.264 OA
HETATM   12  N3  UNL     1     -14.504 -28.286 -27.332  1.00  0.00    -0.271 N 
ATOM     13  H3  UNL     1     -14.150 -27.331 -27.382  1.00  0.00     0.189 HD
BRANCH  12  14
HETATM   14  N4  UNL     1     -15.830 -28.567 -27.668  1.00  0.00    -0.342 N 
ATOM     15  H42 UNL     1     -16.409 -27.835 -28.081  1.00  0.00     0.176 HD
ATOM     16  H41 UNL     1     -16.197 -29.503 -27.495  1.00  0.00     0.176 HD
ENDBRANCH  12  14
ENDBRANCH   3  10
BRANCH   1  17
HETATM   17  N2  UNL     1      -9.204 -30.866 -26.145  1.00  0.00    -0.291 N 
ATOM     18  H2  UNL     1      -8.679 -31.084 -26.992  1.00  0.00     0.188 HD
BRANCH  17  19
HETATM   19  N1  UNL     1      -8.971 -31.614 -24.999  1.00  0.00    -0.344 N 
ATOM     20  H12 UNL     1      -8.273 -31.272 -24.338  1.00  0.00     0.176 HD
ATOM     21  H11 UNL     1      -9.473 -32.481 -24.808  1.00  0.00     0.176 HD
ENDBRANCH  17  19
ENDBRANCH   1  17
TORSDOF 4
ENDMDL
MODEL 4
REMARK VINA RESULT: -6.447188202      1.872      2.128
REMARK  4 active torsions:
REMARK  status: ('A' for Active; 'I' for Inactive)
REMARK    1  A    between atoms: N1_1  and  N2_4 
REMARK    2  A    between atoms: N2_4  and  C1_6 
REMARK    3  A    between atoms: C3_8  and  C4_9 
REMARK       I    between atoms: C4_9  and  N3_11 
REMARK    4  A    between atoms: N3_11  and  N4_13 
ROOT
HETATM    1  C1  UNL     1     -11.265 -28.509 -28.440  1.00  0.00     0.137 A 
HETATM    2  C2  UNL     1     -12.625 -28.535 -28.214  1.00  0.00     0.088 A 
HETATM    3  C3  UNL     1     -13.049 -28.209 -26.930  1.00  0.00     0.122 A 
HETATM    4  N5  UNL     1     -12.089 -27.903 -26.047  1.00  0.00    -0.281 N 
ATOM      5  H5  UNL     1     -12.384 -27.662 -25.101  1.00  0.00     0.188 HD
HETATM    6  N6  UNL     1     -10.800 -27.889 -26.295  1.00  0.00    -0.241 N 
ATOM      7  H6  UNL     1     -10.140 -27.642 -25.557  1.00  0.00     0.208 HD
HETATM    8  N7  UNL     1     -10.358 -28.193 -27.504  1.00  0.00    -0.270 N 
ATOM      9  H7  UNL     1      -9.361 -28.187 -27.717  1.00  0.00     0.190 HD
ENDROOT
BRANCH   3  10
HETATM   10  C4  UNL     1     -14.465 -28.202 -26.577  1.00  0.00     0.287 C 
HETATM   11  O1  UNL     1     -14.753 -28.001 -25.374  1.00  0.00    -0.264 OA
HETATM   12  N3  UNL     1     -15.494 -28.412 -27.524  1.00  0.00    -0.271 N 
ATOM     13  H3  UNL     1     -15.268 -28.576 -28.505  1.00  0.00     0.189 HD
BRANCH  12  14
HETATM   14  N4  UNL     1     -16.824 -28.390 -27.099  1.00  0.00    -0.342 N 
ATOM     15  H42 UNL     1     -17.441 -27.643 -27.419  1.00  0.00     0.176 HD
ATOM     16  H41 UNL     1     -17.156 -29.123 -26.472  1.00  0.00     0.176 HD
ENDBRANCH  12  14
ENDBRANCH   3  10
BRANCH   1  17
HETATM   17  N2  UNL     1     -10.842 -28.807 -29.623  1.00  0.00    -0.291 N 
ATOM     18  H2  UNL     1     -10.528 -28.057 -30.239  1.00  0.00     0.188 HD
BRANCH  17  19
HETATM   19  N1  UNL     1     -10.802 -30.116 -30.083  1.00  0.00    -0.344 N 
ATOM     20  H12 UNL     1     -11.346 -30.347 -30.915  1.00  0.00     0.176 HD
ATOM     21  H11 UNL     1     -10.252 -30.837 -29.617  1.00  0.00     0.176 HD
ENDBRANCH  17  19
ENDBRANCH   1  17
TORSDOF 4
ENDMDL
MODEL 5
REMARK VINA RESULT: -6.422307213      1.482      1.847
REMARK  4 active torsions:
REMARK  status: ('A' for Active; 'I' for Inactive)
REMARK    1  A    between atoms: N1_1  and  N2_4 
REMARK    2  A    between atoms: N2_4  and  C1_6 
REMARK    3  A    between atoms: C3_8  and  C4_9 
REMARK       I    between atoms: C4_9  and  N3_11 
REMARK    4  A    between atoms: N3_11  and  N4_13 
ROOT
HETATM    1  C1  UNL     1     -10.911 -29.319 -28.049  1.00  0.00     0.137 A 
HETATM    2  C2  UNL     1     -12.263 -29.591 -28.016  1.00  0.00     0.088 A 
HETATM    3  C3  UNL     1     -13.000 -28.964 -27.016  1.00  0.00     0.122 A 
HETATM    4  N5  UNL     1     -12.316 -28.161 -26.189  1.00  0.00    -0.281 N 
ATOM      5  H5  UNL     1     -12.843 -27.694 -25.451  1.00  0.00     0.188 HD
HETATM    6  N6  UNL     1     -11.027 -27.923 -26.248  1.00  0.00    -0.241 N 
ATOM      7  H6  UNL     1     -10.591 -27.294 -25.574  1.00  0.00     0.208 HD
HETATM    8  N7  UNL     1     -10.293 -28.500 -27.185  1.00  0.00    -0.270 N 
ATOM      9  H7  UNL     1      -9.290 -28.329 -27.248  1.00  0.00     0.190 HD
ENDROOT
BRANCH   3  10
HETATM   10  C4  UNL     1     -14.438 -29.178 -26.885  1.00  0.00     0.287 C 
HETATM   11  O1  UNL     1     -14.814 -30.308 -26.496  1.00  0.00    -0.264 OA
HETATM   12  N3  UNL     1     -15.392 -28.176 -27.176  1.00  0.00    -0.271 N 
ATOM     13  H3  UNL     1     -15.094 -27.254 -27.493  1.00  0.00     0.189 HD
BRANCH  12  14
HETATM   14  N4  UNL     1     -16.749 -28.466 -27.024  1.00  0.00    -0.342 N 
ATOM     15  H42 UNL     1     -17.390 -27.730 -26.727  1.00  0.00     0.176 HD
ATOM     16  H41 UNL     1     -17.078 -29.413 -27.213  1.00  0.00     0.176 HD
ENDBRANCH  12  14
ENDBRANCH   3  10
BRANCH   1  17
HETATM   17  N2  UNL     1     -10.202 -29.886 -28.967  1.00  0.00    -0.291 N 
ATOM     18  H2  UNL     1      -9.229 -30.118 -28.766  1.00  0.00     0.188 HD
BRANCH  17  19
HETATM   19  N1  UNL     1     -10.722 -30.189 -30.217  1.00  0.00    -0.344 N 
ATOM     20  H12 UNL     1     -11.653 -29.839 -30.446  1.00  0.00     0.176 HD
ATOM     21  H11 UNL     1     -10.204 -30.743 -30.900  1.00  0.00     0.176 HD
ENDBRANCH  17  19
ENDBRANCH   1  17
TORSDOF 4
ENDMDL
