MODEL 1
REMARK VINA RESULT: -6.340230741      0.000      0.000
REMARK  4 active torsions:
REMARK  status: ('A' for Active; 'I' for Inactive)
REMARK    1  A    between atoms: N2_5  and  O1_6 
REMARK    2  A    between atoms: C3_8  and  C4_9 
REMARK       I    between atoms: C4_9  and  N3_11 
REMARK    3  A    between atoms: N3_11  and  N4_13 
REMARK    4  A    between atoms: C5_16  and  N5_17 
ROOT
HETATM    1  C1  UNL     1     -14.746 -28.554 -27.850  1.00  0.00     0.091 C 
HETATM    2  C2  UNL     1     -13.336 -29.029 -27.574  1.00  0.00     0.095 A 
HETATM    3  N1  UNL     1     -13.091 -30.029 -26.734  1.00  0.00    -0.263 N 
ATOM      4  H1  UNL     1     -13.884 -30.475 -26.274  1.00  0.00     0.191 HD
HETATM    5  N2  UNL     1     -11.886 -30.477 -26.461  1.00  0.00    -0.153 N 
HETATM    6  C3  UNL     1     -10.815 -29.888 -27.070  1.00  0.00     0.193 A 
HETATM    7  C5  UNL     1     -11.029 -28.841 -27.953  1.00  0.00     0.137 A 
HETATM    8  N6  UNL     1     -12.322 -28.439 -28.177  1.00  0.00    -0.330 N 
ATOM      9  H6  UNL     1     -12.502 -27.669 -28.823  1.00  0.00     0.168 HD
ENDROOT
BRANCH   6  10
HETATM   10  C4  UNL     1      -9.470 -30.376 -26.835  1.00  0.00     0.294 C 
HETATM   11  O2  UNL     1      -8.663 -29.678 -26.176  1.00  0.00    -0.264 OA
HETATM   12  N3  UNL     1      -9.018 -31.616 -27.320  1.00  0.00    -0.271 N 
ATOM     13  H3  UNL     1      -9.644 -32.207 -27.866  1.00  0.00     0.189 HD
BRANCH  12  14
HETATM   14  N4  UNL     1      -7.680 -32.050 -27.051  1.00  0.00    -0.342 N 
ATOM     15  H42 UNL     1      -7.139 -32.476 -27.804  1.00  0.00     0.176 HD
ATOM     16  H41 UNL     1      -7.280 -31.933 -26.120  1.00  0.00     0.176 HD
ENDBRANCH  12  14
ENDBRANCH   6  10
BRANCH   5  17
HETATM   17  O1  UNL     1     -11.666 -31.484 -25.569  1.00  0.00    -0.267 OA
ATOM     18  H1  UNL     1     -12.064 -31.496 -24.706  1.00  0.00     0.247 HD
ENDBRANCH   5  17
BRANCH   7  19
HETATM   19  N5  UNL     1     -10.131 -28.227 -28.612  1.00  0.00    -0.383 N 
ATOM     20  H52 UNL     1      -9.267 -28.024 -28.109  1.00  0.00     0.157 HD
ATOM     21  H51 UNL     1     -10.212 -27.906 -29.577  1.00  0.00     0.157 HD
ENDBRANCH   7  19
TORSDOF 4
ENDMDL
MODEL 2
REMARK VINA RESULT: -6.289067096      1.566      1.675
REMARK  4 active torsions:
REMARK  status: ('A' for Active; 'I' for Inactive)
REMARK    1  A    between atoms: N2_5  and  O1_6 
REMARK    2  A    between atoms: C3_8  and  C4_9 
REMARK       I    between atoms: C4_9  and  N3_11 
REMARK    3  A    between atoms: N3_11  and  N4_13 
REMARK    4  A    between atoms: C5_16  and  N5_17 
ROOT
HETATM    1  C1  UNL     1     -15.991 -29.353 -27.077  1.00  0.00     0.091 C 
HETATM    2  C2  UNL     1     -14.480 -29.427 -27.082  1.00  0.00     0.095 A 
HETATM    3  N1  UNL     1     -13.825 -30.320 -26.348  1.00  0.00    -0.263 N 
ATOM      4  H1  UNL     1     -14.370 -30.962 -25.774  1.00  0.00     0.191 HD
HETATM    5  N2  UNL     1     -12.515 -30.424 -26.317  1.00  0.00    -0.153 N 
HETATM    6  C3  UNL     1     -11.773 -29.568 -27.081  1.00  0.00     0.193 A 
HETATM    7  C5  UNL     1     -12.418 -28.623 -27.862  1.00  0.00     0.137 A 
HETATM    8  N6  UNL     1     -13.791 -28.586 -27.830  1.00  0.00    -0.330 N 
ATOM      9  H6  UNL     1     -14.287 -27.897 -28.396  1.00  0.00     0.168 HD
ENDROOT
BRANCH   6  10
HETATM   10  C4  UNL     1     -10.327 -29.674 -27.115  1.00  0.00     0.294 C 
HETATM   11  O2  UNL     1      -9.765 -30.176 -28.118  1.00  0.00    -0.264 OA
HETATM   12  N3  UNL     1      -9.510 -29.236 -26.058  1.00  0.00    -0.271 N 
ATOM     13  H3  UNL     1      -9.932 -28.829 -25.224  1.00  0.00     0.189 HD
BRANCH  12  14
HETATM   14  N4  UNL     1      -8.086 -29.359 -26.150  1.00  0.00    -0.342 N 
ATOM     15  H42 UNL     1      -7.665 -30.285 -26.076  1.00  0.00     0.176 HD
ATOM     16  H41 UNL     1      -7.507 -28.530 -26.287  1.00  0.00     0.176 HD
ENDBRANCH  12  14
ENDBRANCH   6  10
BRANCH   5  17
HETATM   17  O1  UNL     1     -11.873 -31.330 -25.528  1.00  0.00    -0.267 OA
ATOM     18  H1  UNL     1     -10.928 -31.435 -25.537  1.00  0.00     0.247 HD
ENDBRANCH   5  17
BRANCH   7  19
HETATM   19  N5  UNL     1     -11.856 -27.791 -28.642  1.00  0.00    -0.383 N 
ATOM     20  H52 UNL     1     -12.216 -26.837 -28.613  1.00  0.00     0.157 HD
ATOM     21  H51 UNL     1     -11.105 -28.002 -29.299  1.00  0.00     0.157 HD
ENDBRANCH   7  19
TORSDOF 4
ENDMDL
MODEL 3
REMARK VINA RESULT: -6.098076637      2.226      2.866
REMARK  4 active torsions:
REMARK  status: ('A' for Active; 'I' for Inactive)
REMARK    1  A    between atoms: N2_5  and  O1_6 
REMARK    2  A    between atoms: C3_8  and  C4_9 
REMARK       I    between atoms: C4_9  and  N3_11 
REMARK    3  A    between atoms: N3_11  and  N4_13 
REMARK    4  A    between atoms: C5_16  and  N5_17 
ROOT
HETATM    1  C1  UNL     1     -16.931 -29.080 -26.193  1.00  0.00     0.091 C 
HETATM    2  C2  UNL     1     -15.432 -28.961 -26.365  1.00  0.00     0.095 A 
HETATM    3  N1  UNL     1     -14.706 -29.961 -26.852  1.00  0.00    -0.263 N 
ATOM      4  H1  UNL     1     -15.188 -30.822 -27.111  1.00  0.00     0.191 HD
HETATM    5  N2  UNL     1     -13.404 -29.908 -27.020  1.00  0.00    -0.153 N 
HETATM    6  C3  UNL     1     -12.747 -28.760 -26.677  1.00  0.00     0.193 A 
HETATM    7  C5  UNL     1     -13.468 -27.693 -26.166  1.00  0.00     0.137 A 
HETATM    8  N6  UNL     1     -14.826 -27.839 -26.024  1.00  0.00    -0.330 N 
ATOM      9  H6  UNL     1     -15.377 -27.067 -25.648  1.00  0.00     0.168 HD
ENDROOT
BRANCH   6  10
HETATM   10  C4  UNL     1     -11.317 -28.637 -26.886  1.00  0.00     0.294 C 
HETATM   11  O2  UNL     1     -10.887 -27.945 -27.840  1.00  0.00    -0.264 OA
HETATM   12  N3  UNL     1     -10.373 -29.270 -26.059  1.00  0.00    -0.271 N 
ATOM     13  H3  UNL     1     -10.686 -29.847 -25.279  1.00  0.00     0.189 HD
BRANCH  12  14
HETATM   14  N4  UNL     1      -8.973 -29.107 -26.309  1.00  0.00    -0.342 N 
ATOM     15  H42 UNL     1      -8.632 -29.169 -27.269  1.00  0.00     0.176 HD
ATOM     16  H41 UNL     1      -8.330 -28.932 -25.537  1.00  0.00     0.176 HD
ENDBRANCH  12  14
ENDBRANCH   6  10
BRANCH   5  17
HETATM   17  O1  UNL     1     -12.684 -30.965 -27.493  1.00  0.00    -0.267 OA
ATOM     18  H1  UNL     1     -11.750 -30.911 -27.658  1.00  0.00     0.247 HD
ENDBRANCH   5  17
BRANCH   7  19
HETATM   19  N5  UNL     1     -12.992 -26.560 -25.839  1.00  0.00    -0.383 N 
ATOM     20  H52 UNL     1     -12.196 -26.235 -26.387  1.00  0.00     0.157 HD
ATOM     21  H51 UNL     1     -13.320 -25.973 -25.072  1.00  0.00     0.157 HD
ENDBRANCH   7  19
TORSDOF 4
ENDMDL
MODEL 4
REMARK VINA RESULT: -6.028742157      2.387      4.729
REMARK  4 active torsions:
REMARK  status: ('A' for Active; 'I' for Inactive)
REMARK    1  A    between atoms: N2_5  and  O1_6 
REMARK    2  A    between atoms: C3_8  and  C4_9 
REMARK       I    between atoms: C4_9  and  N3_11 
REMARK    3  A    between atoms: N3_11  and  N4_13 
REMARK    4  A    between atoms: C5_16  and  N5_17 
ROOT
HETATM    1  C1  UNL     1      -8.726 -29.381 -26.532  1.00  0.00     0.091 C 
HETATM    2  C2  UNL     1     -10.229 -29.293 -26.680  1.00  0.00     0.095 A 
HETATM    3  N1  UNL     1     -10.934 -30.281 -27.222  1.00  0.00    -0.263 N 
ATOM      4  H1  UNL     1     -10.433 -31.110 -27.539  1.00  0.00     0.191 HD
HETATM    5  N2  UNL     1     -12.239 -30.252 -27.373  1.00  0.00    -0.153 N 
HETATM    6  C3  UNL     1     -12.922 -29.146 -26.952  1.00  0.00     0.193 A 
HETATM    7  C5  UNL     1     -12.224 -28.095 -26.381  1.00  0.00     0.137 A 
HETATM    8  N6  UNL     1     -10.861 -28.212 -26.264  1.00  0.00    -0.330 N 
ATOM      9  H6  UNL     1     -10.326 -27.449 -25.848  1.00  0.00     0.168 HD
ENDROOT
BRANCH   6  10
HETATM   10  C4  UNL     1     -14.367 -29.087 -27.057  1.00  0.00     0.294 C 
HETATM   11  O2  UNL     1     -14.898 -28.278 -27.856  1.00  0.00    -0.264 OA
HETATM   12  N3  UNL     1     -15.218 -29.903 -26.290  1.00  0.00    -0.271 N 
ATOM     13  H3  UNL     1     -14.822 -30.566 -25.625  1.00  0.00     0.189 HD
BRANCH  12  14
HETATM   14  N4  UNL     1     -16.638 -29.805 -26.440  1.00  0.00    -0.342 N 
ATOM     15  H42 UNL     1     -17.066 -30.131 -27.307  1.00  0.00     0.176 HD
ATOM     16  H41 UNL     1     -17.208 -29.416 -25.689  1.00  0.00     0.176 HD
ENDBRANCH  12  14
ENDBRANCH   6  10
BRANCH   5  17
HETATM   17  O1  UNL     1     -12.929 -31.269 -27.963  1.00  0.00    -0.267 OA
ATOM     18  H1  UNL     1     -12.604 -31.727 -28.729  1.00  0.00     0.247 HD
ENDBRANCH   5  17
BRANCH   7  19
HETATM   19  N5  UNL     1     -12.733 -27.026 -25.917  1.00  0.00    -0.383 N 
ATOM     20  H52 UNL     1     -12.888 -26.275 -26.591  1.00  0.00     0.157 HD
ATOM     21  H51 UNL     1     -12.973 -26.853 -24.942  1.00  0.00     0.157 HD
ENDBRANCH   7  19
TORSDOF 4
ENDMDL
MODEL 5
REMARK VINA RESULT: -5.950028002      1.825      1.887
REMARK  4 active torsions:
REMARK  status: ('A' for Active; 'I' for Inactive)
REMARK    1  A    between atoms: N2_5  and  O1_6 
REMARK    2  A    between atoms: C3_8  and  C4_9 
REMARK       I    between atoms: C4_9  and  N3_11 
REMARK    3  A    between atoms: N3_11  and  N4_13 
REMARK    4  A    between atoms: C5_16  and  N5_17 
ROOT
HETATM    1  C1  UNL     1     -15.492 -27.491 -26.126  1.00  0.00     0.091 C 
HETATM    2  C2  UNL     1     -14.120 -28.084 -26.357  1.00  0.00     0.095 A 
HETATM    3  N1  UNL     1     -13.965 -29.308 -26.852  1.00  0.00    -0.263 N 
ATOM      4  H1  UNL     1     -14.803 -29.844 -27.076  1.00  0.00     0.191 HD
HETATM    5  N2  UNL     1     -12.796 -29.867 -27.070  1.00  0.00    -0.153 N 
HETATM    6  C3  UNL     1     -11.666 -29.158 -26.775  1.00  0.00     0.193 A 
HETATM    7  C5  UNL     1     -11.785 -27.878 -26.257  1.00  0.00     0.137 A 
HETATM    8  N6  UNL     1     -13.047 -27.375 -26.061  1.00  0.00    -0.330 N 
ATOM      9  H6  UNL     1     -13.158 -26.435 -25.679  1.00  0.00     0.168 HD
ENDROOT
BRANCH   6  10
HETATM   10  C4  UNL     1     -10.354 -29.716 -27.040  1.00  0.00     0.294 C 
HETATM   11  O2  UNL     1      -9.703 -29.321 -28.037  1.00  0.00    -0.264 OA
HETATM   12  N3  UNL     1      -9.767 -30.697 -26.223  1.00  0.00    -0.271 N 
ATOM     13  H3  UNL     1     -10.271 -31.048 -25.408  1.00  0.00     0.189 HD
BRANCH  12  14
HETATM   14  N4  UNL     1      -8.465 -31.207 -26.530  1.00  0.00    -0.342 N 
ATOM     15  H42 UNL     1      -7.778 -30.582 -26.951  1.00  0.00     0.176 HD
ATOM     16  H41 UNL     1      -8.234 -32.179 -26.327  1.00  0.00     0.176 HD
ENDBRANCH  12  14
ENDBRANCH   6  10
BRANCH   5  17
HETATM   17  O1  UNL     1     -12.672 -31.137 -27.549  1.00  0.00    -0.267 OA
ATOM     18  H1  UNL     1     -11.853 -31.474 -27.894  1.00  0.00     0.247 HD
ENDBRANCH   5  17
BRANCH   7  19
HETATM   19  N5  UNL     1     -10.823 -27.098 -25.971  1.00  0.00    -0.383 N 
ATOM     20  H52 UNL     1     -10.016 -27.134 -26.595  1.00  0.00     0.157 HD
ATOM     21  H51 UNL     1     -10.782 -26.470 -25.169  1.00  0.00     0.157 HD
ENDBRANCH   7  19
TORSDOF 4
ENDMDL
