MODEL 1
REMARK VINA RESULT: -8.129596787      0.000      0.000
REMARK  12 active torsions:
REMARK  status: ('A' for Active; 'I' for Inactive)
REMARK    1  A    between atoms: C2_2  and  C3_3 
REMARK    2  A    between atoms: C3_3  and  O1_4 
REMARK    3  A    between atoms: C3_3  and  C4_6 
REMARK    4  A    between atoms: C5_7  and  O2_8 
REMARK    5  A    between atoms: C7_11  and  O3_12 
REMARK    6  A    between atoms: C10_16  and  C11_17 
REMARK    7  A    between atoms: C12_18  and  C13_19 
REMARK    8  A    between atoms: C14_20  and  O4_21 
REMARK    9  A    between atoms: C14_20  and  C15_23 
REMARK   10  A    between atoms: C17_25  and  C18_26 
REMARK   11  A    between atoms: C18_26  and  O5_27 
REMARK   12  A    between atoms: O5_27  and  C19_28 
ROOT
HETATM    1  C11 UNL     1      34.784  34.923  59.313  1.00  0.00    -0.017 C 
HETATM    2  C12 UNL     1      34.811  35.066  58.018  1.00  0.00    -0.001 C 
ENDROOT
BRANCH   1   3
HETATM    3  C10 UNL     1      33.683  35.094  60.253  1.00  0.00     0.048 C 
HETATM    4  C4  UNL     1      33.698  36.357  61.010  1.00  0.00     0.059 C 
HETATM    5  C5  UNL     1      32.897  36.367  62.291  1.00  0.00     0.128 C 
HETATM    6  C6  UNL     1      32.833  35.083  63.025  1.00  0.00     0.068 C 
HETATM    7  C7  UNL     1      32.410  33.938  62.112  1.00  0.00     0.149 C 
HETATM    8  C8  UNL     1      33.472  33.859  61.089  1.00  0.00    -0.053 C 
HETATM    9  C9  UNL     1      34.155  32.754  60.963  1.00  0.00     0.017 C 
BRANCH   4  10
HETATM   10  C3  UNL     1      33.040  37.445  60.145  1.00  0.00     0.147 C 
BRANCH  10  11
HETATM   11  C2  UNL     1      34.063  38.248  59.420  1.00  0.00    -0.005 C 
HETATM   12  C1  UNL     1      35.208  38.619  59.963  1.00  0.00     0.009 C 
ENDBRANCH  10  11
BRANCH  10  13
HETATM   13  O1  UNL     1      32.140  36.959  59.241  1.00  0.00    -0.391 OA
ATOM     14  H1  UNL     1      31.450  36.503  59.709  1.00  0.00     0.210 HD
ENDBRANCH  10  13
ENDBRANCH   4  10
BRANCH   5  15
HETATM   15  O2  UNL     1      33.487  37.329  63.126  1.00  0.00    -0.395 OA
ATOM     16  H2  UNL     1      33.556  36.935  63.988  1.00  0.00     0.210 HD
ENDBRANCH   5  15
BRANCH   7  17
HETATM   17  O3  UNL     1      32.277  32.792  62.857  1.00  0.00    -0.391 OA
ATOM     18  H3  UNL     1      31.551  32.893  63.461  1.00  0.00     0.210 HD
ENDBRANCH   7  17
ENDBRANCH   1   3
BRANCH   2  19
HETATM   19  C13 UNL     1      36.008  34.855  57.211  1.00  0.00     0.032 C 
HETATM   20  C14 UNL     1      36.200  33.737  56.534  1.00  0.00     0.051 C 
BRANCH  20  21
HETATM   21  O4  UNL     1      35.235  32.725  56.587  1.00  0.00    -0.364 OA
ATOM     22  H4  UNL     1      35.155  32.117  55.862  1.00  0.00     0.217 HD
ENDBRANCH  20  21
BRANCH  20  23
HETATM   23  C15 UNL     1      37.390  33.494  55.714  1.00  0.00     0.065 C 
HETATM   24  C16 UNL     1      37.761  34.715  54.972  1.00  0.00    -0.010 C 
HETATM   25  C17 UNL     1      38.426  34.720  53.835  1.00  0.00    -0.056 C 
HETATM   26  C22 UNL     1      38.854  33.455  53.216  1.00  0.00     0.012 C 
HETATM   27  C23 UNL     1      38.289  33.341  51.811  1.00  0.00     0.015 C 
HETATM   28  C24 UNL     1      38.547  32.226  54.004  1.00  0.00     0.010 C 
HETATM   29  C25 UNL     1      37.217  32.347  54.749  1.00  0.00     0.016 C 
BRANCH  25  30
HETATM   30  C18 UNL     1      38.760  36.024  53.147  1.00  0.00     0.202 C 
BRANCH  30  31
HETATM   31  O5  UNL     1      38.583  37.018  54.111  1.00  0.00    -0.382 OA
BRANCH  31  32
HETATM   32  C19 UNL     1      39.428  38.092  53.931  1.00  0.00     0.113 C 
HETATM   33  C20 UNL     1      40.322  37.804  52.733  1.00  0.00     0.039 C 
HETATM   34  C21 UNL     1      40.359  38.208  55.134  1.00  0.00     0.039 C 
ENDBRANCH  31  32
ENDBRANCH  30  31
ENDBRANCH  25  30
ENDBRANCH  20  23
ENDBRANCH   2  19
TORSDOF 12
ENDMDL
MODEL 2
REMARK VINA RESULT: -8.032442273      1.877      4.427
REMARK  12 active torsions:
REMARK  status: ('A' for Active; 'I' for Inactive)
REMARK    1  A    between atoms: C2_2  and  C3_3 
REMARK    2  A    between atoms: C3_3  and  O1_4 
REMARK    3  A    between atoms: C3_3  and  C4_6 
REMARK    4  A    between atoms: C5_7  and  O2_8 
REMARK    5  A    between atoms: C7_11  and  O3_12 
REMARK    6  A    between atoms: C10_16  and  C11_17 
REMARK    7  A    between atoms: C12_18  and  C13_19 
REMARK    8  A    between atoms: C14_20  and  O4_21 
REMARK    9  A    between atoms: C14_20  and  C15_23 
REMARK   10  A    between atoms: C17_25  and  C18_26 
REMARK   11  A    between atoms: C18_26  and  O5_27 
REMARK   12  A    between atoms: O5_27  and  C19_28 
ROOT
HETATM    1  C11 UNL     1      35.228  34.595  59.565  1.00  0.00    -0.017 C 
HETATM    2  C12 UNL     1      35.090  34.461  58.276  1.00  0.00    -0.001 C 
ENDROOT
BRANCH   1   3
HETATM    3  C10 UNL     1      34.500  33.962  60.656  1.00  0.00     0.048 C 
HETATM    4  C4  UNL     1      34.106  32.563  60.419  1.00  0.00     0.059 C 
HETATM    5  C5  UNL     1      32.975  32.041  61.272  1.00  0.00     0.128 C 
HETATM    6  C6  UNL     1      31.939  33.030  61.648  1.00  0.00     0.068 C 
HETATM    7  C7  UNL     1      32.558  34.285  62.251  1.00  0.00     0.149 C 
HETATM    8  C8  UNL     1      33.396  34.848  61.172  1.00  0.00    -0.053 C 
HETATM    9  C9  UNL     1      33.146  36.051  60.732  1.00  0.00     0.017 C 
BRANCH   4  10
HETATM   10  C3  UNL     1      35.298  31.660  60.780  1.00  0.00     0.147 C 
BRANCH  10  11
HETATM   11  C2  UNL     1      36.579  32.419  60.741  1.00  0.00    -0.005 C 
HETATM   12  C1  UNL     1      37.764  31.841  60.810  1.00  0.00     0.009 C 
ENDBRANCH  10  11
BRANCH  10  13
HETATM   13  O1  UNL     1      35.181  31.057  61.999  1.00  0.00    -0.391 OA
ATOM     14  H1  UNL     1      34.277  30.794  62.126  1.00  0.00     0.210 HD
ENDBRANCH  10  13
ENDBRANCH   4  10
BRANCH   5  15
HETATM   15  O2  UNL     1      32.362  31.011  60.541  1.00  0.00    -0.395 OA
ATOM     16  H2  UNL     1      31.481  31.306  60.340  1.00  0.00     0.210 HD
ENDBRANCH   5  15
BRANCH   7  17
HETATM   17  O3  UNL     1      31.557  35.129  62.667  1.00  0.00    -0.391 OA
ATOM     18  H3  UNL     1      30.757  34.631  62.784  1.00  0.00     0.210 HD
ENDBRANCH   7  17
ENDBRANCH   1   3
BRANCH   2  19
HETATM   19  C13 UNL     1      35.908  35.174  57.301  1.00  0.00     0.032 C 
HETATM   20  C14 UNL     1      35.619  36.406  56.921  1.00  0.00     0.051 C 
BRANCH  20  21
HETATM   21  O4  UNL     1      34.501  37.049  57.461  1.00  0.00    -0.364 OA
ATOM     22  H4  UNL     1      34.221  37.882  57.101  1.00  0.00     0.217 HD
ENDBRANCH  20  21
BRANCH  20  23
HETATM   23  C15 UNL     1      36.422  37.149  55.945  1.00  0.00     0.065 C 
HETATM   24  C16 UNL     1      37.299  36.229  55.194  1.00  0.00    -0.010 C 
HETATM   25  C17 UNL     1      38.437  36.581  54.633  1.00  0.00    -0.056 C 
HETATM   26  C22 UNL     1      38.918  37.969  54.728  1.00  0.00     0.012 C 
HETATM   27  C23 UNL     1      40.295  38.004  55.368  1.00  0.00     0.015 C 
HETATM   28  C24 UNL     1      37.996  38.915  55.421  1.00  0.00     0.010 C 
HETATM   29  C25 UNL     1      37.252  38.240  56.574  1.00  0.00     0.016 C 
BRANCH  25  30
HETATM   30  C18 UNL     1      39.269  35.566  53.881  1.00  0.00     0.202 C 
BRANCH  30  31
HETATM   31  O5  UNL     1      38.365  34.828  53.115  1.00  0.00    -0.382 OA
BRANCH  31  32
HETATM   32  C19 UNL     1      38.681  33.487  53.063  1.00  0.00     0.113 C 
HETATM   33  C20 UNL     1      38.183  32.928  51.736  1.00  0.00     0.039 C 
HETATM   34  C21 UNL     1      37.908  32.745  54.149  1.00  0.00     0.039 C 
ENDBRANCH  31  32
ENDBRANCH  30  31
ENDBRANCH  25  30
ENDBRANCH  20  23
ENDBRANCH   2  19
TORSDOF 12
ENDMDL
MODEL 3
REMARK VINA RESULT: -7.976159837      1.161      1.710
REMARK  12 active torsions:
REMARK  status: ('A' for Active; 'I' for Inactive)
REMARK    1  A    between atoms: C2_2  and  C3_3 
REMARK    2  A    between atoms: C3_3  and  O1_4 
REMARK    3  A    between atoms: C3_3  and  C4_6 
REMARK    4  A    between atoms: C5_7  and  O2_8 
REMARK    5  A    between atoms: C7_11  and  O3_12 
REMARK    6  A    between atoms: C10_16  and  C11_17 
REMARK    7  A    between atoms: C12_18  and  C13_19 
REMARK    8  A    between atoms: C14_20  and  O4_21 
REMARK    9  A    between atoms: C14_20  and  C15_23 
REMARK   10  A    between atoms: C17_25  and  C18_26 
REMARK   11  A    between atoms: C18_26  and  O5_27 
REMARK   12  A    between atoms: O5_27  and  C19_28 
ROOT
HETATM    1  C11 UNL     1      34.930  34.928  59.345  1.00  0.00    -0.017 C 
HETATM    2  C12 UNL     1      35.028  35.031  58.050  1.00  0.00    -0.001 C 
ENDROOT
BRANCH   1   3
HETATM    3  C10 UNL     1      33.748  34.878  60.196  1.00  0.00     0.048 C 
HETATM    4  C4  UNL     1      33.539  36.062  61.046  1.00  0.00     0.059 C 
HETATM    5  C5  UNL     1      32.648  35.862  62.249  1.00  0.00     0.128 C 
HETATM    6  C6  UNL     1      32.698  34.520  62.875  1.00  0.00     0.068 C 
HETATM    7  C7  UNL     1      32.499  33.416  61.844  1.00  0.00     0.149 C 
HETATM    8  C8  UNL     1      33.638  33.559  60.914  1.00  0.00    -0.053 C 
HETATM    9  C9  UNL     1      34.468  32.563  60.764  1.00  0.00     0.017 C 
BRANCH   4  10
HETATM   10  C3  UNL     1      32.811  37.131  60.212  1.00  0.00     0.147 C 
BRANCH  10  11
HETATM   11  C2  UNL     1      33.766  38.148  59.691  1.00  0.00    -0.005 C 
HETATM   12  C1  UNL     1      34.841  38.536  60.352  1.00  0.00     0.009 C 
ENDBRANCH  10  11
BRANCH  10  13
HETATM   13  O1  UNL     1      32.097  36.621  59.167  1.00  0.00    -0.391 OA
ATOM     14  H1  UNL     1      31.185  36.556  59.422  1.00  0.00     0.210 HD
ENDBRANCH  10  13
ENDBRANCH   4  10
BRANCH   5  15
HETATM   15  O2  UNL     1      33.041  36.813  63.204  1.00  0.00    -0.395 OA
ATOM     16  H2  UNL     1      32.496  36.673  63.969  1.00  0.00     0.210 HD
ENDBRANCH   5  15
BRANCH   7  17
HETATM   17  O3  UNL     1      32.462  32.201  62.484  1.00  0.00    -0.391 OA
ATOM     18  H3  UNL     1      31.558  31.963  62.651  1.00  0.00     0.210 HD
ENDBRANCH   7  17
ENDBRANCH   1   3
BRANCH   2  19
HETATM   19  C13 UNL     1      36.302  35.067  57.340  1.00  0.00     0.032 C 
HETATM   20  C14 UNL     1      36.479  34.425  56.199  1.00  0.00     0.051 C 
BRANCH  20  21
HETATM   21  O4  UNL     1      35.423  33.688  55.652  1.00  0.00    -0.364 OA
ATOM     22  H4  UNL     1      34.815  34.112  55.059  1.00  0.00     0.217 HD
ENDBRANCH  20  21
BRANCH  20  23
HETATM   23  C15 UNL     1      37.746  34.442  55.462  1.00  0.00     0.065 C 
HETATM   24  C16 UNL     1      38.497  35.677  55.761  1.00  0.00    -0.010 C 
HETATM   25  C17 UNL     1      39.377  36.225  54.949  1.00  0.00    -0.056 C 
HETATM   26  C22 UNL     1      39.671  35.613  53.644  1.00  0.00     0.012 C 
HETATM   27  C23 UNL     1      39.407  36.607  52.526  1.00  0.00     0.015 C 
HETATM   28  C24 UNL     1      38.969  34.325  53.373  1.00  0.00     0.010 C 
HETATM   29  C25 UNL     1      37.560  34.311  53.970  1.00  0.00     0.016 C 
BRANCH  25  30
HETATM   30  C18 UNL     1      40.100  37.494  55.344  1.00  0.00     0.202 C 
BRANCH  30  31
HETATM   31  O5  UNL     1      39.437  37.970  56.477  1.00  0.00    -0.382 OA
BRANCH  31  32
HETATM   32  C19 UNL     1      39.045  39.286  56.351  1.00  0.00     0.113 C 
HETATM   33  C20 UNL     1      37.582  39.312  55.927  1.00  0.00     0.039 C 
HETATM   34  C21 UNL     1      39.825  39.936  55.212  1.00  0.00     0.039 C 
ENDBRANCH  31  32
ENDBRANCH  30  31
ENDBRANCH  25  30
ENDBRANCH  20  23
ENDBRANCH   2  19
TORSDOF 12
ENDMDL
MODEL 4
REMARK VINA RESULT: -7.899289829      1.566      3.634
REMARK  12 active torsions:
REMARK  status: ('A' for Active; 'I' for Inactive)
REMARK    1  A    between atoms: C2_2  and  C3_3 
REMARK    2  A    between atoms: C3_3  and  O1_4 
REMARK    3  A    between atoms: C3_3  and  C4_6 
REMARK    4  A    between atoms: C5_7  and  O2_8 
REMARK    5  A    between atoms: C7_11  and  O3_12 
REMARK    6  A    between atoms: C10_16  and  C11_17 
REMARK    7  A    between atoms: C12_18  and  C13_19 
REMARK    8  A    between atoms: C14_20  and  O4_21 
REMARK    9  A    between atoms: C14_20  and  C15_23 
REMARK   10  A    between atoms: C17_25  and  C18_26 
REMARK   11  A    between atoms: C18_26  and  O5_27 
REMARK   12  A    between atoms: O5_27  and  C19_28 
ROOT
HETATM    1  C11 UNL     1      34.751  33.282  60.244  1.00  0.00    -0.017 C 
HETATM    2  C12 UNL     1      34.805  33.620  58.986  1.00  0.00    -0.001 C 
ENDROOT
BRANCH   1   3
HETATM    3  C10 UNL     1      33.717  33.531  61.239  1.00  0.00     0.048 C 
HETATM    4  C4  UNL     1      32.517  32.686  61.119  1.00  0.00     0.059 C 
HETATM    5  C5  UNL     1      31.268  33.214  61.784  1.00  0.00     0.128 C 
HETATM    6  C6  UNL     1      31.118  34.687  61.802  1.00  0.00     0.068 C 
HETATM    7  C7  UNL     1      32.368  35.370  62.342  1.00  0.00     0.149 C 
HETATM    8  C8  UNL     1      33.438  35.003  61.391  1.00  0.00    -0.053 C 
HETATM    9  C9  UNL     1      34.072  35.946  60.749  1.00  0.00     0.017 C 
BRANCH   4  10
HETATM   10  C3  UNL     1      32.792  31.354  61.837  1.00  0.00     0.147 C 
BRANCH  10  11
HETATM   11  C2  UNL     1      32.586  30.197  60.922  1.00  0.00    -0.005 C 
HETATM   12  C1  UNL     1      33.110  29.004  61.136  1.00  0.00     0.009 C 
ENDBRANCH  10  11
BRANCH  10  13
HETATM   13  O1  UNL     1      34.042  31.269  62.379  1.00  0.00    -0.391 OA
ATOM     14  H1  UNL     1      34.683  31.307  61.680  1.00  0.00     0.210 HD
ENDBRANCH  10  13
ENDBRANCH   4  10
BRANCH   5  15
HETATM   15  O2  UNL     1      30.179  32.663  61.091  1.00  0.00    -0.395 OA
ATOM     16  H2  UNL     1      29.560  33.371  60.948  1.00  0.00     0.210 HD
ENDBRANCH   5  15
BRANCH   7  17
HETATM   17  O3  UNL     1      32.146  36.722  62.424  1.00  0.00    -0.391 OA
ATOM     18  H3  UNL     1      31.225  36.897  62.271  1.00  0.00     0.210 HD
ENDBRANCH   7  17
ENDBRANCH   1   3
BRANCH   2  19
HETATM   19  C13 UNL     1      35.925  33.291  58.112  1.00  0.00     0.032 C 
HETATM   20  C14 UNL     1      36.102  33.898  56.952  1.00  0.00     0.051 C 
BRANCH  20  21
HETATM   21  O4  UNL     1      35.196  34.883  56.545  1.00  0.00    -0.364 OA
ATOM     22  H4  UNL     1      35.517  35.744  56.304  1.00  0.00     0.217 HD
ENDBRANCH  20  21
BRANCH  20  23
HETATM   23  C15 UNL     1      37.217  33.591  56.052  1.00  0.00     0.065 C 
HETATM   24  C16 UNL     1      37.580  34.782  55.259  1.00  0.00    -0.010 C 
HETATM   25  C17 UNL     1      38.158  34.739  54.076  1.00  0.00    -0.056 C 
HETATM   26  C22 UNL     1      38.487  33.447  53.454  1.00  0.00     0.012 C 
HETATM   27  C23 UNL     1      37.814  33.332  52.097  1.00  0.00     0.015 C 
HETATM   28  C24 UNL     1      38.190  32.246  54.287  1.00  0.00     0.010 C 
HETATM   29  C25 UNL     1      36.926  32.436  55.126  1.00  0.00     0.016 C 
BRANCH  25  30
HETATM   30  C18 UNL     1      38.493  36.016  53.338  1.00  0.00     0.202 C 
BRANCH  30  31
HETATM   31  O5  UNL     1      39.801  36.334  53.707  1.00  0.00    -0.382 OA
BRANCH  31  32
HETATM   32  C19 UNL     1      40.518  36.911  52.680  1.00  0.00     0.113 C 
HETATM   33  C20 UNL     1      40.116  38.376  52.578  1.00  0.00     0.039 C 
HETATM   34  C21 UNL     1      40.110  36.269  51.358  1.00  0.00     0.039 C 
ENDBRANCH  31  32
ENDBRANCH  30  31
ENDBRANCH  25  30
ENDBRANCH  20  23
ENDBRANCH   2  19
TORSDOF 12
ENDMDL
MODEL 5
REMARK VINA RESULT: -7.792371295      2.059      4.438
REMARK  12 active torsions:
REMARK  status: ('A' for Active; 'I' for Inactive)
REMARK    1  A    between atoms: C2_2  and  C3_3 
REMARK    2  A    between atoms: C3_3  and  O1_4 
REMARK    3  A    between atoms: C3_3  and  C4_6 
REMARK    4  A    between atoms: C5_7  and  O2_8 
REMARK    5  A    between atoms: C7_11  and  O3_12 
REMARK    6  A    between atoms: C10_16  and  C11_17 
REMARK    7  A    between atoms: C12_18  and  C13_19 
REMARK    8  A    between atoms: C14_20  and  O4_21 
REMARK    9  A    between atoms: C14_20  and  C15_23 
REMARK   10  A    between atoms: C17_25  and  C18_26 
REMARK   11  A    between atoms: C18_26  and  O5_27 
REMARK   12  A    between atoms: O5_27  and  C19_28 
ROOT
HETATM    1  C11 UNL     1      34.903  35.616  59.391  1.00  0.00    -0.017 C 
HETATM    2  C12 UNL     1      34.881  35.443  58.099  1.00  0.00    -0.001 C 
ENDROOT
BRANCH   1   3
HETATM    3  C10 UNL     1      34.441  34.742  60.462  1.00  0.00     0.048 C 
HETATM    4  C4  UNL     1      34.392  33.310  60.124  1.00  0.00     0.059 C 
HETATM    5  C5  UNL     1      33.495  32.458  60.990  1.00  0.00     0.128 C 
HETATM    6  C6  UNL     1      32.278  33.121  61.511  1.00  0.00     0.068 C 
HETATM    7  C7  UNL     1      32.610  34.446  62.187  1.00  0.00     0.149 C 
HETATM    8  C8  UNL     1      33.195  35.279  61.116  1.00  0.00    -0.053 C 
HETATM    9  C9  UNL     1      32.621  36.407  60.800  1.00  0.00     0.017 C 
BRANCH   4  10
HETATM   10  C3  UNL     1      35.795  32.717  60.336  1.00  0.00     0.147 C 
BRANCH  10  11
HETATM   11  C2  UNL     1      35.750  31.540  61.247  1.00  0.00    -0.005 C 
HETATM   12  C1  UNL     1      36.829  30.894  61.648  1.00  0.00     0.009 C 
ENDBRANCH  10  11
BRANCH  10  13
HETATM   13  O1  UNL     1      36.419  32.353  59.178  1.00  0.00    -0.391 OA
ATOM     14  H1  UNL     1      36.255  33.017  58.519  1.00  0.00     0.210 HD
ENDBRANCH  10  13
ENDBRANCH   4  10
BRANCH   5  15
HETATM   15  O2  UNL     1      33.104  31.360  60.207  1.00  0.00    -0.395 OA
ATOM     16  H2  UNL     1      33.509  31.476  59.354  1.00  0.00     0.210 HD
ENDBRANCH   5  15
BRANCH   7  17
HETATM   17  O3  UNL     1      31.466  34.975  62.732  1.00  0.00    -0.391 OA
ATOM     18  H3  UNL     1      31.494  34.875  63.676  1.00  0.00     0.210 HD
ENDBRANCH   7  17
ENDBRANCH   1   3
BRANCH   2  19
HETATM   19  C13 UNL     1      35.389  36.425  57.148  1.00  0.00     0.032 C 
HETATM   20  C14 UNL     1      36.683  36.642  56.998  1.00  0.00     0.051 C 
BRANCH  20  21
HETATM   21  O4  UNL     1      37.597  35.915  57.768  1.00  0.00    -0.364 OA
ATOM     22  H4  UNL     1      37.282  35.228  58.343  1.00  0.00     0.217 HD
ENDBRANCH  20  21
BRANCH  20  23
HETATM   23  C15 UNL     1      37.225  37.622  56.052  1.00  0.00     0.065 C 
HETATM   24  C16 UNL     1      37.923  36.936  54.947  1.00  0.00    -0.010 C 
HETATM   25  C17 UNL     1      38.894  37.471  54.236  1.00  0.00    -0.056 C 
HETATM   26  C22 UNL     1      39.357  38.839  54.518  1.00  0.00     0.012 C 
HETATM   27  C23 UNL     1      40.843  38.836  54.830  1.00  0.00     0.015 C 
HETATM   28  C24 UNL     1      38.601  39.559  55.583  1.00  0.00     0.010 C 
HETATM   29  C25 UNL     1      38.156  38.615  56.701  1.00  0.00     0.016 C 
BRANCH  25  30
HETATM   30  C18 UNL     1      39.550  36.689  53.121  1.00  0.00     0.202 C 
BRANCH  30  31
HETATM   31  O5  UNL     1      38.931  35.437  53.120  1.00  0.00    -0.382 OA
BRANCH  31  32
HETATM   32  C19 UNL     1      39.580  34.522  52.319  1.00  0.00     0.113 C 
HETATM   33  C20 UNL     1      40.167  35.262  51.124  1.00  0.00     0.039 C 
HETATM   34  C21 UNL     1      38.559  33.542  51.747  1.00  0.00     0.039 C 
ENDBRANCH  31  32
ENDBRANCH  30  31
ENDBRANCH  25  30
ENDBRANCH  20  23
ENDBRANCH   2  19
TORSDOF 12
ENDMDL
