MODEL 1
REMARK VINA RESULT: -8.169887095      0.000      0.000
REMARK  11 active torsions:
REMARK  status: ('A' for Active; 'I' for Inactive)
REMARK    1  A    between atoms: C2_2  and  C3_3 
REMARK    2  A    between atoms: C2_2  and  C21_27 
REMARK    3  A    between atoms: C3_3  and  C4_4 
REMARK    4  A    between atoms: C4_4  and  C5_5 
REMARK    5  A    between atoms: C5_5  and  C6_6 
REMARK    6  A    between atoms: C8_8  and  O1_9 
REMARK    7  A    between atoms: C16_18  and  O2_19 
REMARK    8  A    between atoms: C18_22  and  O3_23 
REMARK    9  A    between atoms: C21_27  and  C22_28 
REMARK   10  A    between atoms: C22_28  and  C23_29 
REMARK   11  A    between atoms: C23_29  and  O4_31 
ROOT
HETATM    1  C23 UNL     1      39.093  35.329  53.228  1.00  0.00     0.142 C 
HETATM    2  C24 UNL     1      39.827  35.858  54.431  1.00  0.00     0.062 C 
HETATM    3  C25 UNL     1      39.788  35.769  52.016  1.00  0.00     0.097 C 
HETATM    4  N1  UNL     1      40.338  36.134  51.067  1.00  0.00    -0.194 NA
ENDROOT
BRANCH   1   5
HETATM    5  C22 UNL     1      39.087  33.806  53.232  1.00  0.00     0.053 C 
BRANCH   5   6
HETATM    6  C21 UNL     1      37.679  33.326  53.106  1.00  0.00     0.008 C 
BRANCH   6   7
HETATM    7  C2  UNL     1      37.252  32.328  54.133  1.00  0.00    -0.019 C 
HETATM    8  C1  UNL     1      35.891  31.771  53.805  1.00  0.00     0.010 C 
BRANCH   7   9
HETATM    9  C3  UNL     1      37.236  33.020  55.474  1.00  0.00     0.004 C 
BRANCH   9  10
HETATM   10  C4  UNL     1      35.818  33.372  55.898  1.00  0.00     0.005 C 
BRANCH  10  11
HETATM   11  C5  UNL     1      35.802  34.859  56.254  1.00  0.00     0.035 C 
BRANCH  11  12
HETATM   12  C6  UNL     1      35.676  35.122  57.700  1.00  0.00    -0.070 C 
HETATM   13  C7  UNL     1      35.145  34.111  58.392  1.00  0.00     0.008 C 
HETATM   14  C8  UNL     1      34.941  34.207  59.879  1.00  0.00     0.141 C 
HETATM   15  C9  UNL     1      34.184  35.544  59.959  1.00  0.00     0.041 C 
HETATM   16  C10 UNL     1      35.204  36.593  59.600  1.00  0.00     0.004 C 
HETATM   17  C11 UNL     1      34.439  37.893  59.587  1.00  0.00     0.006 C 
HETATM   18  C19 UNL     1      36.082  36.316  58.437  1.00  0.00     0.014 C 
HETATM   19  C12 UNL     1      35.411  39.000  59.443  1.00  0.00     0.008 C 
HETATM   20  C13 UNL     1      36.393  38.826  58.378  1.00  0.00     0.021 C 
HETATM   21  C14 UNL     1      36.266  39.947  57.337  1.00  0.00     0.010 C 
HETATM   22  C18 UNL     1      36.343  37.528  57.586  1.00  0.00     0.075 C 
HETATM   23  C15 UNL     1      37.245  39.864  56.231  1.00  0.00     0.032 C 
HETATM   24  C16 UNL     1      37.534  38.503  55.705  1.00  0.00     0.121 C 
HETATM   25  C17 UNL     1      37.687  37.548  56.901  1.00  0.00     0.071 C 
HETATM   26  C20 UNL     1      37.446  35.929  59.053  1.00  0.00     0.023 C 
BRANCH  14  27
HETATM   27  O1  UNL     1      34.135  33.198  60.367  1.00  0.00    -0.392 OA
ATOM     28  H1  UNL     1      33.601  33.483  61.099  1.00  0.00     0.210 HD
ENDBRANCH  14  27
BRANCH  24  29
HETATM   29  O2  UNL     1      36.697  38.038  54.734  1.00  0.00    -0.395 OA
ATOM     30  H2  UNL     1      36.939  38.237  53.837  1.00  0.00     0.210 HD
ENDBRANCH  24  29
BRANCH  22  31
HETATM   31  O3  UNL     1      35.323  37.771  56.647  1.00  0.00    -0.388 OA
ATOM     32  H3  UNL     1      34.721  37.051  56.797  1.00  0.00     0.210 HD
ENDBRANCH  22  31
ENDBRANCH  11  12
ENDBRANCH  10  11
ENDBRANCH   9  10
ENDBRANCH   7   9
ENDBRANCH   6   7
ENDBRANCH   5   6
ENDBRANCH   1   5
BRANCH   1  33
HETATM   33  O4  UNL     1      37.764  35.748  53.203  1.00  0.00    -0.376 OA
ATOM     34  H4  UNL     1      37.768  36.691  53.090  1.00  0.00     0.211 HD
ENDBRANCH   1  33
TORSDOF 11
ENDMDL
MODEL 2
REMARK VINA RESULT: -8.113032021      2.514      5.999
REMARK  11 active torsions:
REMARK  status: ('A' for Active; 'I' for Inactive)
REMARK    1  A    between atoms: C2_2  and  C3_3 
REMARK    2  A    between atoms: C2_2  and  C21_27 
REMARK    3  A    between atoms: C3_3  and  C4_4 
REMARK    4  A    between atoms: C4_4  and  C5_5 
REMARK    5  A    between atoms: C5_5  and  C6_6 
REMARK    6  A    between atoms: C8_8  and  O1_9 
REMARK    7  A    between atoms: C16_18  and  O2_19 
REMARK    8  A    between atoms: C18_22  and  O3_23 
REMARK    9  A    between atoms: C21_27  and  C22_28 
REMARK   10  A    between atoms: C22_28  and  C23_29 
REMARK   11  A    between atoms: C23_29  and  O4_31 
ROOT
HETATM    1  C23 UNL     1      37.661  41.987  56.906  1.00  0.00     0.142 C 
HETATM    2  C24 UNL     1      37.700  42.276  58.383  1.00  0.00     0.062 C 
HETATM    3  C25 UNL     1      39.024  41.730  56.436  1.00  0.00     0.097 C 
HETATM    4  N1  UNL     1      40.106  41.541  56.075  1.00  0.00    -0.194 NA
ENDROOT
BRANCH   1   5
HETATM    5  C22 UNL     1      36.831  40.742  56.626  1.00  0.00     0.053 C 
BRANCH   5   6
HETATM    6  C21 UNL     1      36.298  40.213  57.916  1.00  0.00     0.008 C 
BRANCH   6   7
HETATM    7  C2  UNL     1      36.297  38.724  58.043  1.00  0.00    -0.019 C 
HETATM    8  C1  UNL     1      34.918  38.216  58.371  1.00  0.00     0.010 C 
BRANCH   7   9
HETATM    9  C3  UNL     1      37.277  38.351  59.129  1.00  0.00     0.004 C 
BRANCH   9  10
HETATM   10  C4  UNL     1      37.703  36.895  59.010  1.00  0.00     0.005 C 
BRANCH  10  11
HETATM   11  C5  UNL     1      38.349  36.718  57.634  1.00  0.00     0.035 C 
BRANCH  11  12
HETATM   12  C6  UNL     1      37.572  35.861  56.719  1.00  0.00    -0.070 C 
HETATM   13  C7  UNL     1      36.764  34.998  57.339  1.00  0.00     0.008 C 
HETATM   14  C8  UNL     1      35.900  34.044  56.560  1.00  0.00     0.141 C 
HETATM   15  C9  UNL     1      36.956  33.424  55.631  1.00  0.00     0.041 C 
HETATM   16  C10 UNL     1      37.336  34.528  54.679  1.00  0.00     0.004 C 
HETATM   17  C11 UNL     1      38.439  33.948  53.828  1.00  0.00     0.006 C 
HETATM   18  C19 UNL     1      37.569  35.873  55.259  1.00  0.00     0.014 C 
HETATM   19  C12 UNL     1      38.728  34.901  52.734  1.00  0.00     0.008 C 
HETATM   20  C13 UNL     1      38.905  36.288  53.151  1.00  0.00     0.021 C 
HETATM   21  C14 UNL     1      40.315  36.783  52.796  1.00  0.00     0.010 C 
HETATM   22  C18 UNL     1      38.724  36.602  54.629  1.00  0.00     0.075 C 
HETATM   23  C15 UNL     1      40.574  38.193  53.162  1.00  0.00     0.032 C 
HETATM   24  C16 UNL     1      40.020  38.651  54.464  1.00  0.00     0.121 C 
HETATM   25  C17 UNL     1      38.589  38.104  54.597  1.00  0.00     0.071 C 
HETATM   26  C20 UNL     1      36.306  36.687  54.894  1.00  0.00     0.023 C 
BRANCH  14  27
HETATM   27  O1  UNL     1      35.357  33.055  57.356  1.00  0.00    -0.392 OA
ATOM     28  H1  UNL     1      34.407  33.085  57.375  1.00  0.00     0.210 HD
ENDBRANCH  14  27
BRANCH  24  29
HETATM   29  O2  UNL     1      40.797  38.431  55.563  1.00  0.00    -0.395 OA
ATOM     30  H2  UNL     1      40.356  38.458  56.405  1.00  0.00     0.210 HD
ENDBRANCH  24  29
BRANCH  22  31
HETATM   31  O3  UNL     1      39.968  36.243  55.182  1.00  0.00    -0.388 OA
ATOM     32  H3  UNL     1      40.533  36.960  54.917  1.00  0.00     0.210 HD
ENDBRANCH  22  31
ENDBRANCH  11  12
ENDBRANCH  10  11
ENDBRANCH   9  10
ENDBRANCH   7   9
ENDBRANCH   6   7
ENDBRANCH   5   6
ENDBRANCH   1   5
BRANCH   1  33
HETATM   33  O4  UNL     1      37.091  43.035  56.186  1.00  0.00    -0.376 OA
ATOM     34  H4  UNL     1      37.801  43.583  55.874  1.00  0.00     0.211 HD
ENDBRANCH   1  33
TORSDOF 11
ENDMDL
MODEL 3
REMARK VINA RESULT: -8.099875436      2.980      7.567
REMARK  11 active torsions:
REMARK  status: ('A' for Active; 'I' for Inactive)
REMARK    1  A    between atoms: C2_2  and  C3_3 
REMARK    2  A    between atoms: C2_2  and  C21_27 
REMARK    3  A    between atoms: C3_3  and  C4_4 
REMARK    4  A    between atoms: C4_4  and  C5_5 
REMARK    5  A    between atoms: C5_5  and  C6_6 
REMARK    6  A    between atoms: C8_8  and  O1_9 
REMARK    7  A    between atoms: C16_18  and  O2_19 
REMARK    8  A    between atoms: C18_22  and  O3_23 
REMARK    9  A    between atoms: C21_27  and  C22_28 
REMARK   10  A    between atoms: C22_28  and  C23_29 
REMARK   11  A    between atoms: C23_29  and  O4_31 
ROOT
HETATM    1  C23 UNL     1      34.086  37.551  59.921  1.00  0.00     0.142 C 
HETATM    2  C24 UNL     1      34.171  36.056  60.073  1.00  0.00     0.062 C 
HETATM    3  C25 UNL     1      33.266  38.092  61.008  1.00  0.00     0.097 C 
HETATM    4  N1  UNL     1      32.607  38.506  61.863  1.00  0.00    -0.194 NA
ENDROOT
BRANCH   1   5
HETATM    5  C22 UNL     1      35.469  38.180  60.026  1.00  0.00     0.053 C 
BRANCH   5   6
HETATM    6  C21 UNL     1      35.617  39.208  58.954  1.00  0.00     0.008 C 
BRANCH   6   7
HETATM    7  C2  UNL     1      36.871  39.111  58.147  1.00  0.00    -0.019 C 
HETATM    8  C1  UNL     1      38.077  38.998  59.043  1.00  0.00     0.010 C 
BRANCH   7   9
HETATM    9  C3  UNL     1      36.963  40.344  57.281  1.00  0.00     0.004 C 
BRANCH   9  10
HETATM   10  C4  UNL     1      37.955  40.147  56.144  1.00  0.00     0.005 C 
BRANCH  10  11
HETATM   11  C5  UNL     1      37.499  38.924  55.345  1.00  0.00     0.035 C 
BRANCH  11  12
HETATM   12  C6  UNL     1      38.609  38.143  54.769  1.00  0.00    -0.070 C 
HETATM   13  C7  UNL     1      39.481  38.872  54.069  1.00  0.00     0.008 C 
HETATM   14  C8  UNL     1      40.675  38.238  53.408  1.00  0.00     0.141 C 
HETATM   15  C9  UNL     1      39.981  37.103  52.638  1.00  0.00     0.041 C 
HETATM   16  C10 UNL     1      39.517  36.137  53.697  1.00  0.00     0.004 C 
HETATM   17  C11 UNL     1      38.756  35.071  52.948  1.00  0.00     0.006 C 
HETATM   18  C19 UNL     1      38.866  36.712  54.900  1.00  0.00     0.014 C 
HETATM   19  C12 UNL     1      38.441  33.977  53.894  1.00  0.00     0.008 C 
HETATM   20  C13 UNL     1      37.861  34.404  55.163  1.00  0.00     0.021 C 
HETATM   21  C14 UNL     1      36.458  33.807  55.345  1.00  0.00     0.010 C 
HETATM   22  C18 UNL     1      37.698  35.900  55.389  1.00  0.00     0.075 C 
HETATM   23  C15 UNL     1      35.804  34.168  56.621  1.00  0.00     0.032 C 
HETATM   24  C16 UNL     1      35.992  35.567  57.088  1.00  0.00     0.121 C 
HETATM   25  C17 UNL     1      37.467  35.950  56.879  1.00  0.00     0.071 C 
HETATM   26  C20 UNL     1      39.937  36.624  56.011  1.00  0.00     0.023 C 
BRANCH  14  27
HETATM   27  O1  UNL     1      41.293  39.086  52.511  1.00  0.00    -0.392 OA
ATOM     28  H1  UNL     1      42.124  39.413  52.836  1.00  0.00     0.210 HD
ENDBRANCH  14  27
BRANCH  24  29
HETATM   29  O2  UNL     1      35.111  36.490  56.606  1.00  0.00    -0.395 OA
ATOM     30  H2  UNL     1      35.465  37.145  56.016  1.00  0.00     0.210 HD
ENDBRANCH  24  29
BRANCH  22  31
HETATM   31  O3  UNL     1      36.501  36.193  54.708  1.00  0.00    -0.388 OA
ATOM     32  H3  UNL     1      36.058  36.787  55.303  1.00  0.00     0.210 HD
ENDBRANCH  22  31
ENDBRANCH  11  12
ENDBRANCH  10  11
ENDBRANCH   9  10
ENDBRANCH   7   9
ENDBRANCH   6   7
ENDBRANCH   5   6
ENDBRANCH   1   5
BRANCH   1  33
HETATM   33  O4  UNL     1      33.557  37.920  58.686  1.00  0.00    -0.376 OA
ATOM     34  H4  UNL     1      33.413  37.122  58.191  1.00  0.00     0.211 HD
ENDBRANCH   1  33
TORSDOF 11
ENDMDL
MODEL 4
REMARK VINA RESULT: -8.072066884      3.123      6.660
REMARK  11 active torsions:
REMARK  status: ('A' for Active; 'I' for Inactive)
REMARK    1  A    between atoms: C2_2  and  C3_3 
REMARK    2  A    between atoms: C2_2  and  C21_27 
REMARK    3  A    between atoms: C3_3  and  C4_4 
REMARK    4  A    between atoms: C4_4  and  C5_5 
REMARK    5  A    between atoms: C5_5  and  C6_6 
REMARK    6  A    between atoms: C8_8  and  O1_9 
REMARK    7  A    between atoms: C16_18  and  O2_19 
REMARK    8  A    between atoms: C18_22  and  O3_23 
REMARK    9  A    between atoms: C21_27  and  C22_28 
REMARK   10  A    between atoms: C22_28  and  C23_29 
REMARK   11  A    between atoms: C23_29  and  O4_31 
ROOT
HETATM    1  C23 UNL     1      33.333  37.025  60.000  1.00  0.00     0.142 C 
HETATM    2  C24 UNL     1      34.209  35.853  60.355  1.00  0.00     0.062 C 
HETATM    3  C25 UNL     1      32.876  37.667  61.234  1.00  0.00     0.097 C 
HETATM    4  N1  UNL     1      32.511  38.157  62.216  1.00  0.00    -0.194 NA
ENDROOT
BRANCH   1   5
HETATM    5  C22 UNL     1      34.118  38.058  59.202  1.00  0.00     0.053 C 
BRANCH   5   6
HETATM    6  C21 UNL     1      35.449  38.260  59.847  1.00  0.00     0.008 C 
BRANCH   6   7
HETATM    7  C2  UNL     1      36.332  39.266  59.183  1.00  0.00    -0.019 C 
HETATM    8  C1  UNL     1      35.891  39.512  57.764  1.00  0.00     0.010 C 
BRANCH   7   9
HETATM    9  C3  UNL     1      37.746  38.739  59.220  1.00  0.00     0.004 C 
BRANCH   9  10
HETATM   10  C4  UNL     1      37.768  37.218  59.214  1.00  0.00     0.005 C 
BRANCH  10  11
HETATM   11  C5  UNL     1      38.367  36.773  57.878  1.00  0.00     0.035 C 
BRANCH  11  12
HETATM   12  C6  UNL     1      37.470  35.916  57.081  1.00  0.00    -0.070 C 
HETATM   13  C7  UNL     1      36.674  35.133  57.814  1.00  0.00     0.008 C 
HETATM   14  C8  UNL     1      35.697  34.191  57.165  1.00  0.00     0.141 C 
HETATM   15  C9  UNL     1      36.635  33.463  56.188  1.00  0.00     0.041 C 
HETATM   16  C10 UNL     1      36.989  34.493  55.146  1.00  0.00     0.004 C 
HETATM   17  C11 UNL     1      37.983  33.807  54.242  1.00  0.00     0.006 C 
HETATM   18  C19 UNL     1      37.342  35.851  55.628  1.00  0.00     0.014 C 
HETATM   19  C12 UNL     1      38.226  34.683  53.074  1.00  0.00     0.008 C 
HETATM   20  C13 UNL     1      38.511  36.077  53.395  1.00  0.00     0.021 C 
HETATM   21  C14 UNL     1      39.909  36.472  52.897  1.00  0.00     0.010 C 
HETATM   22  C18 UNL     1      38.474  36.478  54.863  1.00  0.00     0.075 C 
HETATM   23  C15 UNL     1      40.272  37.882  53.159  1.00  0.00     0.032 C 
HETATM   24  C16 UNL     1      39.858  38.438  54.474  1.00  0.00     0.121 C 
HETATM   25  C17 UNL     1      38.417  37.982  54.757  1.00  0.00     0.071 C 
HETATM   26  C20 UNL     1      36.096  36.715  55.323  1.00  0.00     0.023 C 
BRANCH  14  27
HETATM   27  O1  UNL     1      35.173  33.278  58.059  1.00  0.00    -0.392 OA
ATOM     28  H1  UNL     1      34.294  33.005  57.825  1.00  0.00     0.210 HD
ENDBRANCH  14  27
BRANCH  24  29
HETATM   29  O2  UNL     1      40.714  38.233  55.516  1.00  0.00    -0.395 OA
ATOM     30  H2  UNL     1      41.546  38.690  55.476  1.00  0.00     0.210 HD
ENDBRANCH  24  29
BRANCH  22  31
HETATM   31  O3  UNL     1      39.741  36.079  55.331  1.00  0.00    -0.388 OA
ATOM     32  H3  UNL     1      40.309  36.777  55.026  1.00  0.00     0.210 HD
ENDBRANCH  22  31
ENDBRANCH  11  12
ENDBRANCH  10  11
ENDBRANCH   9  10
ENDBRANCH   7   9
ENDBRANCH   6   7
ENDBRANCH   5   6
ENDBRANCH   1   5
BRANCH   1  33
HETATM   33  O4  UNL     1      32.242  36.643  59.221  1.00  0.00    -0.376 OA
ATOM     34  H4  UNL     1      32.154  37.285  58.526  1.00  0.00     0.211 HD
ENDBRANCH   1  33
TORSDOF 11
ENDMDL
MODEL 5
REMARK VINA RESULT: -7.996940762      3.357      5.732
REMARK  11 active torsions:
REMARK  status: ('A' for Active; 'I' for Inactive)
REMARK    1  A    between atoms: C2_2  and  C3_3 
REMARK    2  A    between atoms: C2_2  and  C21_27 
REMARK    3  A    between atoms: C3_3  and  C4_4 
REMARK    4  A    between atoms: C4_4  and  C5_5 
REMARK    5  A    between atoms: C5_5  and  C6_6 
REMARK    6  A    between atoms: C8_8  and  O1_9 
REMARK    7  A    between atoms: C16_18  and  O2_19 
REMARK    8  A    between atoms: C18_22  and  O3_23 
REMARK    9  A    between atoms: C21_27  and  C22_28 
REMARK   10  A    between atoms: C22_28  and  C23_29 
REMARK   11  A    between atoms: C23_29  and  O4_31 
ROOT
HETATM    1  C23 UNL     1      42.756  40.928  53.506  1.00  0.00     0.142 C 
HETATM    2  C24 UNL     1      41.416  41.594  53.672  1.00  0.00     0.062 C 
HETATM    3  C25 UNL     1      43.490  41.014  54.771  1.00  0.00     0.097 C 
HETATM    4  N1  UNL     1      44.063  41.100  55.771  1.00  0.00    -0.194 NA
ENDROOT
BRANCH   1   5
HETATM    5  C22 UNL     1      42.583  39.453  53.170  1.00  0.00     0.053 C 
BRANCH   5   6
HETATM    6  C21 UNL     1      41.190  39.226  52.685  1.00  0.00     0.008 C 
BRANCH   6   7
HETATM    7  C2  UNL     1      40.619  37.880  52.995  1.00  0.00    -0.019 C 
HETATM    8  C1  UNL     1      40.077  37.229  51.749  1.00  0.00     0.010 C 
BRANCH   7   9
HETATM    9  C3  UNL     1      39.527  38.063  54.021  1.00  0.00     0.004 C 
BRANCH   9  10
HETATM   10  C4  UNL     1      40.060  37.878  55.433  1.00  0.00     0.005 C 
BRANCH  10  11
HETATM   11  C5  UNL     1      39.705  36.456  55.874  1.00  0.00     0.035 C 
BRANCH  11  12
HETATM   12  C6  UNL     1      38.439  36.366  56.625  1.00  0.00    -0.070 C 
HETATM   13  C7  UNL     1      38.448  37.024  57.787  1.00  0.00     0.008 C 
HETATM   14  C8  UNL     1      37.241  37.037  58.685  1.00  0.00     0.141 C 
HETATM   15  C9  UNL     1      36.957  35.528  58.772  1.00  0.00     0.041 C 
HETATM   16  C10 UNL     1      36.465  35.142  57.401  1.00  0.00     0.004 C 
HETATM   17  C11 UNL     1      36.277  33.646  57.461  1.00  0.00     0.006 C 
HETATM   18  C19 UNL     1      37.209  35.682  56.237  1.00  0.00     0.014 C 
HETATM   19  C12 UNL     1      35.601  33.216  56.216  1.00  0.00     0.008 C 
HETATM   20  C13 UNL     1      36.182  33.738  54.984  1.00  0.00     0.021 C 
HETATM   21  C14 UNL     1      36.679  32.591  54.092  1.00  0.00     0.010 C 
HETATM   22  C18 UNL     1      37.361  34.691  55.116  1.00  0.00     0.075 C 
HETATM   23  C15 UNL     1      37.262  33.031  52.806  1.00  0.00     0.032 C 
HETATM   24  C16 UNL     1      38.109  34.251  52.846  1.00  0.00     0.121 C 
HETATM   25  C17 UNL     1      37.410  35.294  53.734  1.00  0.00     0.071 C 
HETATM   26  C20 UNL     1      36.311  36.813  55.683  1.00  0.00     0.023 C 
BRANCH  14  27
HETATM   27  O1  UNL     1      37.527  37.520  59.946  1.00  0.00    -0.392 OA
ATOM     28  H1  UNL     1      38.436  37.781  60.036  1.00  0.00     0.210 HD
ENDBRANCH  14  27
BRANCH  24  29
HETATM   29  O2  UNL     1      39.426  34.065  53.150  1.00  0.00    -0.395 OA
ATOM     30  H2  UNL     1      40.031  34.045  52.417  1.00  0.00     0.210 HD
ENDBRANCH  24  29
BRANCH  22  31
HETATM   31  O3  UNL     1      38.452  33.819  55.298  1.00  0.00    -0.388 OA
ATOM     32  H3  UNL     1      38.924  34.218  56.019  1.00  0.00     0.210 HD
ENDBRANCH  22  31
ENDBRANCH  11  12
ENDBRANCH  10  11
ENDBRANCH   9  10
ENDBRANCH   7   9
ENDBRANCH   6   7
ENDBRANCH   5   6
ENDBRANCH   1   5
BRANCH   1  33
HETATM   33  O4  UNL     1      43.499  41.503  52.476  1.00  0.00    -0.376 OA
ATOM     34  H4  UNL     1      43.909  40.793  51.995  1.00  0.00     0.211 HD
ENDBRANCH   1  33
TORSDOF 11
ENDMDL
