MODEL 1
REMARK VINA RESULT: -5.485775602      0.000      0.000
REMARK  2 active torsions:
REMARK  status: ('A' for Active; 'I' for Inactive)
REMARK    1  A    between atoms: C2_2  and  C3_3 
REMARK    2  A    between atoms: C8_11  and  O1_12 
ROOT
HETATM    1  C1  UNL     1       0.881  -3.734  20.848  1.00  0.00     0.027 C 
HETATM    2  C2  UNL     1       1.330  -2.360  20.329  1.00  0.00     0.080 C 
HETATM    3  C4  UNL     1       1.766  -1.573  21.525  1.00  0.00     0.021 C 
HETATM    4  C5  UNL     1       2.605  -0.378  21.202  1.00  0.00     0.001 C 
HETATM    5  C6  UNL     1       3.727  -0.678  20.246  1.00  0.00     0.002 C 
HETATM    6  C7  UNL     1       3.222  -1.357  19.009  1.00  0.00     0.033 C 
HETATM    7  C8  UNL     1       2.490  -2.601  19.421  1.00  0.00     0.135 C 
ENDROOT
BRANCH   2   8
HETATM    8  C3  UNL     1       0.135  -1.765  19.633  1.00  0.00     0.397 C 
HETATM    9  F1  UNL     1      -0.943  -2.616  19.913  1.00  0.00    -0.170 F 
HETATM   10  F2  UNL     1       0.352  -1.794  18.281  1.00  0.00    -0.170 F 
HETATM   11  F3  UNL     1      -0.220  -0.532  20.109  1.00  0.00    -0.170 F 
ENDBRANCH   2   8
BRANCH   7  12
HETATM   12  O1  UNL     1       2.137  -3.397  18.335  1.00  0.00    -0.395 OA
ATOM     13  H1  UNL     1       2.898  -3.792  17.927  1.00  0.00     0.210 HD
ENDBRANCH   7  12
TORSDOF 2
ENDMDL
MODEL 2
REMARK VINA RESULT: -5.339080545      0.087      1.125
REMARK  2 active torsions:
REMARK  status: ('A' for Active; 'I' for Inactive)
REMARK    1  A    between atoms: C2_2  and  C3_3 
REMARK    2  A    between atoms: C8_11  and  O1_12 
ROOT
HETATM    1  C1  UNL     1       0.887  -3.747  20.906  1.00  0.00     0.027 C 
HETATM    2  C2  UNL     1       1.330  -2.393  20.330  1.00  0.00     0.080 C 
HETATM    3  C4  UNL     1       1.761  -1.555  21.491  1.00  0.00     0.021 C 
HETATM    4  C5  UNL     1       2.595  -0.371  21.119  1.00  0.00     0.001 C 
HETATM    5  C6  UNL     1       3.717  -0.705  20.175  1.00  0.00     0.002 C 
HETATM    6  C7  UNL     1       3.216  -1.438  18.968  1.00  0.00     0.033 C 
HETATM    7  C8  UNL     1       2.490  -2.667  19.432  1.00  0.00     0.135 C 
ENDROOT
BRANCH   2   8
HETATM    8  C3  UNL     1       0.131  -1.835  19.610  1.00  0.00     0.397 C 
HETATM    9  F1  UNL     1      -0.073  -0.550  20.131  1.00  0.00    -0.170 F 
HETATM   10  F2  UNL     1      -0.965  -2.593  19.922  1.00  0.00    -0.170 F 
HETATM   11  F3  UNL     1       0.325  -1.673  18.264  1.00  0.00    -0.170 F 
ENDBRANCH   2   8
BRANCH   7  12
HETATM   12  O1  UNL     1       2.141  -3.509  18.380  1.00  0.00    -0.395 OA
ATOM     13  H1  UNL     1       1.653  -3.049  17.708  1.00  0.00     0.210 HD
ENDBRANCH   7  12
TORSDOF 2
ENDMDL
MODEL 3
REMARK VINA RESULT: -4.765598404      0.992      1.252
REMARK  2 active torsions:
REMARK  status: ('A' for Active; 'I' for Inactive)
REMARK    1  A    between atoms: C2_2  and  C3_3 
REMARK    2  A    between atoms: C8_11  and  O1_12 
ROOT
HETATM    1  C1  UNL     1       1.668  -3.585  19.823  1.00  0.00     0.027 C 
HETATM    2  C2  UNL     1       1.597  -2.144  20.350  1.00  0.00     0.080 C 
HETATM    3  C4  UNL     1       1.630  -2.232  21.842  1.00  0.00     0.021 C 
HETATM    4  C5  UNL     1       1.975  -0.947  22.527  1.00  0.00     0.001 C 
HETATM    5  C6  UNL     1       3.183  -0.267  21.943  1.00  0.00     0.002 C 
HETATM    6  C7  UNL     1       3.048  -0.092  20.461  1.00  0.00     0.033 C 
HETATM    7  C8  UNL     1       2.815  -1.442  19.847  1.00  0.00     0.135 C 
ENDROOT
BRANCH   2   8
HETATM    8  C3  UNL     1       0.311  -1.569  19.819  1.00  0.00     0.397 C 
HETATM    9  F1  UNL     1      -0.722  -2.283  20.441  1.00  0.00    -0.170 F 
HETATM   10  F2  UNL     1       0.239  -1.813  18.473  1.00  0.00    -0.170 F 
HETATM   11  F3  UNL     1       0.118  -0.254  20.152  1.00  0.00    -0.170 F 
ENDBRANCH   2   8
BRANCH   7  12
HETATM   12  O1  UNL     1       2.855  -1.410  18.457  1.00  0.00    -0.395 OA
ATOM     13  H1  UNL     1       3.462  -0.753  18.137  1.00  0.00     0.210 HD
ENDBRANCH   7  12
TORSDOF 2
ENDMDL
MODEL 4
REMARK VINA RESULT: -4.295357740      1.520      1.965
REMARK  2 active torsions:
REMARK  status: ('A' for Active; 'I' for Inactive)
REMARK    1  A    between atoms: C2_2  and  C3_3 
REMARK    2  A    between atoms: C8_11  and  O1_12 
ROOT
HETATM    1  C1  UNL     1       1.933  -3.755  20.032  1.00  0.00     0.027 C 
HETATM    2  C2  UNL     1       2.326  -2.332  19.609  1.00  0.00     0.080 C 
HETATM    3  C4  UNL     1       1.626  -1.399  20.546  1.00  0.00     0.021 C 
HETATM    4  C5  UNL     1       2.184  -0.012  20.565  1.00  0.00     0.001 C 
HETATM    5  C6  UNL     1       3.682   0.026  20.695  1.00  0.00     0.002 C 
HETATM    6  C7  UNL     1       4.342  -0.829  19.655  1.00  0.00     0.033 C 
HETATM    7  C8  UNL     1       3.804  -2.224  19.784  1.00  0.00     0.135 C 
ENDROOT
BRANCH   2   8
HETATM    8  C3  UNL     1       1.877  -2.182  18.180  1.00  0.00     0.397 C 
HETATM    9  F1  UNL     1       0.498  -1.933  18.228  1.00  0.00    -0.170 F 
HETATM   10  F2  UNL     1       2.066  -3.372  17.530  1.00  0.00    -0.170 F 
HETATM   11  F3  UNL     1       2.435  -1.109  17.539  1.00  0.00    -0.170 F 
ENDBRANCH   2   8
BRANCH   7  12
HETATM   12  O1  UNL     1       4.486  -3.134  18.981  1.00  0.00    -0.395 OA
ATOM     13  H1  UNL     1       5.338  -2.805  18.720  1.00  0.00     0.210 HD
ENDBRANCH   7  12
TORSDOF 2
ENDMDL
MODEL 5
REMARK VINA RESULT: -4.178059873      1.731      2.614
REMARK  2 active torsions:
REMARK  status: ('A' for Active; 'I' for Inactive)
REMARK    1  A    between atoms: C2_2  and  C3_3 
REMARK    2  A    between atoms: C8_11  and  O1_12 
ROOT
HETATM    1  C1  UNL     1       3.851  -3.733  18.859  1.00  0.00     0.027 C 
HETATM    2  C2  UNL     1       2.934  -2.539  19.164  1.00  0.00     0.080 C 
HETATM    3  C4  UNL     1       2.032  -2.966  20.278  1.00  0.00     0.021 C 
HETATM    4  C5  UNL     1       1.352  -1.837  20.986  1.00  0.00     0.001 C 
HETATM    5  C6  UNL     1       2.288  -0.725  21.371  1.00  0.00     0.002 C 
HETATM    6  C7  UNL     1       3.082  -0.248  20.193  1.00  0.00     0.033 C 
HETATM    7  C8  UNL     1       3.817  -1.422  19.615  1.00  0.00     0.135 C 
ENDROOT
BRANCH   2   8
HETATM    8  C3  UNL     1       2.197  -2.242  17.886  1.00  0.00     0.397 C 
HETATM    9  F1  UNL     1       0.832  -2.288  18.202  1.00  0.00    -0.170 F 
HETATM   10  F2  UNL     1       2.453  -3.242  16.986  1.00  0.00    -0.170 F 
HETATM   11  F3  UNL     1       2.431  -0.985  17.395  1.00  0.00    -0.170 F 
ENDBRANCH   2   8
BRANCH   7  12
HETATM   12  O1  UNL     1       4.724  -1.051  18.627  1.00  0.00    -0.395 OA
ATOM     13  H1  UNL     1       5.428  -0.519  18.977  1.00  0.00     0.210 HD
ENDBRANCH   7  12
TORSDOF 2
ENDMDL
