MODEL 1
REMARK VINA RESULT: -4.610022140      0.000      0.000
REMARK  2 active torsions:
REMARK  status: ('A' for Active; 'I' for Inactive)
REMARK    1  A    between atoms: C1_4  and  C2_6 
REMARK    2  A    between atoms: C7_11  and  O1_12 
ROOT
HETATM    1  C2  UNL     1       1.897  -0.897  20.464  1.00  0.00     0.076 C 
HETATM    2  C3  UNL     1       2.969  -1.266  19.509  1.00  0.00     0.014 C 
HETATM    3  C4  UNL     1       2.606  -2.263  18.477  1.00  0.00     0.001 C 
HETATM    4  C5  UNL     1       1.889  -3.468  18.971  1.00  0.00     0.002 C 
HETATM    5  C6  UNL     1       1.153  -3.286  20.247  1.00  0.00     0.032 C 
HETATM    6  C7  UNL     1       0.751  -1.867  20.527  1.00  0.00     0.129 C 
ENDROOT
BRANCH   1   7
HETATM    7  C1  UNL     1       2.515  -0.674  21.800  1.00  0.00     0.080 C 
HETATM    8  N1  UNL     1       3.453   0.150  22.025  1.00  0.00    -0.393 N 
ATOM      9  H12 UNL     1       3.876   0.302  22.940  1.00  0.00     0.156 HD
ATOM     10  H11 UNL     1       3.813   0.702  21.247  1.00  0.00     0.156 HD
HETATM   11 CL1  UNL     1       1.897  -1.620  23.136  1.00  0.00    -0.069 Cl
ENDBRANCH   1   7
BRANCH   6  12
HETATM   12  O1  UNL     1      -0.265  -1.537  19.631  1.00  0.00    -0.395 OA
ATOM     13  H1  UNL     1      -0.872  -0.905  19.997  1.00  0.00     0.210 HD
ENDBRANCH   6  12
TORSDOF 2
ENDMDL
MODEL 2
REMARK VINA RESULT: -4.567795431      2.071      2.610
REMARK  2 active torsions:
REMARK  status: ('A' for Active; 'I' for Inactive)
REMARK    1  A    between atoms: C1_4  and  C2_6 
REMARK    2  A    between atoms: C7_11  and  O1_12 
ROOT
HETATM    1  C2  UNL     1       3.276  -1.583  20.395  1.00  0.00     0.076 C 
HETATM    2  C3  UNL     1       1.887  -1.888  20.813  1.00  0.00     0.014 C 
HETATM    3  C4  UNL     1       1.151  -2.857  19.972  1.00  0.00     0.001 C 
HETATM    4  C5  UNL     1       1.230  -2.626  18.505  1.00  0.00     0.002 C 
HETATM    5  C6  UNL     1       2.420  -1.863  18.050  1.00  0.00     0.032 C 
HETATM    6  C7  UNL     1       3.599  -1.954  18.974  1.00  0.00     0.129 C 
ENDROOT
BRANCH   1   7
HETATM    7  C1  UNL     1       3.544  -0.144  20.671  1.00  0.00     0.080 C 
HETATM    8  N1  UNL     1       4.524   0.504  20.194  1.00  0.00    -0.393 N 
ATOM      9  H12 UNL     1       4.707   1.489  20.384  1.00  0.00     0.156 HD
ATOM     10  H11 UNL     1       5.176   0.018  19.579  1.00  0.00     0.156 HD
HETATM   11 CL1  UNL     1       2.425   0.689  21.727  1.00  0.00    -0.069 Cl
ENDBRANCH   1   7
BRANCH   6  12
HETATM   12  O1  UNL     1       4.108  -3.248  18.875  1.00  0.00    -0.395 OA
ATOM     13  H1  UNL     1       5.022  -3.253  18.618  1.00  0.00     0.210 HD
ENDBRANCH   6  12
TORSDOF 2
ENDMDL
MODEL 3
REMARK VINA RESULT: -4.284932001     10.564     11.169
REMARK  2 active torsions:
REMARK  status: ('A' for Active; 'I' for Inactive)
REMARK    1  A    between atoms: C1_4  and  C2_6 
REMARK    2  A    between atoms: C7_11  and  O1_12 
ROOT
HETATM    1  C2  UNL     1      -3.699  -8.252  13.750  1.00  0.00     0.076 C 
HETATM    2  C3  UNL     1      -3.016  -8.298  15.065  1.00  0.00     0.014 C 
HETATM    3  C4  UNL     1      -3.795  -8.875  16.184  1.00  0.00     0.001 C 
HETATM    4  C5  UNL     1      -5.189  -8.377  16.320  1.00  0.00     0.002 C 
HETATM    5  C6  UNL     1      -5.793  -7.842  15.075  1.00  0.00     0.032 C 
HETATM    6  C7  UNL     1      -5.194  -8.395  13.815  1.00  0.00     0.129 C 
ENDROOT
BRANCH   1   7
HETATM    7  C1  UNL     1      -3.285  -7.005  13.049  1.00  0.00     0.080 C 
HETATM    8  N1  UNL     1      -2.233  -6.350  13.319  1.00  0.00    -0.393 N 
ATOM      9  H12 UNL     1      -1.950  -5.496  12.839  1.00  0.00     0.156 HD
ATOM     10  H11 UNL     1      -1.623  -6.692  14.062  1.00  0.00     0.156 HD
HETATM   11 CL1  UNL     1      -4.331  -6.418  11.775  1.00  0.00    -0.069 Cl
ENDBRANCH   1   7
BRANCH   6  12
HETATM   12  O1  UNL     1      -5.598  -9.724  13.709  1.00  0.00    -0.395 OA
ATOM     13  H1  UNL     1      -5.806  -9.964  12.814  1.00  0.00     0.210 HD
ENDBRANCH   6  12
TORSDOF 2
ENDMDL
MODEL 4
REMARK VINA RESULT: -4.261684185      2.283      2.776
REMARK  2 active torsions:
REMARK  status: ('A' for Active; 'I' for Inactive)
REMARK    1  A    between atoms: C1_4  and  C2_6 
REMARK    2  A    between atoms: C7_11  and  O1_12 
ROOT
HETATM    1  C2  UNL     1       3.116  -1.592  20.520  1.00  0.00     0.076 C 
HETATM    2  C3  UNL     1       1.713  -1.961  20.825  1.00  0.00     0.014 C 
HETATM    3  C4  UNL     1       1.077  -2.925  19.900  1.00  0.00     0.001 C 
HETATM    4  C5  UNL     1       1.253  -2.638  18.451  1.00  0.00     0.002 C 
HETATM    5  C6  UNL     1       2.442  -1.817  18.111  1.00  0.00     0.032 C 
HETATM    6  C7  UNL     1       3.554  -1.900  19.115  1.00  0.00     0.129 C 
ENDROOT
BRANCH   1   7
HETATM    7  C1  UNL     1       3.309  -0.156  20.864  1.00  0.00     0.080 C 
HETATM    8  N1  UNL     1       2.528   0.510  21.610  1.00  0.00    -0.393 N 
ATOM      9  H12 UNL     1       2.661   1.494  21.845  1.00  0.00     0.156 HD
ATOM     10  H11 UNL     1       1.713   0.042  22.004  1.00  0.00     0.156 HD
HETATM   11 CL1  UNL     1       4.708   0.648  20.188  1.00  0.00    -0.069 Cl
ENDBRANCH   1   7
BRANCH   6  12
HETATM   12  O1  UNL     1       4.117  -3.171  19.010  1.00  0.00    -0.395 OA
ATOM     13  H1  UNL     1       4.782  -3.211  18.332  1.00  0.00     0.210 HD
ENDBRANCH   6  12
TORSDOF 2
ENDMDL
MODEL 5
REMARK VINA RESULT: -4.210928723      2.716      3.525
REMARK  2 active torsions:
REMARK  status: ('A' for Active; 'I' for Inactive)
REMARK    1  A    between atoms: C1_4  and  C2_6 
REMARK    2  A    between atoms: C7_11  and  O1_12 
ROOT
HETATM    1  C2  UNL     1       2.447  -1.905  20.286  1.00  0.00     0.076 C 
HETATM    2  C3  UNL     1       3.683  -1.506  19.571  1.00  0.00     0.014 C 
HETATM    3  C4  UNL     1       4.500  -0.456  20.219  1.00  0.00     0.001 C 
HETATM    4  C5  UNL     1       3.752   0.734  20.704  1.00  0.00     0.002 C 
HETATM    5  C6  UNL     1       2.315   0.501  20.993  1.00  0.00     0.032 C 
HETATM    6  C7  UNL     1       1.977  -0.923  21.323  1.00  0.00     0.129 C 
ENDROOT
BRANCH   1   7
HETATM    7  C1  UNL     1       1.394  -2.199  19.275  1.00  0.00     0.080 C 
HETATM    8  N1  UNL     1       1.629  -2.609  18.098  1.00  0.00    -0.393 N 
ATOM      9  H12 UNL     1       0.907  -2.810  17.406  1.00  0.00     0.156 HD
ATOM     10  H11 UNL     1       2.598  -2.750  17.816  1.00  0.00     0.156 HD
HETATM   11 CL1  UNL     1      -0.270  -1.956  19.760  1.00  0.00    -0.069 Cl
ENDBRANCH   1   7
BRANCH   6  12
HETATM   12  O1  UNL     1       2.509  -1.197  22.582  1.00  0.00    -0.395 OA
ATOM     13  H1  UNL     1       2.225  -0.567  23.233  1.00  0.00     0.210 HD
ENDBRANCH   6  12
TORSDOF 2
ENDMDL
