MODEL 1
REMARK VINA RESULT: -3.093031378      0.000      0.000
REMARK  3 active torsions:
REMARK  status: ('A' for Active; 'I' for Inactive)
REMARK    1  A    between atoms: C2_2  and  S1_5 
REMARK    2  A    between atoms: S1_5  and  C5_6 
REMARK    3  A    between atoms: C5_6  and  N1_7 
ROOT
HETATM    1  C5  UNL     1       2.799  -2.292  18.705  1.00  0.00     0.389 C 
HETATM    2  F1  UNL     1       2.766  -1.151  17.963  1.00  0.00    -0.180 F 
HETATM    3 CL1  UNL     1       4.488  -2.435  19.292  1.00  0.00    -0.041 Cl
ENDROOT
BRANCH   1   4
HETATM    4  S1  UNL     1       1.728  -2.390  20.096  1.00  0.00    -0.072 SA
BRANCH   4   5
HETATM    5  C2  UNL     1       1.555  -1.014  21.169  1.00  0.00     0.003 C 
HETATM    6  C1  UNL     1       2.521   0.109  21.045  1.00  0.00     0.026 C 
HETATM    7  C3  UNL     1       0.182  -0.394  20.901  1.00  0.00     0.026 C 
HETATM    8  C4  UNL     1       1.530  -1.498  22.609  1.00  0.00     0.026 C 
ENDBRANCH   4   5
ENDBRANCH   1   4
BRANCH   1   9
HETATM    9  N1  UNL     1       2.591  -3.486  17.886  1.00  0.00    -0.018 N 
ATOM     10  H13 UNL     1       3.339  -4.171  17.992  1.00  0.00     0.280 HD
ATOM     11  H12 UNL     1       1.824  -4.067  18.224  1.00  0.00     0.280 HD
ATOM     12  H11 UNL     1       2.462  -3.188  16.919  1.00  0.00     0.280 HD
ENDBRANCH   1   9
TORSDOF 3
ENDMDL
MODEL 2
REMARK VINA RESULT: -3.065535795      0.208      1.454
REMARK  3 active torsions:
REMARK  status: ('A' for Active; 'I' for Inactive)
REMARK    1  A    between atoms: C2_2  and  S1_5 
REMARK    2  A    between atoms: S1_5  and  C5_6 
REMARK    3  A    between atoms: C5_6  and  N1_7 
ROOT
HETATM    1  C5  UNL     1       2.852  -2.302  18.729  1.00  0.00     0.389 C 
HETATM    2  F1  UNL     1       2.884  -1.115  18.064  1.00  0.00    -0.180 F 
HETATM    3 CL1  UNL     1       4.526  -2.568  19.319  1.00  0.00    -0.041 Cl
ENDROOT
BRANCH   1   4
HETATM    4  S1  UNL     1       1.763  -2.438  20.103  1.00  0.00    -0.072 SA
BRANCH   4   5
HETATM    5  C2  UNL     1       1.620  -1.114  21.244  1.00  0.00     0.003 C 
HETATM    6  C1  UNL     1       1.571  -1.430  22.695  1.00  0.00     0.026 C 
HETATM    7  C3  UNL     1       2.851  -0.224  21.068  1.00  0.00     0.026 C 
HETATM    8  C4  UNL     1       0.419  -0.258  20.875  1.00  0.00     0.026 C 
ENDBRANCH   4   5
ENDBRANCH   1   4
BRANCH   1   9
HETATM    9  N1  UNL     1       2.594  -3.428  17.832  1.00  0.00    -0.018 N 
ATOM     10  H13 UNL     1       2.498  -4.313  18.329  1.00  0.00     0.280 HD
ATOM     11  H12 UNL     1       1.661  -3.400  17.422  1.00  0.00     0.280 HD
ATOM     12  H11 UNL     1       3.333  -3.448  17.130  1.00  0.00     0.280 HD
ENDBRANCH   1   9
TORSDOF 3
ENDMDL
MODEL 3
REMARK VINA RESULT: -2.981362010      0.261      1.348
REMARK  3 active torsions:
REMARK  status: ('A' for Active; 'I' for Inactive)
REMARK    1  A    between atoms: C2_2  and  S1_5 
REMARK    2  A    between atoms: S1_5  and  C5_6 
REMARK    3  A    between atoms: C5_6  and  N1_7 
ROOT
HETATM    1  C5  UNL     1       2.849  -2.289  18.723  1.00  0.00     0.389 C 
HETATM    2  F1  UNL     1       2.906  -1.139  17.997  1.00  0.00    -0.180 F 
HETATM    3 CL1  UNL     1       4.524  -2.581  19.295  1.00  0.00    -0.041 Cl
ENDROOT
BRANCH   1   4
HETATM    4  S1  UNL     1       1.782  -2.318  20.121  1.00  0.00    -0.072 SA
BRANCH   4   5
HETATM    5  C2  UNL     1       1.672  -0.917  21.169  1.00  0.00     0.003 C 
HETATM    6  C1  UNL     1       0.513   0.000  21.009  1.00  0.00     0.026 C 
HETATM    7  C3  UNL     1       1.584  -1.428  22.608  1.00  0.00     0.026 C 
HETATM    8  C4  UNL     1       2.961  -0.117  21.079  1.00  0.00     0.026 C 
ENDBRANCH   4   5
ENDBRANCH   1   4
BRANCH   1   9
HETATM    9  N1  UNL     1       2.537  -3.449  17.890  1.00  0.00    -0.018 N 
ATOM     10  H13 UNL     1       2.103  -4.207  18.417  1.00  0.00     0.280 HD
ATOM     11  H12 UNL     1       1.768  -3.275  17.243  1.00  0.00     0.280 HD
ATOM     12  H11 UNL     1       3.392  -3.738  17.415  1.00  0.00     0.280 HD
ENDBRANCH   1   9
TORSDOF 3
ENDMDL
MODEL 4
REMARK VINA RESULT: -2.826815818     10.184     11.072
REMARK  3 active torsions:
REMARK  status: ('A' for Active; 'I' for Inactive)
REMARK    1  A    between atoms: C2_2  and  S1_5 
REMARK    2  A    between atoms: S1_5  and  C5_6 
REMARK    3  A    between atoms: C5_6  and  N1_7 
ROOT
HETATM    1  C5  UNL     1      -2.921  -8.136  15.356  1.00  0.00     0.389 C 
HETATM    2  F1  UNL     1      -2.792  -6.787  15.486  1.00  0.00    -0.180 F 
HETATM    3 CL1  UNL     1      -4.122  -8.627  16.595  1.00  0.00    -0.041 Cl
ENDROOT
BRANCH   1   4
HETATM    4  S1  UNL     1      -3.459  -8.756  13.800  1.00  0.00    -0.072 SA
BRANCH   4   5
HETATM    5  C2  UNL     1      -4.697  -7.905  12.897  1.00  0.00     0.003 C 
HETATM    6  C1  UNL     1      -5.277  -8.562  11.696  1.00  0.00     0.026 C 
HETATM    7  C3  UNL     1      -5.878  -7.678  13.841  1.00  0.00     0.026 C 
HETATM    8  C4  UNL     1      -4.185  -6.526  12.516  1.00  0.00     0.026 C 
ENDBRANCH   4   5
ENDBRANCH   1   4
BRANCH   1   9
HETATM    9  N1  UNL     1      -1.697  -8.844  15.728  1.00  0.00    -0.018 N 
ATOM     10  H13 UNL     1      -1.753  -9.267  16.654  1.00  0.00     0.280 HD
ATOM     11  H12 UNL     1      -1.558  -9.701  15.194  1.00  0.00     0.280 HD
ATOM     12  H11 UNL     1      -0.916  -8.194  15.639  1.00  0.00     0.280 HD
ENDBRANCH   1   9
TORSDOF 3
ENDMDL
MODEL 5
REMARK VINA RESULT: -2.813775759      3.101      4.021
REMARK  3 active torsions:
REMARK  status: ('A' for Active; 'I' for Inactive)
REMARK    1  A    between atoms: C2_2  and  S1_5 
REMARK    2  A    between atoms: S1_5  and  C5_6 
REMARK    3  A    between atoms: C5_6  and  N1_7 
ROOT
HETATM    1  C5  UNL     1       1.782  -0.286  21.542  1.00  0.00     0.389 C 
HETATM    2  F1  UNL     1       1.775   1.008  21.963  1.00  0.00    -0.180 F 
HETATM    3 CL1  UNL     1       0.184  -0.551  20.773  1.00  0.00    -0.041 Cl
ENDROOT
BRANCH   1   4
HETATM    4  S1  UNL     1       3.026  -0.763  20.393  1.00  0.00    -0.072 SA
BRANCH   4   5
HETATM    5  C2  UNL     1       2.744  -2.106  19.303  1.00  0.00     0.003 C 
HETATM    6  C1  UNL     1       2.227  -1.818  17.940  1.00  0.00     0.026 C 
HETATM    7  C3  UNL     1       4.087  -2.806  19.083  1.00  0.00     0.026 C 
HETATM    8  C4  UNL     1       1.840  -3.123  19.978  1.00  0.00     0.026 C 
ENDBRANCH   4   5
ENDBRANCH   1   4
BRANCH   1   9
HETATM    9  N1  UNL     1       1.813  -1.227  22.661  1.00  0.00    -0.018 N 
ATOM     10  H13 UNL     1       1.311  -0.883  23.480  1.00  0.00     0.280 HD
ATOM     11  H12 UNL     1       1.247  -2.059  22.493  1.00  0.00     0.280 HD
ATOM     12  H11 UNL     1       2.789  -1.449  22.861  1.00  0.00     0.280 HD
ENDBRANCH   1   9
TORSDOF 3
ENDMDL
