MODEL 1
REMARK VINA RESULT: -4.296497187      0.000      0.000
REMARK  1 active torsions:
REMARK  status: ('A' for Active; 'I' for Inactive)
REMARK    1  A    between atoms: C5_11  and  C6_12 
ROOT
HETATM    1  C1  UNL     1      -5.936  -9.324  13.507  1.00  0.00     0.029 C 
HETATM    2  C2  UNL     1      -5.200  -8.213  14.197  1.00  0.00     0.034 C 
HETATM    3  C3  UNL     1      -5.839  -7.913  15.506  1.00  0.00     0.029 C 
HETATM    4  S1  UNL     1      -5.308  -6.737  13.100  1.00  0.00    -0.083 SA
HETATM    5  C4  UNL     1      -3.715  -6.966  12.350  1.00  0.00     0.135 C 
HETATM    6  N1  UNL     1      -3.266  -6.272  11.405  1.00  0.00    -0.380 N 
ATOM      7  H11 UNL     1      -2.350  -6.404  10.974  1.00  0.00     0.158 HD
ATOM      8  H12 UNL     1      -3.707  -5.492  10.919  1.00  0.00     0.158 HD
HETATM    9  N2  UNL     1      -3.108  -8.038  13.018  1.00  0.00    -0.360 N 
ATOM     10  H2  UNL     1      -2.271  -8.501  12.662  1.00  0.00     0.162 HD
HETATM   11  C5  UNL     1      -3.739  -8.433  14.220  1.00  0.00     0.166 C 
ENDROOT
BRANCH  11  12
HETATM   12  C6  UNL     1      -3.043  -7.808  15.407  1.00  0.00     0.377 C 
HETATM   13  F1  UNL     1      -2.357  -6.694  14.905  1.00  0.00    -0.212 F 
HETATM   14  F2  UNL     1      -2.036  -8.638  15.910  1.00  0.00    -0.212 F 
ENDBRANCH  11  12
TORSDOF 1
ENDMDL
MODEL 2
REMARK VINA RESULT: -3.830887573      2.326      3.315
REMARK  1 active torsions:
REMARK  status: ('A' for Active; 'I' for Inactive)
REMARK    1  A    between atoms: C5_11  and  C6_12 
ROOT
HETATM    1  C1  UNL     1      -6.389  -7.589  15.901  1.00  0.00     0.029 C 
HETATM    2  C2  UNL     1      -5.556  -8.125  14.774  1.00  0.00     0.034 C 
HETATM    3  C3  UNL     1      -6.422  -8.821  13.784  1.00  0.00     0.029 C 
HETATM    4  S1  UNL     1      -4.366  -9.323  15.510  1.00  0.00    -0.083 SA
HETATM    5  C4  UNL     1      -3.013  -8.178  15.611  1.00  0.00     0.135 C 
HETATM    6  N1  UNL     1      -1.907  -8.428  16.149  1.00  0.00    -0.380 N 
ATOM      7  H11 UNL     1      -1.129  -7.770  16.208  1.00  0.00     0.158 HD
ATOM      8  H12 UNL     1      -1.596  -9.287  16.603  1.00  0.00     0.158 HD
HETATM    9  N2  UNL     1      -3.439  -6.998  14.988  1.00  0.00    -0.360 N 
ATOM     10  H2  UNL     1      -2.929  -6.118  15.075  1.00  0.00     0.162 HD
HETATM   11  C5  UNL     1      -4.627  -7.113  14.229  1.00  0.00     0.166 C 
ENDROOT
BRANCH  11  12
HETATM   12  C6  UNL     1      -4.299  -7.306  12.767  1.00  0.00     0.377 C 
HETATM   13  F1  UNL     1      -3.105  -6.605  12.547  1.00  0.00    -0.212 F 
HETATM   14  F2  UNL     1      -5.231  -6.670  11.941  1.00  0.00    -0.212 F 
ENDBRANCH  11  12
TORSDOF 1
ENDMDL
MODEL 3
REMARK VINA RESULT: -3.631685265      9.976     10.979
REMARK  1 active torsions:
REMARK  status: ('A' for Active; 'I' for Inactive)
REMARK    1  A    between atoms: C5_11  and  C6_12 
ROOT
HETATM    1  C1  UNL     1       1.969  -1.354  22.850  1.00  0.00     0.029 C 
HETATM    2  C2  UNL     1       2.153  -0.964  21.413  1.00  0.00     0.034 C 
HETATM    3  C3  UNL     1       3.451  -0.258  21.238  1.00  0.00     0.029 C 
HETATM    4  S1  UNL     1       0.766   0.169  20.983  1.00  0.00    -0.083 SA
HETATM    5  C4  UNL     1      -0.249  -1.082  20.236  1.00  0.00     0.135 C 
HETATM    6  N1  UNL     1      -1.420  -0.897  19.823  1.00  0.00    -0.380 N 
ATOM      7  H11 UNL     1      -2.004  -1.615  19.394  1.00  0.00     0.158 HD
ATOM      8  H12 UNL     1      -1.976  -0.042  19.840  1.00  0.00     0.158 HD
HETATM    9  N2  UNL     1       0.515  -2.257  20.213  1.00  0.00    -0.360 N 
ATOM     10  H2  UNL     1       0.106  -3.171  20.013  1.00  0.00     0.162 HD
HETATM   11  C5  UNL     1       1.891  -2.085  20.486  1.00  0.00     0.166 C 
ENDROOT
BRANCH  11  12
HETATM   12  C6  UNL     1       2.677  -2.013  19.198  1.00  0.00     0.377 C 
HETATM   13  F1  UNL     1       1.943  -2.752  18.260  1.00  0.00    -0.212 F 
HETATM   14  F2  UNL     1       3.895  -2.693  19.298  1.00  0.00    -0.212 F 
ENDBRANCH  11  12
TORSDOF 1
ENDMDL
MODEL 4
REMARK VINA RESULT: -3.598809869     17.198     18.048
REMARK  1 active torsions:
REMARK  status: ('A' for Active; 'I' for Inactive)
REMARK    1  A    between atoms: C5_11  and  C6_12 
ROOT
HETATM    1  C1  UNL     1      10.502  -8.121  27.514  1.00  0.00     0.029 C 
HETATM    2  C2  UNL     1       9.229  -7.981  26.731  1.00  0.00     0.034 C 
HETATM    3  C3  UNL     1       8.924  -9.252  26.021  1.00  0.00     0.029 C 
HETATM    4  S1  UNL     1       9.499  -6.632  25.506  1.00  0.00    -0.083 SA
HETATM    5  C4  UNL     1       8.727  -5.363  26.478  1.00  0.00     0.135 C 
HETATM    6  N1  UNL     1       8.698  -4.146  26.169  1.00  0.00    -0.380 N 
ATOM      7  H11 UNL     1       8.255  -3.417  26.728  1.00  0.00     0.158 HD
ATOM      8  H12 UNL     1       9.091  -3.686  25.348  1.00  0.00     0.158 HD
HETATM    9  N2  UNL     1       8.187  -5.995  27.607  1.00  0.00    -0.360 N 
ATOM     10  H2  UNL     1       7.858  -5.474  28.420  1.00  0.00     0.162 HD
HETATM   11  C5  UNL     1       8.132  -7.406  27.537  1.00  0.00     0.166 C 
ENDROOT
BRANCH  11  12
HETATM   12  C6  UNL     1       6.755  -7.856  27.109  1.00  0.00     0.377 C 
HETATM   13  F1  UNL     1       6.064  -6.690  26.752  1.00  0.00    -0.212 F 
HETATM   14  F2  UNL     1       6.025  -8.376  28.183  1.00  0.00    -0.212 F 
ENDBRANCH  11  12
TORSDOF 1
ENDMDL
MODEL 5
REMARK VINA RESULT: -3.595637215     17.868     18.719
REMARK  1 active torsions:
REMARK  status: ('A' for Active; 'I' for Inactive)
REMARK    1  A    between atoms: C5_11  and  C6_12 
ROOT
HETATM    1  C1  UNL     1      11.039  -7.145  26.042  1.00  0.00     0.029 C 
HETATM    2  C2  UNL     1      10.164  -6.459  27.050  1.00  0.00     0.034 C 
HETATM    3  C3  UNL     1      10.979  -5.546  27.897  1.00  0.00     0.029 C 
HETATM    4  S1  UNL     1       9.419  -7.778  28.098  1.00  0.00    -0.083 SA
HETATM    5  C4  UNL     1       7.882  -7.850  27.210  1.00  0.00     0.135 C 
HETATM    6  N1  UNL     1       6.970  -8.684  27.432  1.00  0.00    -0.380 N 
ATOM      7  H11 UNL     1       6.088  -8.726  26.922  1.00  0.00     0.158 HD
ATOM      8  H12 UNL     1       6.943  -9.433  28.123  1.00  0.00     0.158 HD
HETATM    9  N2  UNL     1       7.919  -6.821  26.260  1.00  0.00    -0.360 N 
ATOM     10  H2  UNL     1       7.249  -6.760  25.493  1.00  0.00     0.162 HD
HETATM   11  C5  UNL     1       8.953  -5.873  26.440  1.00  0.00     0.166 C 
ENDROOT
BRANCH  11  12
HETATM   12  C6  UNL     1       8.428  -4.656  27.165  1.00  0.00     0.377 C 
HETATM   13  F1  UNL     1       7.039  -4.672  26.984  1.00  0.00    -0.212 F 
HETATM   14  F2  UNL     1       8.844  -3.470  26.551  1.00  0.00    -0.212 F 
ENDBRANCH  11  12
TORSDOF 1
ENDMDL
