MODEL 1
REMARK VINA RESULT: -5.053111471      0.000      0.000
REMARK  1 active torsions:
REMARK  status: ('A' for Active; 'I' for Inactive)
REMARK    1  A    between atoms: N1_10  and  O1_12 
ROOT
HETATM    1  C1  UNL     1       1.463  -1.458  22.887  1.00  0.00     0.015 C 
HETATM    2  C2  UNL     1       1.739  -0.856  21.501  1.00  0.00    -0.042 C 
HETATM    3  C3  UNL     1       1.104   0.541  21.557  1.00  0.00     0.015 C 
HETATM    4  C4  UNL     1       1.048  -1.604  20.424  1.00  0.00     0.015 C 
HETATM    5  C5  UNL     1       1.864  -2.629  19.718  1.00  0.00     0.086 C 
HETATM    6  C6  UNL     1       3.179  -2.129  19.203  1.00  0.00     0.283 C 
HETATM    7  F1  UNL     1       4.047  -3.210  19.159  1.00  0.00    -0.200 F 
HETATM    8  F2  UNL     1       3.055  -1.647  17.895  1.00  0.00    -0.200 F 
HETATM    9  C7  UNL     1       3.745  -1.055  20.038  1.00  0.00     0.081 C 
HETATM   10  N1  UNL     1       4.747  -0.392  19.562  1.00  0.00    -0.271 N 
ATOM     11  H1  UNL     1       5.150   0.355  20.126  1.00  0.00     0.193 HD
HETATM   12  C8  UNL     1       3.211  -0.730  21.359  1.00  0.00     0.069 C 
ENDROOT
BRANCH  10  13
HETATM   13  O1  UNL     1       5.291  -0.652  18.325  1.00  0.00    -0.290 OA
ATOM     14  H1  UNL     1       6.207  -0.497  18.124  1.00  0.00     0.244 HD
ENDBRANCH  10  13
TORSDOF 1
ENDMDL
MODEL 2
REMARK VINA RESULT: -4.425528415      1.314      1.576
REMARK  1 active torsions:
REMARK  status: ('A' for Active; 'I' for Inactive)
REMARK    1  A    between atoms: N1_10  and  O1_12 
ROOT
HETATM    1  C1  UNL     1       0.553  -3.165  21.231  1.00  0.00     0.015 C 
HETATM    2  C2  UNL     1       1.133  -2.041  20.359  1.00  0.00    -0.042 C 
HETATM    3  C3  UNL     1      -0.001  -1.010  20.261  1.00  0.00     0.015 C 
HETATM    4  C4  UNL     1       1.421  -2.502  18.981  1.00  0.00     0.015 C 
HETATM    5  C5  UNL     1       2.826  -2.913  18.713  1.00  0.00     0.086 C 
HETATM    6  C6  UNL     1       3.856  -1.904  19.120  1.00  0.00     0.283 C 
HETATM    7  F1  UNL     1       5.024  -2.593  19.409  1.00  0.00    -0.200 F 
HETATM    8  F2  UNL     1       4.145  -1.028  18.066  1.00  0.00    -0.200 F 
HETATM    9  C7  UNL     1       3.438  -1.101  20.282  1.00  0.00     0.081 C 
HETATM   10  N1  UNL     1       4.135  -0.051  20.568  1.00  0.00    -0.271 N 
ATOM     11  H1  UNL     1       3.859   0.516  21.369  1.00  0.00     0.193 HD
HETATM   12  C8  UNL     1       2.278  -1.456  21.099  1.00  0.00     0.069 C 
ENDROOT
BRANCH  10  13
HETATM   13  O1  UNL     1       5.236   0.332  19.836  1.00  0.00    -0.290 OA
ATOM     14  H1  UNL     1       5.278   1.158  19.367  1.00  0.00     0.244 HD
ENDBRANCH  10  13
TORSDOF 1
ENDMDL
MODEL 3
REMARK VINA RESULT: -4.241744684      1.767      2.781
REMARK  1 active torsions:
REMARK  status: ('A' for Active; 'I' for Inactive)
REMARK    1  A    between atoms: N1_10  and  O1_12 
ROOT
HETATM    1  C1  UNL     1      -0.575  -1.418  20.266  1.00  0.00     0.015 C 
HETATM    2  C2  UNL     1       0.818  -1.897  20.702  1.00  0.00    -0.042 C 
HETATM    3  C3  UNL     1       0.601  -3.353  21.141  1.00  0.00     0.015 C 
HETATM    4  C4  UNL     1       1.315  -1.156  21.885  1.00  0.00     0.015 C 
HETATM    5  C5  UNL     1       2.219  -0.009  21.601  1.00  0.00     0.086 C 
HETATM    6  C6  UNL     1       3.375  -0.337  20.706  1.00  0.00     0.283 C 
HETATM    7  F1  UNL     1       3.732   0.827  20.043  1.00  0.00    -0.200 F 
HETATM    8  F2  UNL     1       4.488  -0.744  21.453  1.00  0.00    -0.200 F 
HETATM    9  C7  UNL     1       3.059  -1.399  19.736  1.00  0.00     0.081 C 
HETATM   10  N1  UNL     1       4.042  -1.924  19.081  1.00  0.00    -0.271 N 
ATOM     11  H1  UNL     1       3.841  -2.661  18.406  1.00  0.00     0.193 HD
HETATM   12  C8  UNL     1       1.692  -1.862  19.503  1.00  0.00     0.069 C 
ENDROOT
BRANCH  10  13
HETATM   13  O1  UNL     1       5.348  -1.530  19.258  1.00  0.00    -0.290 OA
ATOM     14  H1  UNL     1       6.067  -2.148  19.324  1.00  0.00     0.244 HD
ENDBRANCH  10  13
TORSDOF 1
ENDMDL
MODEL 4
REMARK VINA RESULT: -4.024031699      1.686      2.567
REMARK  1 active torsions:
REMARK  status: ('A' for Active; 'I' for Inactive)
REMARK    1  A    between atoms: N1_10  and  O1_12 
ROOT
HETATM    1  C1  UNL     1       1.468   0.670  21.673  1.00  0.00     0.015 C 
HETATM    2  C2  UNL     1       2.054  -0.725  21.412  1.00  0.00    -0.042 C 
HETATM    3  C3  UNL     1       1.428  -1.612  22.498  1.00  0.00     0.015 C 
HETATM    4  C4  UNL     1       3.522  -0.758  21.618  1.00  0.00     0.015 C 
HETATM    5  C5  UNL     1       4.353  -0.600  20.394  1.00  0.00     0.086 C 
HETATM    6  C6  UNL     1       3.993  -1.528  19.275  1.00  0.00     0.283 C 
HETATM    7  F1  UNL     1       4.348  -0.907  18.087  1.00  0.00    -0.200 F 
HETATM    8  F2  UNL     1       4.728  -2.718  19.353  1.00  0.00    -0.200 F 
HETATM    9  C7  UNL     1       2.561  -1.874  19.260  1.00  0.00     0.081 C 
HETATM   10  N1  UNL     1       2.186  -2.844  18.494  1.00  0.00    -0.271 N 
ATOM     11  H1  UNL     1       1.199  -3.097  18.473  1.00  0.00     0.193 HD
HETATM   12  C8  UNL     1       1.579  -1.161  20.075  1.00  0.00     0.069 C 
ENDROOT
BRANCH  10  13
HETATM   13  O1  UNL     1       3.065  -3.551  17.706  1.00  0.00    -0.290 OA
ATOM     14  H1  UNL     1       3.439  -3.197  16.908  1.00  0.00     0.244 HD
ENDBRANCH  10  13
TORSDOF 1
ENDMDL
MODEL 5
REMARK VINA RESULT: -3.408370042      2.725      3.868
REMARK  1 active torsions:
REMARK  status: ('A' for Active; 'I' for Inactive)
REMARK    1  A    between atoms: N1_10  and  O1_12 
ROOT
HETATM    1  C1  UNL     1       2.556  -2.553  17.427  1.00  0.00     0.015 C 
HETATM    2  C2  UNL     1       2.866  -2.439  18.928  1.00  0.00    -0.042 C 
HETATM    3  C3  UNL     1       4.287  -3.005  19.068  1.00  0.00     0.015 C 
HETATM    4  C4  UNL     1       1.975  -3.297  19.745  1.00  0.00     0.015 C 
HETATM    5  C5  UNL     1       0.784  -2.624  20.331  1.00  0.00     0.086 C 
HETATM    6  C6  UNL     1       1.092  -1.370  21.090  1.00  0.00     0.283 C 
HETATM    7  F1  UNL     1      -0.032  -0.559  21.029  1.00  0.00    -0.200 F 
HETATM    8  F2  UNL     1       1.326  -1.646  22.443  1.00  0.00    -0.200 F 
HETATM    9  C7  UNL     1       2.264  -0.655  20.558  1.00  0.00     0.081 C 
HETATM   10  N1  UNL     1       2.760   0.301  21.273  1.00  0.00    -0.271 N 
ATOM     11  H1  UNL     1       3.572   0.805  20.919  1.00  0.00     0.193 HD
HETATM   12  C8  UNL     1       2.867  -0.996  19.270  1.00  0.00     0.069 C 
ENDROOT
BRANCH  10  13
HETATM   13  O1  UNL     1       2.236   0.666  22.492  1.00  0.00    -0.290 OA
ATOM     14  H1  UNL     1       2.760   1.060  23.179  1.00  0.00     0.244 HD
ENDBRANCH  10  13
TORSDOF 1
ENDMDL
