MODEL 1
REMARK VINA RESULT: -8.850491090      0.000      0.000
REMARK  9 active torsions:
REMARK  status: ('A' for Active; 'I' for Inactive)
REMARK    1  A    between atoms: C6_8  and  O1_9 
REMARK    2  A    between atoms: C7_11  and  C8_12 
REMARK    3  A    between atoms: C12_16  and  C13_17 
REMARK    4  A    between atoms: C13_17  and  C15_19 
REMARK    5  A    between atoms: C15_19  and  O2_20 
REMARK    6  A    between atoms: C15_19  and  C16_22 
REMARK    7  A    between atoms: C16_22  and  C17_23 
REMARK    8  A    between atoms: C16_22  and  C19_25 
REMARK    9  A    between atoms: C19_25  and  C21_27 
ROOT
HETATM    1  C1  UNL     1      12.663  -6.741  46.113  1.00  0.00     0.018 C 
HETATM    2  C2  UNL     1      12.501  -5.978  45.217  1.00  0.00    -0.075 C 
HETATM    3  C3  UNL     1      12.323  -5.068  44.132  1.00  0.00     0.050 A 
HETATM    4  C4  UNL     1      13.275  -4.885  43.152  1.00  0.00     0.026 A 
HETATM    5  C5  UNL     1      14.595  -5.580  43.071  1.00  0.00     0.070 C 
HETATM    6  N1  UNL     1      12.845  -3.978  42.260  1.00  0.00    -0.339 N 
ATOM      7  H1  UNL     1      13.354  -3.659  41.436  1.00  0.00     0.168 HD
HETATM    8  C6  UNL     1      11.626  -3.566  42.646  1.00  0.00     0.148 A 
HETATM    9  C7  UNL     1      11.267  -4.235  43.822  1.00  0.00     0.018 A 
ENDROOT
BRANCH   9  10
HETATM   10  C8  UNL     1      10.021  -4.007  44.586  1.00  0.00     0.034 C 
HETATM   11  C9  UNL     1      10.459  -3.195  45.827  1.00  0.00     0.079 C 
HETATM   12  C10 UNL     1       9.435  -2.155  46.109  1.00  0.00     0.187 C 
HETATM   13  C11 UNL     1       8.568  -2.067  44.912  1.00  0.00     0.075 C 
HETATM   14  O3  UNL     1       9.954  -0.864  46.445  1.00  0.00    -0.259 OA
HETATM   15  O5  UNL     1       8.850  -2.105  47.376  1.00  0.00    -0.259 OA
HETATM   16  C12 UNL     1       8.903  -3.281  44.088  1.00  0.00     0.009 C 
HETATM   17  C24 UNL     1       8.857  -0.711  47.284  1.00  0.00     0.412 C 
HETATM   18  O4  UNL     1       8.200   0.270  47.733  1.00  0.00    -0.229 OA
BRANCH  16  19
HETATM   19  C13 UNL     1       7.574  -3.960  43.812  1.00  0.00     0.043 C 
HETATM   20  C14 UNL     1       7.992  -5.333  43.270  1.00  0.00     0.017 C 
BRANCH  19  21
HETATM   21  C15 UNL     1       6.634  -3.334  42.889  1.00  0.00     0.050 C 
BRANCH  21  22
HETATM   22  O2  UNL     1       6.721  -3.691  41.567  1.00  0.00    -0.364 OA
ATOM     23  H2  UNL     1       6.961  -3.012  40.948  1.00  0.00     0.217 HD
ENDBRANCH  21  22
BRANCH  21  24
HETATM   24  C16 UNL     1       5.250  -2.975  43.263  1.00  0.00    -0.047 C 
BRANCH  24  25
HETATM   25  C17 UNL     1       4.334  -4.202  43.194  1.00  0.00     0.033 C 
HETATM   26  C18 UNL     1       3.288  -4.293  42.198  1.00  0.00     0.010 C 
ENDBRANCH  24  25
BRANCH  24  27
HETATM   27  C19 UNL     1       4.861  -1.991  44.257  1.00  0.00     0.016 C 
HETATM   28  C20 UNL     1       3.746  -1.100  43.624  1.00  0.00     0.015 C 
BRANCH  27  29
HETATM   29  C21 UNL     1       4.384  -2.213  45.614  1.00  0.00    -0.015 C 
HETATM   30  C22 UNL     1       5.672  -2.546  46.450  1.00  0.00     0.010 C 
HETATM   31  C23 UNL     1       3.844  -1.057  46.411  1.00  0.00     0.010 C 
ENDBRANCH  27  29
ENDBRANCH  24  27
ENDBRANCH  21  24
ENDBRANCH  19  21
ENDBRANCH  16  19
ENDBRANCH   9  10
BRANCH   8  32
HETATM   32  O1  UNL     1      10.931  -2.607  41.902  1.00  0.00    -0.346 OA
ATOM     33  H1  UNL     1      10.085  -2.810  41.521  1.00  0.00     0.219 HD
ENDBRANCH   8  32
TORSDOF 9
ENDMDL
MODEL 2
REMARK VINA RESULT: -8.782905502      1.104      2.006
REMARK  9 active torsions:
REMARK  status: ('A' for Active; 'I' for Inactive)
REMARK    1  A    between atoms: C6_8  and  O1_9 
REMARK    2  A    between atoms: C7_11  and  C8_12 
REMARK    3  A    between atoms: C12_16  and  C13_17 
REMARK    4  A    between atoms: C13_17  and  C15_19 
REMARK    5  A    between atoms: C15_19  and  O2_20 
REMARK    6  A    between atoms: C15_19  and  C16_22 
REMARK    7  A    between atoms: C16_22  and  C17_23 
REMARK    8  A    between atoms: C16_22  and  C19_25 
REMARK    9  A    between atoms: C19_25  and  C21_27 
ROOT
HETATM    1  C1  UNL     1      12.720  -7.436  46.942  1.00  0.00     0.018 C 
HETATM    2  C2  UNL     1      12.838  -6.645  46.063  1.00  0.00    -0.075 C 
HETATM    3  C3  UNL     1      13.000  -5.704  45.002  1.00  0.00     0.050 A 
HETATM    4  C4  UNL     1      14.150  -5.624  44.248  1.00  0.00     0.026 A 
HETATM    5  C5  UNL     1      15.368  -6.474  44.413  1.00  0.00     0.070 C 
HETATM    6  N1  UNL     1      14.025  -4.658  43.324  1.00  0.00    -0.339 N 
ATOM      7  H1  UNL     1      14.730  -4.391  42.636  1.00  0.00     0.168 HD
HETATM    8  C6  UNL     1      12.810  -4.105  43.467  1.00  0.00     0.148 A 
HETATM    9  C7  UNL     1      12.136  -4.743  44.516  1.00  0.00     0.018 A 
ENDROOT
BRANCH   9  10
HETATM   10  C8  UNL     1      10.793  -4.376  45.015  1.00  0.00     0.034 C 
HETATM   11  C9  UNL     1      11.059  -3.436  46.214  1.00  0.00     0.079 C 
HETATM   12  C10 UNL     1      10.064  -2.331  46.189  1.00  0.00     0.187 C 
HETATM   13  C11 UNL     1       9.423  -2.357  44.854  1.00  0.00     0.075 C 
HETATM   14  O3  UNL     1      10.593  -1.029  46.463  1.00  0.00    -0.259 OA
HETATM   15  O5  UNL     1       9.274  -2.103  47.317  1.00  0.00    -0.259 OA
HETATM   16  C12 UNL     1       9.822  -3.675  44.247  1.00  0.00     0.009 C 
HETATM   17  C24 UNL     1       9.379  -0.733  47.070  1.00  0.00     0.412 C 
HETATM   18  O4  UNL     1       8.714   0.320  47.280  1.00  0.00    -0.229 OA
BRANCH  16  19
HETATM   19  C13 UNL     1       8.523  -4.330  43.818  1.00  0.00     0.043 C 
HETATM   20  C14 UNL     1       8.974  -5.314  42.730  1.00  0.00     0.017 C 
BRANCH  19  21
HETATM   21  C15 UNL     1       7.441  -3.498  43.307  1.00  0.00     0.050 C 
BRANCH  21  22
HETATM   22  O2  UNL     1       7.497  -3.137  41.984  1.00  0.00    -0.364 OA
ATOM     23  H2  UNL     1       6.750  -3.358  41.441  1.00  0.00     0.217 HD
ENDBRANCH  21  22
BRANCH  21  24
HETATM   24  C16 UNL     1       6.045  -3.605  43.780  1.00  0.00    -0.047 C 
BRANCH  24  25
HETATM   25  C17 UNL     1       5.972  -3.423  45.300  1.00  0.00     0.033 C 
HETATM   26  C18 UNL     1       6.006  -2.105  45.894  1.00  0.00     0.010 C 
ENDBRANCH  24  25
BRANCH  24  27
HETATM   27  C19 UNL     1       4.863  -3.160  43.065  1.00  0.00     0.016 C 
HETATM   28  C20 UNL     1       4.501  -4.263  42.021  1.00  0.00     0.015 C 
BRANCH  27  29
HETATM   29  C21 UNL     1       3.569  -2.773  43.607  1.00  0.00    -0.015 C 
HETATM   30  C22 UNL     1       3.430  -1.242  43.280  1.00  0.00     0.010 C 
HETATM   31  C23 UNL     1       2.309  -3.294  42.970  1.00  0.00     0.010 C 
ENDBRANCH  27  29
ENDBRANCH  24  27
ENDBRANCH  21  24
ENDBRANCH  19  21
ENDBRANCH  16  19
ENDBRANCH   9  10
BRANCH   8  32
HETATM   32  O1  UNL     1      12.402  -3.057  42.635  1.00  0.00    -0.346 OA
ATOM     33  H1  UNL     1      11.958  -3.235  41.815  1.00  0.00     0.219 HD
ENDBRANCH   8  32
TORSDOF 9
ENDMDL
MODEL 3
REMARK VINA RESULT: -8.744861163      0.592      2.133
REMARK  9 active torsions:
REMARK  status: ('A' for Active; 'I' for Inactive)
REMARK    1  A    between atoms: C6_8  and  O1_9 
REMARK    2  A    between atoms: C7_11  and  C8_12 
REMARK    3  A    between atoms: C12_16  and  C13_17 
REMARK    4  A    between atoms: C13_17  and  C15_19 
REMARK    5  A    between atoms: C15_19  and  O2_20 
REMARK    6  A    between atoms: C15_19  and  C16_22 
REMARK    7  A    between atoms: C16_22  and  C17_23 
REMARK    8  A    between atoms: C16_22  and  C19_25 
REMARK    9  A    between atoms: C19_25  and  C21_27 
ROOT
HETATM    1  C1  UNL     1      12.632  -6.750  46.141  1.00  0.00     0.018 C 
HETATM    2  C2  UNL     1      12.477  -5.999  45.235  1.00  0.00    -0.075 C 
HETATM    3  C3  UNL     1      12.310  -5.102  44.136  1.00  0.00     0.050 A 
HETATM    4  C4  UNL     1      13.282  -4.910  43.180  1.00  0.00     0.026 A 
HETATM    5  C5  UNL     1      14.617  -5.579  43.139  1.00  0.00     0.070 C 
HETATM    6  N1  UNL     1      12.857  -4.020  42.268  1.00  0.00    -0.339 N 
ATOM      7  H1  UNL     1      13.381  -3.698  41.454  1.00  0.00     0.168 HD
HETATM    8  C6  UNL     1      11.621  -3.628  42.619  1.00  0.00     0.148 A 
HETATM    9  C7  UNL     1      11.245  -4.293  43.792  1.00  0.00     0.018 A 
ENDROOT
BRANCH   9  10
HETATM   10  C8  UNL     1       9.975  -4.083  44.522  1.00  0.00     0.034 C 
HETATM   11  C9  UNL     1      10.370  -3.269  45.777  1.00  0.00     0.079 C 
HETATM   12  C10 UNL     1       9.325  -2.243  46.033  1.00  0.00     0.187 C 
HETATM   13  C11 UNL     1       8.490  -2.163  44.813  1.00  0.00     0.075 C 
HETATM   14  O3  UNL     1       9.818  -0.947  46.386  1.00  0.00    -0.259 OA
HETATM   15  O5  UNL     1       8.705  -2.203  47.283  1.00  0.00    -0.259 OA
HETATM   16  C12 UNL     1       8.862  -3.370  43.995  1.00  0.00     0.009 C 
HETATM   17  C24 UNL     1       8.696  -0.810  47.195  1.00  0.00     0.412 C 
HETATM   18  O4  UNL     1       8.014   0.162  47.628  1.00  0.00    -0.229 OA
BRANCH  16  19
HETATM   19  C13 UNL     1       7.551  -4.065  43.681  1.00  0.00     0.043 C 
HETATM   20  C14 UNL     1       7.954  -5.111  42.634  1.00  0.00     0.017 C 
BRANCH  19  21
HETATM   21  C15 UNL     1       6.431  -3.277  43.180  1.00  0.00     0.050 C 
BRANCH  21  22
HETATM   22  O2  UNL     1       6.336  -3.114  41.821  1.00  0.00    -0.364 OA
ATOM     23  H2  UNL     1       5.920  -3.811  41.328  1.00  0.00     0.217 HD
ENDBRANCH  21  22
BRANCH  21  24
HETATM   24  C16 UNL     1       5.099  -3.265  43.821  1.00  0.00    -0.047 C 
BRANCH  24  25
HETATM   25  C17 UNL     1       5.007  -2.139  44.858  1.00  0.00     0.033 C 
HETATM   26  C18 UNL     1       5.358  -2.372  46.242  1.00  0.00     0.010 C 
ENDBRANCH  24  25
BRANCH  24  27
HETATM   27  C19 UNL     1       3.839  -3.596  43.182  1.00  0.00     0.016 C 
HETATM   28  C20 UNL     1       3.079  -2.257  42.919  1.00  0.00     0.015 C 
BRANCH  27  29
HETATM   29  C21 UNL     1       3.615  -4.355  41.961  1.00  0.00    -0.015 C 
HETATM   30  C22 UNL     1       2.132  -4.864  42.062  1.00  0.00     0.010 C 
HETATM   31  C23 UNL     1       3.558  -3.638  40.639  1.00  0.00     0.010 C 
ENDBRANCH  27  29
ENDBRANCH  24  27
ENDBRANCH  21  24
ENDBRANCH  19  21
ENDBRANCH  16  19
ENDBRANCH   9  10
BRANCH   8  32
HETATM   32  O1  UNL     1      10.926  -2.690  41.849  1.00  0.00    -0.346 OA
ATOM     33  H1  UNL     1      10.532  -2.940  41.022  1.00  0.00     0.219 HD
ENDBRANCH   8  32
TORSDOF 9
ENDMDL
MODEL 4
REMARK VINA RESULT: -8.705103525      2.708      7.131
REMARK  9 active torsions:
REMARK  status: ('A' for Active; 'I' for Inactive)
REMARK    1  A    between atoms: C6_8  and  O1_9 
REMARK    2  A    between atoms: C7_11  and  C8_12 
REMARK    3  A    between atoms: C12_16  and  C13_17 
REMARK    4  A    between atoms: C13_17  and  C15_19 
REMARK    5  A    between atoms: C15_19  and  O2_20 
REMARK    6  A    between atoms: C15_19  and  C16_22 
REMARK    7  A    between atoms: C16_22  and  C17_23 
REMARK    8  A    between atoms: C16_22  and  C19_25 
REMARK    9  A    between atoms: C19_25  and  C21_27 
ROOT
HETATM    1  C1  UNL     1       9.287  -2.807  46.183  1.00  0.00     0.018 C 
HETATM    2  C2  UNL     1       8.163  -2.427  46.151  1.00  0.00    -0.075 C 
HETATM    3  C3  UNL     1       6.816  -1.955  46.127  1.00  0.00     0.050 A 
HETATM    4  C4  UNL     1       6.352  -0.985  46.988  1.00  0.00     0.026 A 
HETATM    5  C5  UNL     1       7.152  -0.298  48.046  1.00  0.00     0.070 C 
HETATM    6  N1  UNL     1       5.056  -0.735  46.741  1.00  0.00    -0.339 N 
ATOM      7  H1  UNL     1       4.471  -0.060  47.234  1.00  0.00     0.168 HD
HETATM    8  C6  UNL     1       4.668  -1.530  45.731  1.00  0.00     0.148 A 
HETATM    9  C7  UNL     1       5.754  -2.312  45.319  1.00  0.00     0.018 A 
ENDROOT
BRANCH   9  10
HETATM   10  C8  UNL     1       5.705  -3.354  44.270  1.00  0.00     0.034 C 
HETATM   11  C9  UNL     1       4.242  -3.346  43.771  1.00  0.00     0.079 C 
HETATM   12  C10 UNL     1       4.236  -3.517  42.294  1.00  0.00     0.187 C 
HETATM   13  C11 UNL     1       5.622  -3.289  41.827  1.00  0.00     0.075 C 
HETATM   14  O3  UNL     1       3.325  -2.670  41.586  1.00  0.00    -0.259 OA
HETATM   15  O5  UNL     1       3.494  -4.560  41.735  1.00  0.00    -0.259 OA
HETATM   16  C12 UNL     1       6.470  -3.311  43.071  1.00  0.00     0.009 C 
HETATM   17  C24 UNL     1       3.162  -3.709  40.678  1.00  0.00     0.412 C 
HETATM   18  O4  UNL     1       2.850  -3.793  39.457  1.00  0.00    -0.229 OA
BRANCH  16  19
HETATM   19  C13 UNL     1       7.568  -4.320  42.792  1.00  0.00     0.043 C 
HETATM   20  C14 UNL     1       7.544  -5.212  44.040  1.00  0.00     0.017 C 
BRANCH  19  21
HETATM   21  C15 UNL     1       8.926  -3.846  42.555  1.00  0.00     0.050 C 
BRANCH  21  22
HETATM   22  O2  UNL     1       9.185  -2.525  42.819  1.00  0.00    -0.364 OA
ATOM     23  H2  UNL     1      10.029  -2.315  43.199  1.00  0.00     0.217 HD
ENDBRANCH  21  22
BRANCH  21  24
HETATM   24  C16 UNL     1      10.125  -4.685  42.764  1.00  0.00    -0.047 C 
BRANCH  24  25
HETATM   25  C17 UNL     1      10.688  -5.170  41.423  1.00  0.00     0.033 C 
HETATM   26  C18 UNL     1      10.037  -4.830  40.177  1.00  0.00     0.010 C 
ENDBRANCH  24  25
BRANCH  24  27
HETATM   27  C19 UNL     1      11.121  -4.509  43.805  1.00  0.00     0.016 C 
HETATM   28  C20 UNL     1      11.241  -5.863  44.574  1.00  0.00     0.015 C 
BRANCH  27  29
HETATM   29  C21 UNL     1      12.503  -4.075  43.671  1.00  0.00    -0.015 C 
HETATM   30  C22 UNL     1      12.798  -3.246  44.974  1.00  0.00     0.010 C 
HETATM   31  C23 UNL     1      13.613  -5.089  43.747  1.00  0.00     0.010 C 
ENDBRANCH  27  29
ENDBRANCH  24  27
ENDBRANCH  21  24
ENDBRANCH  19  21
ENDBRANCH  16  19
ENDBRANCH   9  10
BRANCH   8  32
HETATM   32  O1  UNL     1       3.351  -1.491  45.261  1.00  0.00    -0.346 OA
ATOM     33  H1  UNL     1       2.653  -1.921  45.741  1.00  0.00     0.219 HD
ENDBRANCH   8  32
TORSDOF 9
ENDMDL
MODEL 5
REMARK VINA RESULT: -8.565236623      3.572      8.151
REMARK  9 active torsions:
REMARK  status: ('A' for Active; 'I' for Inactive)
REMARK    1  A    between atoms: C6_8  and  O1_9 
REMARK    2  A    between atoms: C7_11  and  C8_12 
REMARK    3  A    between atoms: C12_16  and  C13_17 
REMARK    4  A    between atoms: C13_17  and  C15_19 
REMARK    5  A    between atoms: C15_19  and  O2_20 
REMARK    6  A    between atoms: C15_19  and  C16_22 
REMARK    7  A    between atoms: C16_22  and  C17_23 
REMARK    8  A    between atoms: C16_22  and  C19_25 
REMARK    9  A    between atoms: C19_25  and  C21_27 
ROOT
HETATM    1  C1  UNL     1       8.698  -5.527  42.872  1.00  0.00     0.018 C 
HETATM    2  C2  UNL     1       9.620  -5.292  42.161  1.00  0.00    -0.075 C 
HETATM    3  C3  UNL     1      10.716  -5.013  41.290  1.00  0.00     0.050 A 
HETATM    4  C4  UNL     1      10.642  -5.183  39.925  1.00  0.00     0.026 A 
HETATM    5  C5  UNL     1       9.451  -5.670  39.165  1.00  0.00     0.070 C 
HETATM    6  N1  UNL     1      11.810  -4.844  39.357  1.00  0.00    -0.339 N 
ATOM      7  H1  UNL     1      12.025  -4.876  38.360  1.00  0.00     0.168 HD
HETATM    8  C6  UNL     1      12.646  -4.456  40.334  1.00  0.00     0.148 A 
HETATM    9  C7  UNL     1      11.987  -4.549  41.566  1.00  0.00     0.018 A 
ENDROOT
BRANCH   9  10
HETATM   10  C8  UNL     1      12.597  -4.265  42.883  1.00  0.00     0.034 C 
HETATM   11  C9  UNL     1      11.970  -2.923  43.328  1.00  0.00     0.079 C 
HETATM   12  C10 UNL     1      11.685  -2.985  44.786  1.00  0.00     0.187 C 
HETATM   13  C11 UNL     1      11.788  -4.407  45.186  1.00  0.00     0.075 C 
HETATM   14  O3  UNL     1      10.420  -2.445  45.182  1.00  0.00    -0.259 OA
HETATM   15  O5  UNL     1      12.217  -2.004  45.624  1.00  0.00    -0.259 OA
HETATM   16  C12 UNL     1      12.449  -5.100  44.026  1.00  0.00     0.009 C 
HETATM   17  C24 UNL     1      11.032  -2.041  46.362  1.00  0.00     0.412 C 
HETATM   18  O4  UNL     1      10.646  -1.820  47.544  1.00  0.00    -0.229 OA
BRANCH  16  19
HETATM   19  C13 UNL     1      13.627  -5.847  44.621  1.00  0.00     0.043 C 
HETATM   20  C14 UNL     1      13.093  -6.310  45.983  1.00  0.00     0.017 C 
BRANCH  19  21
HETATM   21  C15 UNL     1      14.894  -5.149  44.804  1.00  0.00     0.050 C 
BRANCH  21  22
HETATM   22  O2  UNL     1      14.863  -3.964  45.494  1.00  0.00    -0.364 OA
ATOM     23  H2  UNL     1      14.870  -4.012  46.443  1.00  0.00     0.217 HD
ENDBRANCH  21  22
BRANCH  21  24
HETATM   24  C16 UNL     1      16.185  -5.847  44.984  1.00  0.00    -0.047 C 
BRANCH  24  25
HETATM   25  C17 UNL     1      16.279  -6.460  46.386  1.00  0.00     0.033 C 
HETATM   26  C18 UNL     1      15.999  -7.862  46.604  1.00  0.00     0.010 C 
ENDBRANCH  24  25
BRANCH  24  27
HETATM   27  C19 UNL     1      16.913  -6.574  43.961  1.00  0.00     0.016 C 
HETATM   28  C20 UNL     1      16.371  -6.104  42.574  1.00  0.00     0.015 C 
BRANCH  27  29
HETATM   29  C21 UNL     1      18.352  -6.646  43.752  1.00  0.00    -0.015 C 
HETATM   30  C22 UNL     1      18.543  -6.572  42.194  1.00  0.00     0.010 C 
HETATM   31  C23 UNL     1      19.225  -5.497  44.180  1.00  0.00     0.010 C 
ENDBRANCH  27  29
ENDBRANCH  24  27
ENDBRANCH  21  24
ENDBRANCH  19  21
ENDBRANCH  16  19
ENDBRANCH   9  10
BRANCH   8  32
HETATM   32  O1  UNL     1      13.951  -4.050  40.035  1.00  0.00    -0.346 OA
ATOM     33  H1  UNL     1      14.306  -4.170  39.162  1.00  0.00     0.219 HD
ENDBRANCH   8  32
TORSDOF 9
ENDMDL
