MODEL 1
REMARK VINA RESULT: -9.257361540      0.000      0.000
REMARK  11 active torsions:
REMARK  status: ('A' for Active; 'I' for Inactive)
REMARK    1  A    between atoms: C2_2  and  C3_3 
REMARK    2  A    between atoms: C3_3  and  C6_6 
REMARK    3  A    between atoms: C7_7  and  C8_8 
REMARK    4  A    between atoms: C8_8  and  C9_9 
REMARK    5  A    between atoms: C13_13  and  O1_14 
REMARK    6  A    between atoms: C14_16  and  C15_17 
REMARK    7  A    between atoms: C15_17  and  O2_18 
REMARK    8  A    between atoms: O2_18  and  C16_19 
REMARK    9  A    between atoms: C20_23  and  O3_24 
REMARK   10  A    between atoms: C24_29  and  O4_30 
REMARK   11  A    between atoms: C25_32  and  O5_33 
ROOT
HETATM    1  C6  UNL     1       9.192  -2.252  45.620  1.00  0.00    -0.006 A 
HETATM    2  C7  UNL     1       8.201  -2.420  44.720  1.00  0.00    -0.045 A 
HETATM    3  C12 UNL     1       8.550  -2.840  43.419  1.00  0.00     0.045 A 
HETATM    4  C13 UNL     1       9.834  -3.086  43.029  1.00  0.00     0.077 A 
HETATM    5  C14 UNL     1      10.877  -2.920  43.955  1.00  0.00     0.032 A 
HETATM    6  C25 UNL     1      10.532  -2.511  45.217  1.00  0.00     0.084 A 
ENDROOT
BRANCH   5   7
HETATM    7  C15 UNL     1      12.216  -3.213  43.471  1.00  0.00     0.212 C 
BRANCH   7   8
HETATM    8  O2  UNL     1      12.507  -4.400  42.902  1.00  0.00    -0.378 OA
BRANCH   8   9
HETATM    9  C16 UNL     1      12.910  -5.326  43.841  1.00  0.00     0.154 C 
HETATM   10  C17 UNL     1      14.016  -4.719  44.718  1.00  0.00     0.069 C 
HETATM   11  C18 UNL     1      14.495  -5.782  45.635  1.00  0.00    -0.074 C 
HETATM   12  C19 UNL     1      15.684  -6.327  45.821  1.00  0.00     0.008 C 
HETATM   13  C22 UNL     1      13.495  -6.397  46.549  1.00  0.00     0.019 C 
HETATM   14  C20 UNL     1      15.628  -7.379  46.885  1.00  0.00     0.142 C 
HETATM   15  C21 UNL     1      14.159  -7.607  47.152  1.00  0.00     0.045 C 
HETATM   16  C23 UNL     1      12.359  -6.871  45.676  1.00  0.00     0.043 C 
HETATM   17  C24 UNL     1      11.826  -5.785  44.765  1.00  0.00     0.148 C 
BRANCH  14  18
HETATM   18  O3  UNL     1      16.172  -8.586  46.426  1.00  0.00    -0.392 OA
ATOM     19  H3  UNL     1      15.883  -9.315  46.963  1.00  0.00     0.210 HD
ENDBRANCH  14  18
BRANCH  17  20
HETATM   20  O4  UNL     1      10.746  -6.352  44.069  1.00  0.00    -0.393 OA
ATOM     21  H4  UNL     1       9.977  -6.445  44.619  1.00  0.00     0.210 HD
ENDBRANCH  17  20
ENDBRANCH   8   9
ENDBRANCH   7   8
ENDBRANCH   5   7
BRANCH   4  22
HETATM   22  O1  UNL     1      10.157  -3.493  41.751  1.00  0.00    -0.360 OA
ATOM     23  H1  UNL     1      10.558  -4.334  41.569  1.00  0.00     0.217 HD
ENDBRANCH   4  22
BRANCH   6  24
HETATM   24  O5  UNL     1      11.539  -2.355  46.117  1.00  0.00    -0.359 OA
ATOM     25  H5  UNL     1      12.400  -2.702  45.916  1.00  0.00     0.217 HD
ENDBRANCH   6  24
BRANCH   1  26
HETATM   26  C3  UNL     1       8.904  -1.712  46.936  1.00  0.00    -0.000 C 
HETATM   27  C4  UNL     1       9.750  -0.422  47.155  1.00  0.00     0.024 C 
HETATM   28  C5  UNL     1       9.374  -2.620  48.046  1.00  0.00     0.024 C 
BRANCH  26  29
HETATM   29  C2  UNL     1       7.496  -1.420  47.277  1.00  0.00    -0.023 C 
HETATM   30  C1  UNL     1       7.165  -0.371  48.006  1.00  0.00     0.008 C 
ENDBRANCH  26  29
ENDBRANCH   1  26
BRANCH   2  31
HETATM   31  C8  UNL     1       6.740  -2.327  44.878  1.00  0.00     0.044 C 
BRANCH  31  32
HETATM   32  C9  UNL     1       6.006  -3.006  43.759  1.00  0.00    -0.010 A 
HETATM   33  C10 UNL     1       4.492  -3.037  43.843  1.00  0.00     0.005 A 
HETATM   34  C11 UNL     1       5.296  -4.274  43.775  1.00  0.00     0.005 A 
ENDBRANCH  31  32
ENDBRANCH   2  31
TORSDOF 11
ENDMDL
MODEL 2
REMARK VINA RESULT: -9.023426540      0.742      3.208
REMARK  11 active torsions:
REMARK  status: ('A' for Active; 'I' for Inactive)
REMARK    1  A    between atoms: C2_2  and  C3_3 
REMARK    2  A    between atoms: C3_3  and  C6_6 
REMARK    3  A    between atoms: C7_7  and  C8_8 
REMARK    4  A    between atoms: C8_8  and  C9_9 
REMARK    5  A    between atoms: C13_13  and  O1_14 
REMARK    6  A    between atoms: C14_16  and  C15_17 
REMARK    7  A    between atoms: C15_17  and  O2_18 
REMARK    8  A    between atoms: O2_18  and  C16_19 
REMARK    9  A    between atoms: C20_23  and  O3_24 
REMARK   10  A    between atoms: C24_29  and  O4_30 
REMARK   11  A    between atoms: C25_32  and  O5_33 
ROOT
HETATM    1  C6  UNL     1       8.366  -3.083  44.288  1.00  0.00    -0.006 A 
HETATM    2  C7  UNL     1       8.415  -2.494  45.501  1.00  0.00    -0.045 A 
HETATM    3  C12 UNL     1       9.682  -2.175  46.034  1.00  0.00     0.045 A 
HETATM    4  C13 UNL     1      10.853  -2.429  45.385  1.00  0.00     0.077 A 
HETATM    5  C14 UNL     1      10.821  -3.037  44.119  1.00  0.00     0.032 A 
HETATM    6  C25 UNL     1       9.588  -3.346  43.607  1.00  0.00     0.084 A 
ENDROOT
BRANCH   5   7
HETATM    7  C15 UNL     1      12.109  -3.266  43.484  1.00  0.00     0.212 C 
BRANCH   7   8
HETATM    8  O2  UNL     1      12.405  -4.453  42.918  1.00  0.00    -0.378 OA
BRANCH   8   9
HETATM    9  C16 UNL     1      12.848  -5.363  43.854  1.00  0.00     0.154 C 
HETATM   10  C17 UNL     1      13.963  -4.729  44.698  1.00  0.00     0.069 C 
HETATM   11  C18 UNL     1      14.485  -5.777  45.612  1.00  0.00    -0.074 C 
HETATM   12  C19 UNL     1      15.687  -6.299  45.772  1.00  0.00     0.008 C 
HETATM   13  C22 UNL     1      13.519  -6.402  46.554  1.00  0.00     0.019 C 
HETATM   14  C20 UNL     1      15.677  -7.342  46.845  1.00  0.00     0.142 C 
HETATM   15  C21 UNL     1      14.219  -7.595  47.151  1.00  0.00     0.045 C 
HETATM   16  C23 UNL     1      12.370  -6.904  45.714  1.00  0.00     0.043 C 
HETATM   17  C24 UNL     1      11.796  -5.835  44.808  1.00  0.00     0.148 C 
BRANCH  14  18
HETATM   18  O3  UNL     1      16.231  -8.543  46.383  1.00  0.00    -0.392 OA
ATOM     19  H3  UNL     1      16.455  -8.482  45.461  1.00  0.00     0.210 HD
ENDBRANCH  14  18
BRANCH  17  20
HETATM   20  O4  UNL     1      10.709  -6.426  44.143  1.00  0.00    -0.393 OA
ATOM     21  H4  UNL     1      10.235  -7.030  44.702  1.00  0.00     0.210 HD
ENDBRANCH  17  20
ENDBRANCH   8   9
ENDBRANCH   7   8
ENDBRANCH   5   7
BRANCH   4  22
HETATM   22  O1  UNL     1      12.084  -2.114  45.923  1.00  0.00    -0.360 OA
ATOM     23  H1  UNL     1      12.829  -1.868  45.386  1.00  0.00     0.217 HD
ENDBRANCH   4  22
BRANCH   6  24
HETATM   24  O5  UNL     1       9.553  -3.930  42.380  1.00  0.00    -0.359 OA
ATOM     25  H5  UNL     1       9.742  -3.407  41.610  1.00  0.00     0.217 HD
ENDBRANCH   6  24
BRANCH   1  26
HETATM   26  C3  UNL     1       7.100  -3.536  43.743  1.00  0.00    -0.000 C 
HETATM   27  C4  UNL     1       6.995  -5.082  43.913  1.00  0.00     0.024 C 
HETATM   28  C5  UNL     1       7.018  -3.352  42.246  1.00  0.00     0.024 C 
BRANCH  26  29
HETATM   29  C2  UNL     1       5.859  -2.917  44.253  1.00  0.00    -0.023 C 
HETATM   30  C1  UNL     1       4.670  -3.302  43.829  1.00  0.00     0.008 C 
ENDBRANCH  26  29
ENDBRANCH   1  26
BRANCH   2  31
HETATM   31  C8  UNL     1       7.331  -2.017  46.376  1.00  0.00     0.044 C 
BRANCH  31  32
HETATM   32  C9  UNL     1       7.851  -1.231  47.543  1.00  0.00    -0.010 A 
HETATM   33  C10 UNL     1       6.901  -0.240  48.188  1.00  0.00     0.005 A 
HETATM   34  C11 UNL     1       8.192   0.180  47.609  1.00  0.00     0.005 A 
ENDBRANCH  31  32
ENDBRANCH   2  31
TORSDOF 11
ENDMDL
MODEL 3
REMARK VINA RESULT: -8.863632262      1.942      2.757
REMARK  11 active torsions:
REMARK  status: ('A' for Active; 'I' for Inactive)
REMARK    1  A    between atoms: C2_2  and  C3_3 
REMARK    2  A    between atoms: C3_3  and  C6_6 
REMARK    3  A    between atoms: C7_7  and  C8_8 
REMARK    4  A    between atoms: C8_8  and  C9_9 
REMARK    5  A    between atoms: C13_13  and  O1_14 
REMARK    6  A    between atoms: C14_16  and  C15_17 
REMARK    7  A    between atoms: C15_17  and  O2_18 
REMARK    8  A    between atoms: O2_18  and  C16_19 
REMARK    9  A    between atoms: C20_23  and  O3_24 
REMARK   10  A    between atoms: C24_29  and  O4_30 
REMARK   11  A    between atoms: C25_32  and  O5_33 
ROOT
HETATM    1  C6  UNL     1       8.588  -2.339  45.620  1.00  0.00    -0.006 A 
HETATM    2  C7  UNL     1       7.376  -2.629  45.102  1.00  0.00    -0.045 A 
HETATM    3  C12 UNL     1       7.307  -2.996  43.741  1.00  0.00     0.045 A 
HETATM    4  C13 UNL     1       8.399  -3.074  42.929  1.00  0.00     0.077 A 
HETATM    5  C14 UNL     1       9.669  -2.780  43.453  1.00  0.00     0.032 A 
HETATM    6  C25 UNL     1       9.730  -2.423  44.776  1.00  0.00     0.084 A 
ENDROOT
BRANCH   5   7
HETATM    7  C15 UNL     1      10.787  -2.897  42.531  1.00  0.00     0.212 C 
BRANCH   7   8
HETATM    8  O2  UNL     1      11.091  -4.076  41.951  1.00  0.00    -0.378 OA
BRANCH   8   9
HETATM    9  C16 UNL     1      12.444  -4.336  42.016  1.00  0.00     0.154 C 
HETATM   10  C17 UNL     1      12.712  -5.385  43.106  1.00  0.00     0.069 C 
HETATM   11  C18 UNL     1      14.183  -5.549  43.218  1.00  0.00    -0.074 C 
HETATM   12  C19 UNL     1      15.023  -5.382  44.223  1.00  0.00     0.008 C 
HETATM   13  C22 UNL     1      14.916  -5.982  41.998  1.00  0.00     0.019 C 
HETATM   14  C20 UNL     1      16.427  -5.683  43.801  1.00  0.00     0.142 C 
HETATM   15  C21 UNL     1      16.381  -5.802  42.296  1.00  0.00     0.045 C 
HETATM   16  C23 UNL     1      14.535  -5.011  40.907  1.00  0.00     0.043 C 
HETATM   17  C24 UNL     1      13.036  -4.866  40.748  1.00  0.00     0.148 C 
BRANCH  14  18
HETATM   18  O3  UNL     1      17.285  -4.623  44.121  1.00  0.00    -0.392 OA
ATOM     19  H3  UNL     1      16.947  -3.799  43.788  1.00  0.00     0.210 HD
ENDBRANCH  14  18
BRANCH  17  20
HETATM   20  O4  UNL     1      12.839  -3.989  39.669  1.00  0.00    -0.393 OA
ATOM     21  H4  UNL     1      12.117  -4.262  39.116  1.00  0.00     0.210 HD
ENDBRANCH  17  20
ENDBRANCH   8   9
ENDBRANCH   7   8
ENDBRANCH   5   7
BRANCH   4  22
HETATM   22  O1  UNL     1       8.312  -3.432  41.599  1.00  0.00    -0.360 OA
ATOM     23  H1  UNL     1       7.833  -2.916  40.962  1.00  0.00     0.217 HD
ENDBRANCH   4  22
BRANCH   6  24
HETATM   24  O5  UNL     1      10.958  -2.142  45.287  1.00  0.00    -0.359 OA
ATOM     25  H5  UNL     1      11.709  -2.646  44.998  1.00  0.00     0.217 HD
ENDBRANCH   6  24
BRANCH   1  26
HETATM   26  C3  UNL     1       8.705  -1.845  46.980  1.00  0.00    -0.000 C 
HETATM   27  C4  UNL     1       9.545  -0.533  46.976  1.00  0.00     0.024 C 
HETATM   28  C5  UNL     1       9.516  -2.767  47.859  1.00  0.00     0.024 C 
BRANCH  26  29
HETATM   29  C2  UNL     1       7.463  -1.612  47.746  1.00  0.00    -0.023 C 
HETATM   30  C1  UNL     1       7.141  -0.411  48.191  1.00  0.00     0.008 C 
ENDBRANCH  26  29
ENDBRANCH   1  26
BRANCH   2  31
HETATM   31  C8  UNL     1       6.057  -2.725  45.750  1.00  0.00     0.044 C 
BRANCH  31  32
HETATM   32  C9  UNL     1       5.080  -1.732  45.192  1.00  0.00    -0.010 A 
HETATM   33  C10 UNL     1       3.807  -1.496  45.982  1.00  0.00     0.005 A 
HETATM   34  C11 UNL     1       3.783  -1.976  44.585  1.00  0.00     0.005 A 
ENDBRANCH  31  32
ENDBRANCH   2  31
TORSDOF 11
ENDMDL
MODEL 4
REMARK VINA RESULT: -8.818544465      1.771      3.918
REMARK  11 active torsions:
REMARK  status: ('A' for Active; 'I' for Inactive)
REMARK    1  A    between atoms: C2_2  and  C3_3 
REMARK    2  A    between atoms: C3_3  and  C6_6 
REMARK    3  A    between atoms: C7_7  and  C8_8 
REMARK    4  A    between atoms: C8_8  and  C9_9 
REMARK    5  A    between atoms: C13_13  and  O1_14 
REMARK    6  A    between atoms: C14_16  and  C15_17 
REMARK    7  A    between atoms: C15_17  and  O2_18 
REMARK    8  A    between atoms: O2_18  and  C16_19 
REMARK    9  A    between atoms: C20_23  and  O3_24 
REMARK   10  A    between atoms: C24_29  and  O4_30 
REMARK   11  A    between atoms: C25_32  and  O5_33 
ROOT
HETATM    1  C6  UNL     1       8.071  -3.260  44.409  1.00  0.00    -0.006 A 
HETATM    2  C7  UNL     1       8.266  -2.746  45.641  1.00  0.00    -0.045 A 
HETATM    3  C12 UNL     1       9.591  -2.643  46.115  1.00  0.00     0.045 A 
HETATM    4  C13 UNL     1      10.679  -3.032  45.391  1.00  0.00     0.077 A 
HETATM    5  C14 UNL     1      10.495  -3.565  44.104  1.00  0.00     0.032 A 
HETATM    6  C25 UNL     1       9.205  -3.664  43.650  1.00  0.00     0.084 A 
ENDROOT
BRANCH   5   7
HETATM    7  C15 UNL     1      11.701  -3.946  43.389  1.00  0.00     0.212 C 
BRANCH   7   8
HETATM    8  O2  UNL     1      12.236  -5.176  43.531  1.00  0.00    -0.378 OA
BRANCH   8   9
HETATM    9  C16 UNL     1      13.614  -5.130  43.539  1.00  0.00     0.154 C 
HETATM   10  C17 UNL     1      14.136  -5.638  44.892  1.00  0.00     0.069 C 
HETATM   11  C18 UNL     1      15.610  -5.465  44.897  1.00  0.00    -0.074 C 
HETATM   12  C19 UNL     1      16.423  -4.786  45.687  1.00  0.00     0.008 C 
HETATM   13  C22 UNL     1      16.384  -6.162  43.835  1.00  0.00     0.019 C 
HETATM   14  C20 UNL     1      17.846  -4.944  45.250  1.00  0.00     0.142 C 
HETATM   15  C21 UNL     1      17.783  -5.608  43.895  1.00  0.00     0.045 C 
HETATM   16  C23 UNL     1      15.769  -5.747  42.521  1.00  0.00     0.043 C 
HETATM   17  C24 UNL     1      14.270  -5.960  42.481  1.00  0.00     0.148 C 
BRANCH  14  18
HETATM   18  O3  UNL     1      18.462  -3.696  45.088  1.00  0.00    -0.392 OA
ATOM     19  H3  UNL     1      18.488  -3.447  44.171  1.00  0.00     0.210 HD
ENDBRANCH  14  18
BRANCH  17  20
HETATM   20  O4  UNL     1      13.856  -5.591  41.191  1.00  0.00    -0.393 OA
ATOM     21  H4  UNL     1      12.939  -5.787  41.041  1.00  0.00     0.210 HD
ENDBRANCH  17  20
ENDBRANCH   8   9
ENDBRANCH   7   8
ENDBRANCH   5   7
BRANCH   4  22
HETATM   22  O1  UNL     1      11.968  -2.927  45.872  1.00  0.00    -0.360 OA
ATOM     23  H1  UNL     1      12.692  -2.629  45.333  1.00  0.00     0.217 HD
ENDBRANCH   4  22
BRANCH   6  24
HETATM   24  O5  UNL     1       9.023  -4.175  42.403  1.00  0.00    -0.359 OA
ATOM     25  H5  UNL     1       9.554  -3.850  41.685  1.00  0.00     0.217 HD
ENDBRANCH   6  24
BRANCH   1  26
HETATM   26  C3  UNL     1       6.726  -3.496  43.917  1.00  0.00    -0.000 C 
HETATM   27  C4  UNL     1       6.345  -4.986  44.167  1.00  0.00     0.024 C 
HETATM   28  C5  UNL     1       6.632  -3.368  42.415  1.00  0.00     0.024 C 
BRANCH  26  29
HETATM   29  C2  UNL     1       5.637  -2.637  44.424  1.00  0.00    -0.023 C 
HETATM   30  C1  UNL     1       4.377  -2.850  44.094  1.00  0.00     0.008 C 
ENDBRANCH  26  29
ENDBRANCH   1  26
BRANCH   2  31
HETATM   31  C8  UNL     1       7.310  -2.161  46.595  1.00  0.00     0.044 C 
BRANCH  31  32
HETATM   32  C9  UNL     1       7.983  -1.267  47.594  1.00  0.00    -0.010 A 
HETATM   33  C10 UNL     1       7.127  -0.206  48.259  1.00  0.00     0.005 A 
HETATM   34  C11 UNL     1       8.326   0.139  47.469  1.00  0.00     0.005 A 
ENDBRANCH  31  32
ENDBRANCH   2  31
TORSDOF 11
ENDMDL
MODEL 5
REMARK VINA RESULT: -8.773343642      1.708      2.293
REMARK  11 active torsions:
REMARK  status: ('A' for Active; 'I' for Inactive)
REMARK    1  A    between atoms: C2_2  and  C3_3 
REMARK    2  A    between atoms: C3_3  and  C6_6 
REMARK    3  A    between atoms: C7_7  and  C8_8 
REMARK    4  A    between atoms: C8_8  and  C9_9 
REMARK    5  A    between atoms: C13_13  and  O1_14 
REMARK    6  A    between atoms: C14_16  and  C15_17 
REMARK    7  A    between atoms: C15_17  and  O2_18 
REMARK    8  A    between atoms: O2_18  and  C16_19 
REMARK    9  A    between atoms: C20_23  and  O3_24 
REMARK   10  A    between atoms: C24_29  and  O4_30 
REMARK   11  A    between atoms: C25_32  and  O5_33 
ROOT
HETATM    1  C6  UNL     1       8.701  -2.473  45.802  1.00  0.00    -0.006 A 
HETATM    2  C7  UNL     1       7.581  -2.825  45.138  1.00  0.00    -0.045 A 
HETATM    3  C12 UNL     1       7.722  -3.400  43.857  1.00  0.00     0.045 A 
HETATM    4  C13 UNL     1       8.929  -3.619  43.262  1.00  0.00     0.077 A 
HETATM    5  C14 UNL     1      10.106  -3.263  43.942  1.00  0.00     0.032 A 
HETATM    6  C25 UNL     1       9.962  -2.704  45.185  1.00  0.00     0.084 A 
ENDROOT
BRANCH   5   7
HETATM    7  C15 UNL     1      11.354  -3.538  43.250  1.00  0.00     0.212 C 
BRANCH   7   8
HETATM    8  O2  UNL     1      11.788  -4.802  43.072  1.00  0.00    -0.378 OA
BRANCH   8   9
HETATM    9  C16 UNL     1      13.163  -4.880  43.150  1.00  0.00     0.154 C 
HETATM   10  C17 UNL     1      13.566  -5.470  44.510  1.00  0.00     0.069 C 
HETATM   11  C18 UNL     1      15.048  -5.430  44.595  1.00  0.00    -0.074 C 
HETATM   12  C19 UNL     1      15.874  -4.848  45.445  1.00  0.00     0.008 C 
HETATM   13  C22 UNL     1      15.811  -6.164  43.551  1.00  0.00     0.019 C 
HETATM   14  C20 UNL     1      17.299  -5.121  45.075  1.00  0.00     0.142 C 
HETATM   15  C21 UNL     1      17.248  -5.739  43.698  1.00  0.00     0.045 C 
HETATM   16  C23 UNL     1      15.305  -5.659  42.221  1.00  0.00     0.043 C 
HETATM   17  C24 UNL     1      13.798  -5.736  42.100  1.00  0.00     0.148 C 
BRANCH  14  18
HETATM   18  O3  UNL     1      18.030  -3.930  44.983  1.00  0.00    -0.392 OA
ATOM     19  H3  UNL     1      17.746  -3.412  44.239  1.00  0.00     0.210 HD
ENDBRANCH  14  18
BRANCH  17  20
HETATM   20  O4  UNL     1      13.486  -5.296  40.803  1.00  0.00    -0.393 OA
ATOM     21  H4  UNL     1      13.767  -5.915  40.140  1.00  0.00     0.210 HD
ENDBRANCH  17  20
ENDBRANCH   8   9
ENDBRANCH   7   8
ENDBRANCH   5   7
BRANCH   4  22
HETATM   22  O1  UNL     1       9.048  -4.179  42.007  1.00  0.00    -0.360 OA
ATOM     23  H1  UNL     1       9.484  -3.736  41.288  1.00  0.00     0.217 HD
ENDBRANCH   4  22
BRANCH   6  24
HETATM   24  O5  UNL     1      11.099  -2.363  45.848  1.00  0.00    -0.359 OA
ATOM     25  H5  UNL     1      11.942  -2.571  45.463  1.00  0.00     0.217 HD
ENDBRANCH   6  24
BRANCH   1  26
HETATM   26  C3  UNL     1       8.612  -1.774  47.071  1.00  0.00    -0.000 C 
HETATM   27  C4  UNL     1       9.509  -0.501  47.016  1.00  0.00     0.024 C 
HETATM   28  C5  UNL     1       9.213  -2.566  48.208  1.00  0.00     0.024 C 
BRANCH  26  29
HETATM   29  C2  UNL     1       7.273  -1.391  47.564  1.00  0.00    -0.023 C 
HETATM   30  C1  UNL     1       7.071  -0.252  48.201  1.00  0.00     0.008 C 
ENDBRANCH  26  29
ENDBRANCH   1  26
BRANCH   2  31
HETATM   31  C8  UNL     1       6.170  -2.800  45.560  1.00  0.00     0.044 C 
BRANCH  31  32
HETATM   32  C9  UNL     1       5.287  -2.136  44.545  1.00  0.00    -0.010 A 
HETATM   33  C10 UNL     1       4.223  -1.190  45.067  1.00  0.00     0.005 A 
HETATM   34  C11 UNL     1       3.883  -2.381  44.263  1.00  0.00     0.005 A 
ENDBRANCH  31  32
ENDBRANCH   2  31
TORSDOF 11
ENDMDL
