MODEL 1
REMARK VINA RESULT: -8.808462902      0.000      0.000
REMARK  7 active torsions:
REMARK  status: ('A' for Active; 'I' for Inactive)
REMARK    1  A    between atoms: C2_2  and  C3_3 
REMARK    2  A    between atoms: C3_3  and  C4_4 
REMARK       I    between atoms: C4_4  and  N1_6 
REMARK    3  A    between atoms: N1_6  and  C5_8 
REMARK    4  A    between atoms: C7_10  and  N2_11 
REMARK    5  A    between atoms: C13_17  and  N3_18 
REMARK       I    between atoms: N3_18  and  C14_20 
REMARK       I    between atoms: C14_20  and  N4_22 
REMARK    6  A    between atoms: N4_22  and  C15_24 
REMARK    7  A    between atoms: C22_31  and  O3_32 
ROOT
HETATM    1  C5  UNL     1      12.581  -3.821  44.698  1.00  0.00     0.070 A 
HETATM    2  C6  UNL     1      11.889  -3.196  45.706  1.00  0.00     0.064 A 
HETATM    3  C7  UNL     1      10.598  -2.731  45.589  1.00  0.00     0.059 A 
HETATM    4  C13 UNL     1       9.960  -2.914  44.347  1.00  0.00     0.065 A 
HETATM    5  C21 UNL     1      10.657  -3.542  43.336  1.00  0.00     0.071 A 
HETATM    6  C22 UNL     1      11.946  -4.007  43.452  1.00  0.00     0.097 A 
ENDROOT
BRANCH   4   7
HETATM    7  N3  UNL     1       8.663  -2.414  44.224  1.00  0.00    -0.307 N 
HETATM    8  C14 UNL     1       7.456  -3.115  44.331  1.00  0.00     0.321 C 
HETATM    9  O2  UNL     1       7.408  -4.329  44.565  1.00  0.00    -0.247 OA
HETATM   10  N4  UNL     1       6.196  -2.390  44.162  1.00  0.00    -0.338 N 
ATOM     11  H4  UNL     1       6.210  -1.388  43.968  1.00  0.00     0.164 HD
ATOM     12  H3  UNL     1       8.584  -1.416  44.031  1.00  0.00     0.170 HD
BRANCH  10  13
HETATM   13  C15 UNL     1       4.923  -3.089  44.269  1.00  0.00     0.086 C 
HETATM   14  C16 UNL     1       3.803  -2.096  44.450  1.00  0.00     0.025 C 
HETATM   15  C17 UNL     1       3.093  -1.711  43.204  1.00  0.00     0.002 C 
HETATM   16  C18 UNL     1       2.738  -2.879  42.317  1.00  0.00     0.000 C 
HETATM   17  C19 UNL     1       3.257  -4.187  42.861  1.00  0.00     0.002 C 
HETATM   18  C20 UNL     1       4.728  -4.032  43.130  1.00  0.00     0.025 C 
ENDBRANCH  10  13
ENDBRANCH   4   7
BRANCH   3  19
HETATM   19  N2  UNL     1       9.919  -2.121  46.675  1.00  0.00    -0.379 N 
HETATM   20  C8  UNL     1      10.163  -0.730  47.086  1.00  0.00     0.123 C 
HETATM   21  C9  UNL     1       8.847   0.006  46.815  1.00  0.00     0.020 C 
HETATM   22  C10 UNL     1       7.786  -0.582  47.689  1.00  0.00     0.003 C 
HETATM   23  C11 UNL     1       8.199  -1.855  48.357  1.00  0.00     0.020 C 
HETATM   24  C12 UNL     1       8.920  -2.822  47.480  1.00  0.00     0.123 C 
ENDBRANCH   3  19
BRANCH   6  25
HETATM   25  O3  UNL     1      12.604  -4.633  42.408  1.00  0.00    -0.354 OA
HETATM   26  C23 UNL     1      12.211  -4.475  41.058  1.00  0.00     0.210 C 
ENDBRANCH   6  25
BRANCH   1  27
HETATM   27  N1  UNL     1      13.896  -4.303  44.791  1.00  0.00    -0.324 N 
HETATM   28  C4  UNL     1      14.311  -5.556  45.232  1.00  0.00     0.225 C 
HETATM   29  O1  UNL     1      13.533  -6.446  45.618  1.00  0.00    -0.273 OA
ATOM     30  H1  UNL     1      14.632  -3.660  44.502  1.00  0.00     0.169 HD
BRANCH  28  31
HETATM   31  C3  UNL     1      15.771  -5.930  45.274  1.00  0.00     0.129 C 
BRANCH  31  32
HETATM   32  C2  UNL     1      16.158  -6.567  46.540  1.00  0.00    -0.028 C 
HETATM   33  C1  UNL     1      15.954  -7.862  46.749  1.00  0.00     0.007 C 
ENDBRANCH  31  32
ENDBRANCH  28  31
ENDBRANCH   1  27
TORSDOF 7
ENDMDL
MODEL 2
REMARK VINA RESULT: -8.673518562      2.000      4.374
REMARK  7 active torsions:
REMARK  status: ('A' for Active; 'I' for Inactive)
REMARK    1  A    between atoms: C2_2  and  C3_3 
REMARK    2  A    between atoms: C3_3  and  C4_4 
REMARK       I    between atoms: C4_4  and  N1_6 
REMARK    3  A    between atoms: N1_6  and  C5_8 
REMARK    4  A    between atoms: C7_10  and  N2_11 
REMARK    5  A    between atoms: C13_17  and  N3_18 
REMARK       I    between atoms: N3_18  and  C14_20 
REMARK       I    between atoms: C14_20  and  N4_22 
REMARK    6  A    between atoms: N4_22  and  C15_24 
REMARK    7  A    between atoms: C22_31  and  O3_32 
ROOT
HETATM    1  C5  UNL     1      12.683  -4.216  43.952  1.00  0.00     0.070 A 
HETATM    2  C6  UNL     1      12.091  -4.849  42.886  1.00  0.00     0.064 A 
HETATM    3  C7  UNL     1      10.825  -4.569  42.425  1.00  0.00     0.059 A 
HETATM    4  C13 UNL     1      10.101  -3.569  43.101  1.00  0.00     0.065 A 
HETATM    5  C21 UNL     1      10.698  -2.935  44.171  1.00  0.00     0.071 A 
HETATM    6  C22 UNL     1      11.963  -3.213  44.633  1.00  0.00     0.097 A 
ENDROOT
BRANCH   4   7
HETATM    7  N3  UNL     1       8.806  -3.310  42.648  1.00  0.00    -0.307 N 
HETATM    8  C14 UNL     1       7.602  -3.830  43.137  1.00  0.00     0.321 C 
HETATM    9  O2  UNL     1       7.555  -4.624  44.084  1.00  0.00    -0.247 OA
HETATM   10  N4  UNL     1       6.345  -3.425  42.507  1.00  0.00    -0.338 N 
ATOM     11  H4  UNL     1       6.359  -2.771  41.724  1.00  0.00     0.164 HD
ATOM     12  H3  UNL     1       8.727  -2.661  41.864  1.00  0.00     0.170 HD
BRANCH  10  13
HETATM   13  C15 UNL     1       5.075  -3.947  42.992  1.00  0.00     0.086 C 
HETATM   14  C16 UNL     1       4.625  -3.167  44.200  1.00  0.00     0.025 C 
HETATM   15  C17 UNL     1       3.669  -2.066  43.921  1.00  0.00     0.002 C 
HETATM   16  C18 UNL     1       2.547  -2.451  42.988  1.00  0.00     0.000 C 
HETATM   17  C19 UNL     1       2.689  -3.864  42.479  1.00  0.00     0.002 C 
HETATM   18  C20 UNL     1       4.066  -4.016  41.895  1.00  0.00     0.025 C 
ENDBRANCH  10  13
ENDBRANCH   4   7
BRANCH   3  19
HETATM   19  N2  UNL     1      10.275  -5.231  41.297  1.00  0.00    -0.379 N 
HETATM   20  C8  UNL     1      10.573  -4.831  39.914  1.00  0.00     0.123 C 
HETATM   21  C9  UNL     1      11.335  -6.013  39.307  1.00  0.00     0.020 C 
HETATM   22  C10 UNL     1      10.427  -7.200  39.285  1.00  0.00     0.003 C 
HETATM   23  C11 UNL     1       9.173  -7.009  40.079  1.00  0.00     0.020 C 
HETATM   24  C12 UNL     1       9.363  -6.369  41.412  1.00  0.00     0.123 C 
ENDBRANCH   3  19
BRANCH   6  25
HETATM   25  O3  UNL     1      12.520  -2.548  45.712  1.00  0.00    -0.354 OA
HETATM   26  C23 UNL     1      11.871  -1.469  46.357  1.00  0.00     0.210 C 
ENDBRANCH   6  25
BRANCH   1  27
HETATM   27  N1  UNL     1      13.971  -4.483  44.443  1.00  0.00    -0.324 N 
HETATM   28  C4  UNL     1      14.364  -5.527  45.274  1.00  0.00     0.225 C 
HETATM   29  O1  UNL     1      13.586  -6.394  45.709  1.00  0.00    -0.273 OA
ATOM     30  H1  UNL     1      14.705  -3.835  44.156  1.00  0.00     0.169 HD
BRANCH  28  31
HETATM   31  C3  UNL     1      15.796  -5.683  45.719  1.00  0.00     0.129 C 
BRANCH  31  32
HETATM   32  C2  UNL     1      15.936  -6.566  46.884  1.00  0.00    -0.028 C 
HETATM   33  C1  UNL     1      15.983  -7.886  46.746  1.00  0.00     0.007 C 
ENDBRANCH  31  32
ENDBRANCH  28  31
ENDBRANCH   1  27
TORSDOF 7
ENDMDL
MODEL 3
REMARK VINA RESULT: -8.477249007      3.562      4.697
REMARK  7 active torsions:
REMARK  status: ('A' for Active; 'I' for Inactive)
REMARK    1  A    between atoms: C2_2  and  C3_3 
REMARK    2  A    between atoms: C3_3  and  C4_4 
REMARK       I    between atoms: C4_4  and  N1_6 
REMARK    3  A    between atoms: N1_6  and  C5_8 
REMARK    4  A    between atoms: C7_10  and  N2_11 
REMARK    5  A    between atoms: C13_17  and  N3_18 
REMARK       I    between atoms: N3_18  and  C14_20 
REMARK       I    between atoms: C14_20  and  N4_22 
REMARK    6  A    between atoms: N4_22  and  C15_24 
REMARK    7  A    between atoms: C22_31  and  O3_32 
ROOT
HETATM    1  C5  UNL     1      12.955  -4.956  43.090  1.00  0.00     0.070 A 
HETATM    2  C6  UNL     1      11.669  -4.631  43.447  1.00  0.00     0.064 A 
HETATM    3  C7  UNL     1      10.600  -4.632  42.579  1.00  0.00     0.059 A 
HETATM    4  C13 UNL     1      10.858  -4.989  41.243  1.00  0.00     0.065 A 
HETATM    5  C21 UNL     1      12.150  -5.315  40.887  1.00  0.00     0.071 A 
HETATM    6  C22 UNL     1      13.219  -5.315  41.752  1.00  0.00     0.097 A 
ENDROOT
BRANCH   4   7
HETATM    7  N3  UNL     1       9.777  -4.959  40.360  1.00  0.00    -0.307 N 
HETATM    8  C14 UNL     1       8.941  -6.017  39.985  1.00  0.00     0.321 C 
HETATM    9  O2  UNL     1       9.080  -7.165  40.426  1.00  0.00    -0.247 OA
HETATM   10  N4  UNL     1       7.858  -5.765  39.034  1.00  0.00    -0.338 N 
ATOM     11  H4  UNL     1       7.724  -4.827  38.656  1.00  0.00     0.164 HD
ATOM     12  H3  UNL     1       9.570  -4.054  39.937  1.00  0.00     0.170 HD
BRANCH  10  13
HETATM   13  C15 UNL     1       6.970  -6.844  38.624  1.00  0.00     0.086 C 
HETATM   14  C16 UNL     1       5.606  -6.648  39.233  1.00  0.00     0.025 C 
HETATM   15  C17 UNL     1       4.616  -5.968  38.359  1.00  0.00     0.002 C 
HETATM   16  C18 UNL     1       4.586  -6.493  36.945  1.00  0.00     0.000 C 
HETATM   17  C19 UNL     1       5.633  -7.552  36.708  1.00  0.00     0.002 C 
HETATM   18  C20 UNL     1       6.963  -7.003  37.140  1.00  0.00     0.025 C 
ENDBRANCH  10  13
ENDBRANCH   4   7
BRANCH   3  19
HETATM   19  N2  UNL     1       9.285  -4.319  43.010  1.00  0.00    -0.379 N 
HETATM   20  C8  UNL     1       8.713  -2.968  42.905  1.00  0.00     0.123 C 
HETATM   21  C9  UNL     1       7.559  -3.096  41.906  1.00  0.00     0.020 C 
HETATM   22  C10 UNL     1       6.532  -4.016  42.484  1.00  0.00     0.003 C 
HETATM   23  C11 UNL     1       7.005  -4.755  43.696  1.00  0.00     0.020 C 
HETATM   24  C12 UNL     1       8.385  -5.312  43.596  1.00  0.00     0.123 C 
ENDBRANCH   3  19
BRANCH   6  25
HETATM   25  O3  UNL     1      14.499  -5.651  41.347  1.00  0.00    -0.354 OA
HETATM   26  C23 UNL     1      15.137  -5.030  40.248  1.00  0.00     0.210 C 
ENDBRANCH   6  25
BRANCH   1  27
HETATM   27  N1  UNL     1      14.062  -4.963  43.954  1.00  0.00    -0.324 N 
HETATM   28  C4  UNL     1      14.229  -5.713  45.113  1.00  0.00     0.225 C 
HETATM   29  O1  UNL     1      13.379  -6.508  45.551  1.00  0.00    -0.273 OA
ATOM     30  H1  UNL     1      14.833  -4.345  43.702  1.00  0.00     0.169 HD
BRANCH  28  31
HETATM   31  C3  UNL     1      15.485  -5.612  45.942  1.00  0.00     0.129 C 
BRANCH  31  32
HETATM   32  C2  UNL     1      16.231  -6.876  45.998  1.00  0.00    -0.028 C 
HETATM   33  C1  UNL     1      15.892  -7.838  46.847  1.00  0.00     0.007 C 
ENDBRANCH  31  32
ENDBRANCH  28  31
ENDBRANCH   1  27
TORSDOF 7
ENDMDL
MODEL 4
REMARK VINA RESULT: -8.341977444      1.863      9.055
REMARK  7 active torsions:
REMARK  status: ('A' for Active; 'I' for Inactive)
REMARK    1  A    between atoms: C2_2  and  C3_3 
REMARK    2  A    between atoms: C3_3  and  C4_4 
REMARK       I    between atoms: C4_4  and  N1_6 
REMARK    3  A    between atoms: N1_6  and  C5_8 
REMARK    4  A    between atoms: C7_10  and  N2_11 
REMARK    5  A    between atoms: C13_17  and  N3_18 
REMARK       I    between atoms: N3_18  and  C14_20 
REMARK       I    between atoms: C14_20  and  N4_22 
REMARK    6  A    between atoms: N4_22  and  C15_24 
REMARK    7  A    between atoms: C22_31  and  O3_32 
ROOT
HETATM    1  C5  UNL     1       8.238  -2.320  45.082  1.00  0.00     0.070 A 
HETATM    2  C6  UNL     1       8.626  -3.038  43.977  1.00  0.00     0.064 A 
HETATM    3  C7  UNL     1       9.929  -3.387  43.698  1.00  0.00     0.059 A 
HETATM    4  C13 UNL     1      10.914  -2.972  44.613  1.00  0.00     0.065 A 
HETATM    5  C21 UNL     1      10.522  -2.251  45.721  1.00  0.00     0.071 A 
HETATM    6  C22 UNL     1       9.221  -1.902  46.002  1.00  0.00     0.097 A 
ENDROOT
BRANCH   4   7
HETATM    7  N3  UNL     1      12.237  -3.302  44.310  1.00  0.00    -0.307 N 
HETATM    8  C14 UNL     1      12.880  -4.532  44.490  1.00  0.00     0.321 C 
HETATM    9  O2  UNL     1      12.308  -5.521  44.964  1.00  0.00    -0.247 OA
HETATM   10  N4  UNL     1      14.286  -4.662  44.104  1.00  0.00    -0.338 N 
ATOM     11  H4  UNL     1      14.779  -3.860  43.711  1.00  0.00     0.164 HD
ATOM     12  H3  UNL     1      12.804  -2.556  43.909  1.00  0.00     0.170 HD
BRANCH  10  13
HETATM   13  C15 UNL     1      14.984  -5.928  44.277  1.00  0.00     0.086 C 
HETATM   14  C16 UNL     1      15.804  -6.236  43.050  1.00  0.00     0.025 C 
HETATM   15  C17 UNL     1      17.232  -5.835  43.127  1.00  0.00     0.002 C 
HETATM   16  C18 UNL     1      17.904  -6.214  44.424  1.00  0.00     0.000 C 
HETATM   17  C19 UNL     1      16.946  -6.855  45.397  1.00  0.00     0.002 C 
HETATM   18  C20 UNL     1      15.758  -5.948  45.552  1.00  0.00     0.025 C 
ENDBRANCH  10  13
ENDBRANCH   4   7
BRANCH   3  19
HETATM   19  N2  UNL     1      10.270  -4.159  42.558  1.00  0.00    -0.379 N 
HETATM   20  C8  UNL     1       9.887  -5.571  42.408  1.00  0.00     0.123 C 
HETATM   21  C9  UNL     1       8.919  -5.603  41.222  1.00  0.00     0.020 C 
HETATM   22  C10 UNL     1       9.658  -5.166  39.997  1.00  0.00     0.003 C 
HETATM   23  C11 UNL     1      11.000  -4.572  40.288  1.00  0.00     0.020 C 
HETATM   24  C12 UNL     1      11.033  -3.619  41.434  1.00  0.00     0.123 C 
ENDBRANCH   3  19
BRANCH   6  25
HETATM   25  O3  UNL     1       8.876  -1.178  47.129  1.00  0.00    -0.354 OA
HETATM   26  C23 UNL     1       9.179   0.197  47.273  1.00  0.00     0.210 C 
ENDBRANCH   6  25
BRANCH   1  27
HETATM   27  N1  UNL     1       6.918  -1.951  45.389  1.00  0.00    -0.324 N 
HETATM   28  C4  UNL     1       5.771  -2.729  45.276  1.00  0.00     0.225 C 
HETATM   29  O1  UNL     1       5.770  -3.904  44.869  1.00  0.00    -0.273 OA
ATOM     30  H1  UNL     1       6.786  -1.001  45.735  1.00  0.00     0.169 HD
BRANCH  28  31
HETATM   31  C3  UNL     1       4.414  -2.189  45.649  1.00  0.00     0.129 C 
BRANCH  31  32
HETATM   32  C2  UNL     1       3.917  -1.192  44.692  1.00  0.00    -0.028 C 
HETATM   33  C1  UNL     1       3.570  -1.536  43.458  1.00  0.00     0.007 C 
ENDBRANCH  31  32
ENDBRANCH  28  31
ENDBRANCH   1  27
TORSDOF 7
ENDMDL
MODEL 5
REMARK VINA RESULT: -8.292039527      2.284      9.227
REMARK  7 active torsions:
REMARK  status: ('A' for Active; 'I' for Inactive)
REMARK    1  A    between atoms: C2_2  and  C3_3 
REMARK    2  A    between atoms: C3_3  and  C4_4 
REMARK       I    between atoms: C4_4  and  N1_6 
REMARK    3  A    between atoms: N1_6  and  C5_8 
REMARK    4  A    between atoms: C7_10  and  N2_11 
REMARK    5  A    between atoms: C13_17  and  N3_18 
REMARK       I    between atoms: N3_18  and  C14_20 
REMARK       I    between atoms: C14_20  and  N4_22 
REMARK    6  A    between atoms: N4_22  and  C15_24 
REMARK    7  A    between atoms: C22_31  and  O3_32 
ROOT
HETATM    1  C5  UNL     1       9.452  -2.433  45.312  1.00  0.00     0.070 A 
HETATM    2  C6  UNL     1       9.441  -3.156  44.144  1.00  0.00     0.064 A 
HETATM    3  C7  UNL     1      10.561  -3.710  43.565  1.00  0.00     0.059 A 
HETATM    4  C13 UNL     1      11.789  -3.511  44.223  1.00  0.00     0.065 A 
HETATM    5  C21 UNL     1      11.798  -2.784  45.395  1.00  0.00     0.071 A 
HETATM    6  C22 UNL     1      10.680  -2.231  45.976  1.00  0.00     0.097 A 
ENDROOT
BRANCH   4   7
HETATM    7  N3  UNL     1      12.926  -4.048  43.616  1.00  0.00    -0.307 N 
HETATM    8  C14 UNL     1      13.991  -4.722  44.225  1.00  0.00     0.321 C 
HETATM    9  O2  UNL     1      14.039  -4.929  45.443  1.00  0.00    -0.247 OA
HETATM   10  N4  UNL     1      15.094  -5.205  43.393  1.00  0.00    -0.338 N 
ATOM     11  H4  UNL     1      15.077  -5.046  42.386  1.00  0.00     0.164 HD
ATOM     12  H3  UNL     1      12.988  -3.936  42.604  1.00  0.00     0.170 HD
BRANCH  10  13
HETATM   13  C15 UNL     1      16.217  -5.911  43.996  1.00  0.00     0.086 C 
HETATM   14  C16 UNL     1      16.911  -6.755  42.958  1.00  0.00     0.025 C 
HETATM   15  C17 UNL     1      18.096  -6.126  42.322  1.00  0.00     0.002 C 
HETATM   16  C18 UNL     1      19.035  -5.462  43.299  1.00  0.00     0.000 C 
HETATM   17  C19 UNL     1      18.517  -5.518  44.714  1.00  0.00     0.002 C 
HETATM   18  C20 UNL     1      17.117  -4.971  44.725  1.00  0.00     0.025 C 
ENDBRANCH  10  13
ENDBRANCH   4   7
BRANCH   3  19
HETATM   19  N2  UNL     1      10.488  -4.476  42.374  1.00  0.00    -0.379 N 
HETATM   20  C8  UNL     1       9.784  -5.766  42.299  1.00  0.00     0.123 C 
HETATM   21  C9  UNL     1       8.612  -5.530  41.340  1.00  0.00     0.020 C 
HETATM   22  C10 UNL     1       9.164  -5.197  39.991  1.00  0.00     0.003 C 
HETATM   23  C11 UNL     1      10.634  -4.917  39.999  1.00  0.00     0.020 C 
HETATM   24  C12 UNL     1      11.105  -4.052  41.118  1.00  0.00     0.123 C 
ENDBRANCH   3  19
BRANCH   6  25
HETATM   25  O3  UNL     1      10.739  -1.510  47.156  1.00  0.00    -0.354 OA
HETATM   26  C23 UNL     1      11.704  -0.501  47.383  1.00  0.00     0.210 C 
ENDBRANCH   6  25
BRANCH   1  27
HETATM   27  N1  UNL     1       8.326  -1.858  45.923  1.00  0.00    -0.324 N 
HETATM   28  C4  UNL     1       7.007  -2.295  45.854  1.00  0.00     0.225 C 
HETATM   29  O1  UNL     1       6.643  -3.295  45.211  1.00  0.00    -0.273 OA
ATOM     30  H1  UNL     1       8.496  -1.023  46.483  1.00  0.00     0.169 HD
BRANCH  28  31
HETATM   31  C3  UNL     1       5.899  -1.567  46.572  1.00  0.00     0.129 C 
BRANCH  31  32
HETATM   32  C2  UNL     1       4.578  -1.817  45.978  1.00  0.00    -0.028 C 
HETATM   33  C1  UNL     1       4.148  -1.115  44.938  1.00  0.00     0.007 C 
ENDBRANCH  31  32
ENDBRANCH  28  31
ENDBRANCH   1  27
TORSDOF 7
ENDMDL
