MODEL 1
REMARK VINA RESULT: -8.022307695      0.000      0.000
REMARK  10 active torsions:
REMARK  status: ('A' for Active; 'I' for Inactive)
REMARK    1  A    between atoms: C2_2  and  C3_3 
REMARK    2  A    between atoms: C3_3  and  C4_4 
REMARK    3  A    between atoms: C4_4  and  O1_5 
REMARK    4  A    between atoms: C5_8  and  C6_9 
REMARK    5  A    between atoms: C7_10  and  C8_11 
REMARK    6  A    between atoms: C8_11  and  O3_12 
REMARK    7  A    between atoms: C8_11  and  C9_14 
REMARK    8  A    between atoms: C9_14  and  C10_15 
REMARK    9  A    between atoms: C10_15  and  C11_16 
REMARK   10  A    between atoms: C18_23  and  O4_24 
ROOT
HETATM    1  C8  UNL     1       8.416  -4.509  41.423  1.00  0.00     0.140 C 
ENDROOT
BRANCH   1   2
HETATM    2  C7  UNL     1       7.139  -4.833  42.095  1.00  0.00     0.003 C 
HETATM    3  C6  UNL     1       6.497  -3.884  42.759  1.00  0.00     0.004 C 
BRANCH   3   4
HETATM    4  C5  UNL     1       5.186  -4.179  43.458  1.00  0.00     0.151 C 
HETATM    5  O2  UNL     1       4.223  -4.521  42.551  1.00  0.00    -0.345 OA
HETATM    6  C4  UNL     1       3.611  -3.468  41.898  1.00  0.00     0.165 C 
HETATM    7  C23 UNL     1       2.900  -2.611  42.915  1.00  0.00     0.044 C 
HETATM    8  C22 UNL     1       3.831  -2.109  43.988  1.00  0.00     0.016 C 
HETATM    9  C24 UNL     1       1.800  -3.380  43.617  1.00  0.00     0.015 C 
HETATM   10  C20 UNL     1       4.844  -3.103  44.427  1.00  0.00     0.015 C 
HETATM   11  C21 UNL     1       6.091  -2.339  44.895  1.00  0.00     0.012 C 
BRANCH   6  12
HETATM   12  C3  UNL     1       2.596  -4.061  40.947  1.00  0.00     0.068 C 
BRANCH  12  13
HETATM   13  C2  UNL     1       3.071  -4.136  39.527  1.00  0.00     0.001 C 
HETATM   14  C1  UNL     1       3.602  -5.483  39.124  1.00  0.00     0.005 C 
ENDBRANCH  12  13
ENDBRANCH   6  12
BRANCH   6  15
HETATM   15  O1  UNL     1       4.473  -2.694  41.163  1.00  0.00    -0.365 OA
ATOM     16  H1  UNL     1       4.739  -1.961  41.705  1.00  0.00     0.213 HD
ENDBRANCH   6  15
ENDBRANCH   3   4
ENDBRANCH   1   2
BRANCH   1  17
HETATM   17  O3  UNL     1       8.162  -3.563  40.436  1.00  0.00    -0.392 OA
ATOM     18  H3  UNL     1       8.660  -3.800  39.662  1.00  0.00     0.210 HD
ENDBRANCH   1  17
BRANCH   1  19
HETATM   19  C9  UNL     1       9.014  -5.783  40.816  1.00  0.00     0.037 C 
BRANCH  19  20
HETATM   20  C10 UNL     1       7.906  -6.673  40.338  1.00  0.00     0.027 C 
BRANCH  20  21
HETATM   21  C11 UNL     1       8.290  -7.573  39.204  1.00  0.00     0.064 C 
HETATM   22  C12 UNL     1       7.111  -8.273  38.578  1.00  0.00     0.024 C 
HETATM   23  C13 UNL     1       6.301  -7.450  37.644  1.00  0.00     0.005 C 
HETATM   24  C14 UNL     1       6.881  -6.130  37.286  1.00  0.00     0.027 C 
HETATM   25  C15 UNL     1       8.344  -6.073  37.315  1.00  0.00    -0.023 C 
HETATM   26  C16 UNL     1       9.029  -6.754  38.220  1.00  0.00    -0.062 C 
HETATM   27  C17 UNL     1      10.506  -6.653  38.204  1.00  0.00     0.088 C 
HETATM   28  C18 UNL     1      11.222  -7.875  38.675  1.00  0.00     0.224 C 
HETATM   29  N1  UNL     1      10.567  -8.513  39.795  1.00  0.00    -0.334 N 
HETATM   30  C19 UNL     1       9.159  -8.649  39.783  1.00  0.00     0.232 C 
ATOM     31  H1  UNL     1      11.113  -8.861  40.583  1.00  0.00     0.165 HD
HETATM   32  O5  UNL     1       8.608  -9.693  40.267  1.00  0.00    -0.272 OA
BRANCH  28  33
HETATM   33  O4  UNL     1      12.505  -7.512  39.064  1.00  0.00    -0.377 OA
ATOM     34  H4  UNL     1      13.082  -8.255  38.932  1.00  0.00     0.212 HD
ENDBRANCH  28  33
ENDBRANCH  20  21
ENDBRANCH  19  20
ENDBRANCH   1  19
TORSDOF 10
ENDMDL
MODEL 2
REMARK VINA RESULT: -7.932101395      2.965      4.655
REMARK  10 active torsions:
REMARK  status: ('A' for Active; 'I' for Inactive)
REMARK    1  A    between atoms: C2_2  and  C3_3 
REMARK    2  A    between atoms: C3_3  and  C4_4 
REMARK    3  A    between atoms: C4_4  and  O1_5 
REMARK    4  A    between atoms: C5_8  and  C6_9 
REMARK    5  A    between atoms: C7_10  and  C8_11 
REMARK    6  A    between atoms: C8_11  and  O3_12 
REMARK    7  A    between atoms: C8_11  and  C9_14 
REMARK    8  A    between atoms: C9_14  and  C10_15 
REMARK    9  A    between atoms: C10_15  and  C11_16 
REMARK   10  A    between atoms: C18_23  and  O4_24 
ROOT
HETATM    1  C8  UNL     1       8.462  -4.700  41.659  1.00  0.00     0.140 C 
ENDROOT
BRANCH   1   2
HETATM    2  C7  UNL     1       7.169  -4.978  42.321  1.00  0.00     0.003 C 
HETATM    3  C6  UNL     1       6.501  -3.982  42.883  1.00  0.00     0.004 C 
BRANCH   3   4
HETATM    4  C5  UNL     1       5.174  -4.229  43.569  1.00  0.00     0.151 C 
HETATM    5  O2  UNL     1       4.219  -4.582  42.658  1.00  0.00    -0.345 OA
HETATM    6  C4  UNL     1       3.639  -3.540  41.959  1.00  0.00     0.165 C 
HETATM    7  C23 UNL     1       2.928  -2.637  42.935  1.00  0.00     0.044 C 
HETATM    8  C22 UNL     1       3.851  -2.118  44.007  1.00  0.00     0.016 C 
HETATM    9  C24 UNL     1       1.802  -3.361  43.643  1.00  0.00     0.015 C 
HETATM   10  C20 UNL     1       4.837  -3.115  44.497  1.00  0.00     0.015 C 
HETATM   11  C21 UNL     1       6.091  -2.360  44.960  1.00  0.00     0.012 C 
BRANCH   6  12
HETATM   12  C3  UNL     1       2.629  -4.145  41.011  1.00  0.00     0.068 C 
BRANCH  12  13
HETATM   13  C2  UNL     1       3.073  -4.152  39.579  1.00  0.00     0.001 C 
HETATM   14  C1  UNL     1       3.573  -5.484  39.095  1.00  0.00     0.005 C 
ENDBRANCH  12  13
ENDBRANCH   6  12
BRANCH   6  15
HETATM   15  O1  UNL     1       4.528  -2.808  41.214  1.00  0.00    -0.365 OA
ATOM     16  H1  UNL     1       4.896  -2.137  41.778  1.00  0.00     0.213 HD
ENDBRANCH   6  15
ENDBRANCH   3   4
ENDBRANCH   1   2
BRANCH   1  17
HETATM   17  O3  UNL     1       8.256  -4.692  40.284  1.00  0.00    -0.392 OA
ATOM     18  H3  UNL     1       8.115  -5.587  39.998  1.00  0.00     0.210 HD
ENDBRANCH   1  17
BRANCH   1  19
HETATM   19  C9  UNL     1       9.480  -5.778  42.051  1.00  0.00     0.037 C 
BRANCH  19  20
HETATM   20  C10 UNL     1      10.015  -5.482  43.420  1.00  0.00     0.027 C 
BRANCH  20  21
HETATM   21  C11 UNL     1      11.033  -4.384  43.456  1.00  0.00     0.064 C 
HETATM   22  C12 UNL     1      10.488  -3.056  42.997  1.00  0.00     0.024 C 
HETATM   23  C13 UNL     1       9.668  -2.322  43.995  1.00  0.00     0.005 C 
HETATM   24  C14 UNL     1       9.676  -2.885  45.369  1.00  0.00     0.027 C 
HETATM   25  C15 UNL     1      10.902  -3.598  45.734  1.00  0.00    -0.023 C 
HETATM   26  C16 UNL     1      11.559  -4.315  44.836  1.00  0.00    -0.062 C 
HETATM   27  C17 UNL     1      12.790  -5.019  45.264  1.00  0.00     0.088 C 
HETATM   28  C18 UNL     1      13.824  -5.176  44.200  1.00  0.00     0.224 C 
HETATM   29  N1  UNL     1      13.255  -5.468  42.903  1.00  0.00    -0.334 N 
HETATM   30  C19 UNL     1      12.107  -4.758  42.479  1.00  0.00     0.232 C 
ATOM     31  H1  UNL     1      13.676  -6.176  42.301  1.00  0.00     0.165 HD
HETATM   32  O5  UNL     1      11.969  -4.427  41.254  1.00  0.00    -0.272 OA
BRANCH  28  33
HETATM   33  O4  UNL     1      14.667  -6.221  44.555  1.00  0.00    -0.377 OA
ATOM     34  H4  UNL     1      15.154  -5.966  45.330  1.00  0.00     0.212 HD
ENDBRANCH  28  33
ENDBRANCH  20  21
ENDBRANCH  19  20
ENDBRANCH   1  19
TORSDOF 10
ENDMDL
MODEL 3
REMARK VINA RESULT: -7.894262454      3.448      5.533
REMARK  10 active torsions:
REMARK  status: ('A' for Active; 'I' for Inactive)
REMARK    1  A    between atoms: C2_2  and  C3_3 
REMARK    2  A    between atoms: C3_3  and  C4_4 
REMARK    3  A    between atoms: C4_4  and  O1_5 
REMARK    4  A    between atoms: C5_8  and  C6_9 
REMARK    5  A    between atoms: C7_10  and  C8_11 
REMARK    6  A    between atoms: C8_11  and  O3_12 
REMARK    7  A    between atoms: C8_11  and  C9_14 
REMARK    8  A    between atoms: C9_14  and  C10_15 
REMARK    9  A    between atoms: C10_15  and  C11_16 
REMARK   10  A    between atoms: C18_23  and  O4_24 
ROOT
HETATM    1  C8  UNL     1      11.299  -3.425  43.484  1.00  0.00     0.140 C 
ENDROOT
BRANCH   1   2
HETATM    2  C7  UNL     1      10.581  -3.380  44.775  1.00  0.00     0.003 C 
HETATM    3  C6  UNL     1      10.744  -2.335  45.572  1.00  0.00     0.004 C 
BRANCH   3   4
HETATM    4  C5  UNL     1      10.023  -2.255  46.902  1.00  0.00     0.151 C 
HETATM    5  O2  UNL     1       8.722  -2.651  46.770  1.00  0.00    -0.345 OA
HETATM    6  C4  UNL     1       7.852  -1.702  46.266  1.00  0.00     0.165 C 
HETATM    7  C23 UNL     1       7.806  -0.532  47.217  1.00  0.00     0.044 C 
HETATM    8  C22 UNL     1       9.171   0.062  47.455  1.00  0.00     0.016 C 
HETATM    9  C24 UNL     1       7.265  -0.937  48.572  1.00  0.00     0.015 C 
HETATM   10  C20 UNL     1      10.261  -0.941  47.560  1.00  0.00     0.015 C 
HETATM   11  C21 UNL     1      11.561  -0.286  47.072  1.00  0.00     0.012 C 
BRANCH   6  12
HETATM   12  C3  UNL     1       6.484  -2.342  46.196  1.00  0.00     0.068 C 
BRANCH  12  13
HETATM   13  C2  UNL     1       5.440  -1.468  45.569  1.00  0.00     0.001 C 
HETATM   14  C1  UNL     1       4.097  -1.533  46.239  1.00  0.00     0.005 C 
ENDBRANCH  12  13
ENDBRANCH   6  12
BRANCH   6  15
HETATM   15  O1  UNL     1       8.176  -1.264  45.008  1.00  0.00    -0.365 OA
ATOM     16  H1  UNL     1       8.661  -1.956  44.575  1.00  0.00     0.213 HD
ENDBRANCH   6  15
ENDBRANCH   3   4
ENDBRANCH   1   2
BRANCH   1  17
HETATM   17  O3  UNL     1      12.042  -2.256  43.357  1.00  0.00    -0.392 OA
ATOM     18  H3  UNL     1      12.821  -2.451  42.850  1.00  0.00     0.210 HD
ENDBRANCH   1  17
BRANCH   1  19
HETATM   19  C9  UNL     1      10.288  -3.555  42.339  1.00  0.00     0.037 C 
BRANCH  19  20
HETATM   20  C10 UNL     1       8.902  -3.625  42.905  1.00  0.00     0.027 C 
BRANCH  20  21
HETATM   21  C11 UNL     1       8.236  -4.956  42.731  1.00  0.00     0.064 C 
HETATM   22  C12 UNL     1       7.354  -5.333  43.893  1.00  0.00     0.024 C 
HETATM   23  C13 UNL     1       6.022  -4.676  43.924  1.00  0.00     0.005 C 
HETATM   24  C14 UNL     1       5.656  -3.912  42.705  1.00  0.00     0.027 C 
HETATM   25  C15 UNL     1       6.255  -4.408  41.465  1.00  0.00    -0.023 C 
HETATM   26  C16 UNL     1       7.481  -4.908  41.460  1.00  0.00    -0.062 C 
HETATM   27  C17 UNL     1       8.038  -5.390  40.175  1.00  0.00     0.088 C 
HETATM   28  C18 UNL     1       9.003  -6.522  40.296  1.00  0.00     0.224 C 
HETATM   29  N1  UNL     1       9.874  -6.397  41.444  1.00  0.00    -0.334 N 
HETATM   30  C19 UNL     1       9.328  -5.982  42.681  1.00  0.00     0.232 C 
ATOM     31  H1  UNL     1      10.869  -6.606  41.362  1.00  0.00     0.165 HD
HETATM   32  O5  UNL     1       9.760  -6.476  43.775  1.00  0.00    -0.272 OA
BRANCH  28  33
HETATM   33  O4  UNL     1       9.787  -6.557  39.151  1.00  0.00    -0.377 OA
ATOM     34  H4  UNL     1       9.750  -5.705  38.733  1.00  0.00     0.212 HD
ENDBRANCH  28  33
ENDBRANCH  20  21
ENDBRANCH  19  20
ENDBRANCH   1  19
TORSDOF 10
ENDMDL
MODEL 4
REMARK VINA RESULT: -7.872704649      3.003      3.849
REMARK  10 active torsions:
REMARK  status: ('A' for Active; 'I' for Inactive)
REMARK    1  A    between atoms: C2_2  and  C3_3 
REMARK    2  A    between atoms: C3_3  and  C4_4 
REMARK    3  A    between atoms: C4_4  and  O1_5 
REMARK    4  A    between atoms: C5_8  and  C6_9 
REMARK    5  A    between atoms: C7_10  and  C8_11 
REMARK    6  A    between atoms: C8_11  and  O3_12 
REMARK    7  A    between atoms: C8_11  and  C9_14 
REMARK    8  A    between atoms: C9_14  and  C10_15 
REMARK    9  A    between atoms: C10_15  and  C11_16 
REMARK   10  A    between atoms: C18_23  and  O4_24 
ROOT
HETATM    1  C8  UNL     1       8.569  -2.379  44.914  1.00  0.00     0.140 C 
ENDROOT
BRANCH   1   2
HETATM    2  C7  UNL     1       7.254  -3.042  45.039  1.00  0.00     0.003 C 
HETATM    3  C6  UNL     1       6.295  -2.748  44.174  1.00  0.00     0.004 C 
BRANCH   3   4
HETATM    4  C5  UNL     1       4.935  -3.408  44.270  1.00  0.00     0.151 C 
HETATM    5  O2  UNL     1       4.752  -4.285  43.239  1.00  0.00    -0.345 OA
HETATM    6  C4  UNL     1       4.371  -3.727  42.034  1.00  0.00     0.165 C 
HETATM    7  C23 UNL     1       3.033  -3.053  42.212  1.00  0.00     0.044 C 
HETATM    8  C22 UNL     1       3.060  -2.012  43.301  1.00  0.00     0.016 C 
HETATM    9  C24 UNL     1       1.955  -4.048  42.586  1.00  0.00     0.015 C 
HETATM   10  C20 UNL     1       3.865  -2.396  44.489  1.00  0.00     0.015 C 
HETATM   11  C21 UNL     1       4.415  -1.114  45.128  1.00  0.00     0.012 C 
BRANCH   6  12
HETATM   12  C3  UNL     1       4.231  -4.859  41.041  1.00  0.00     0.068 C 
BRANCH  12  13
HETATM   13  C2  UNL     1       3.556  -4.461  39.763  1.00  0.00     0.001 C 
HETATM   14  C1  UNL     1       3.620  -5.502  38.681  1.00  0.00     0.005 C 
ENDBRANCH  12  13
ENDBRANCH   6  12
BRANCH   6  15
HETATM   15  O1  UNL     1       5.276  -2.831  41.525  1.00  0.00    -0.365 OA
ATOM     16  H1  UNL     1       6.082  -3.302  41.349  1.00  0.00     0.213 HD
ENDBRANCH   6  15
ENDBRANCH   3   4
ENDBRANCH   1   2
BRANCH   1  17
HETATM   17  O3  UNL     1       8.585  -1.661  43.724  1.00  0.00    -0.392 OA
ATOM     18  H3  UNL     1       7.895  -1.009  43.760  1.00  0.00     0.210 HD
ENDBRANCH   1  17
BRANCH   1  19
HETATM   19  C9  UNL     1       9.679  -3.437  44.927  1.00  0.00     0.037 C 
BRANCH  19  20
HETATM   20  C10 UNL     1      10.512  -3.299  43.687  1.00  0.00     0.027 C 
BRANCH  20  21
HETATM   21  C11 UNL     1      10.787  -4.594  42.987  1.00  0.00     0.064 C 
HETATM   22  C12 UNL     1       9.871  -5.709  43.422  1.00  0.00     0.024 C 
HETATM   23  C13 UNL     1       8.509  -5.685  42.831  1.00  0.00     0.005 C 
HETATM   24  C14 UNL     1       8.303  -4.703  41.736  1.00  0.00     0.027 C 
HETATM   25  C15 UNL     1       9.501  -4.394  40.954  1.00  0.00    -0.023 C 
HETATM   26  C16 UNL     1      10.690  -4.338  41.534  1.00  0.00    -0.062 C 
HETATM   27  C17 UNL     1      11.866  -4.016  40.693  1.00  0.00     0.088 C 
HETATM   28  C18 UNL     1      13.147  -4.637  41.143  1.00  0.00     0.224 C 
HETATM   29  N1  UNL     1      13.287  -4.655  42.582  1.00  0.00    -0.334 N 
HETATM   30  C19 UNL     1      12.173  -5.010  43.378  1.00  0.00     0.232 C 
ATOM     31  H1  UNL     1      14.178  -4.415  43.017  1.00  0.00     0.165 HD
HETATM   32  O5  UNL     1      12.334  -5.691  44.445  1.00  0.00    -0.272 OA
BRANCH  28  33
HETATM   33  O4  UNL     1      14.202  -3.910  40.607  1.00  0.00    -0.377 OA
ATOM     34  H4  UNL     1      14.872  -3.816  41.273  1.00  0.00     0.212 HD
ENDBRANCH  28  33
ENDBRANCH  20  21
ENDBRANCH  19  20
ENDBRANCH   1  19
TORSDOF 10
ENDMDL
MODEL 5
REMARK VINA RESULT: -7.867469707      3.566      5.935
REMARK  10 active torsions:
REMARK  status: ('A' for Active; 'I' for Inactive)
REMARK    1  A    between atoms: C2_2  and  C3_3 
REMARK    2  A    between atoms: C3_3  and  C4_4 
REMARK    3  A    between atoms: C4_4  and  O1_5 
REMARK    4  A    between atoms: C5_8  and  C6_9 
REMARK    5  A    between atoms: C7_10  and  C8_11 
REMARK    6  A    between atoms: C8_11  and  O3_12 
REMARK    7  A    between atoms: C8_11  and  C9_14 
REMARK    8  A    between atoms: C9_14  and  C10_15 
REMARK    9  A    between atoms: C10_15  and  C11_16 
REMARK   10  A    between atoms: C18_23  and  O4_24 
ROOT
HETATM    1  C8  UNL     1      12.161  -3.825  43.828  1.00  0.00     0.140 C 
ENDROOT
BRANCH   1   2
HETATM    2  C7  UNL     1      11.378  -3.789  45.082  1.00  0.00     0.003 C 
HETATM    3  C6  UNL     1      10.937  -2.626  45.538  1.00  0.00     0.004 C 
BRANCH   3   4
HETATM    4  C5  UNL     1      10.131  -2.551  46.819  1.00  0.00     0.151 C 
HETATM    5  O2  UNL     1       8.841  -2.941  46.599  1.00  0.00    -0.345 OA
HETATM    6  C4  UNL     1       8.009  -1.985  46.046  1.00  0.00     0.165 C 
HETATM    7  C23 UNL     1       7.906  -0.821  46.999  1.00  0.00     0.044 C 
HETATM    8  C22 UNL     1       9.254  -0.234  47.330  1.00  0.00     0.016 C 
HETATM    9  C24 UNL     1       7.275  -1.232  48.313  1.00  0.00     0.015 C 
HETATM   10  C20 UNL     1      10.331  -1.243  47.499  1.00  0.00     0.015 C 
HETATM   11  C21 UNL     1      11.663  -0.591  47.102  1.00  0.00     0.012 C 
BRANCH   6  12
HETATM   12  C3  UNL     1       6.646  -2.618  45.882  1.00  0.00     0.068 C 
BRANCH  12  13
HETATM   13  C2  UNL     1       5.652  -1.739  45.184  1.00  0.00     0.001 C 
HETATM   14  C1  UNL     1       4.362  -1.552  45.932  1.00  0.00     0.005 C 
ENDBRANCH  12  13
ENDBRANCH   6  12
BRANCH   6  15
HETATM   15  O1  UNL     1       8.416  -1.540  44.814  1.00  0.00    -0.365 OA
ATOM     16  H1  UNL     1       8.598  -0.610  44.887  1.00  0.00     0.213 HD
ENDBRANCH   6  15
ENDBRANCH   3   4
ENDBRANCH   1   2
BRANCH   1  17
HETATM   17  O3  UNL     1      11.956  -2.627  43.152  1.00  0.00    -0.392 OA
ATOM     18  H3  UNL     1      11.287  -2.768  42.492  1.00  0.00     0.210 HD
ENDBRANCH   1  17
BRANCH   1  19
HETATM   19  C9  UNL     1      11.709  -5.016  42.976  1.00  0.00     0.037 C 
BRANCH  19  20
HETATM   20  C10 UNL     1      10.216  -5.138  43.043  1.00  0.00     0.027 C 
BRANCH  20  21
HETATM   21  C11 UNL     1       9.506  -4.652  41.817  1.00  0.00     0.064 C 
HETATM   22  C12 UNL     1      10.444  -4.262  40.704  1.00  0.00     0.024 C 
HETATM   23  C13 UNL     1      11.011  -5.391  39.922  1.00  0.00     0.005 C 
HETATM   24  C14 UNL     1      10.416  -6.724  40.196  1.00  0.00     0.027 C 
HETATM   25  C15 UNL     1       9.018  -6.695  40.628  1.00  0.00    -0.023 C 
HETATM   26  C16 UNL     1       8.569  -5.717  41.399  1.00  0.00    -0.062 C 
HETATM   27  C17 UNL     1       7.146  -5.743  41.809  1.00  0.00     0.088 C 
HETATM   28  C18 UNL     1       6.528  -4.400  42.013  1.00  0.00     0.224 C 
HETATM   29  N1  UNL     1       7.428  -3.456  42.637  1.00  0.00    -0.334 N 
HETATM   30  C19 UNL     1       8.775  -3.402  42.208  1.00  0.00     0.232 C 
ATOM     31  H1  UNL     1       7.096  -2.837  43.377  1.00  0.00     0.165 HD
HETATM   32  O5  UNL     1       9.389  -2.285  42.149  1.00  0.00    -0.272 OA
BRANCH  28  33
HETATM   33  O4  UNL     1       5.412  -4.547  42.826  1.00  0.00    -0.377 OA
ATOM     34  H4  UNL     1       4.636  -4.542  42.278  1.00  0.00     0.212 HD
ENDBRANCH  28  33
ENDBRANCH  20  21
ENDBRANCH  19  20
ENDBRANCH   1  19
TORSDOF 10
ENDMDL
