MODEL 1
REMARK VINA RESULT: -8.794268052      0.000      0.000
REMARK  7 active torsions:
REMARK  status: ('A' for Active; 'I' for Inactive)
REMARK    1  A    between atoms: C11_15  and  C12_16 
REMARK    2  A    between atoms: C12_16  and  C13_17 
REMARK    3  A    between atoms: C13_17  and  C14_18 
REMARK    4  A    between atoms: C14_18  and  C15_19 
REMARK    5  A    between atoms: C15_19  and  C16_20 
REMARK    6  A    between atoms: C16_20  and  C17_21 
REMARK    7  A    between atoms: C17_21  and  N3_22 
REMARK       I    between atoms: N3_22  and  C18_24 
ROOT
HETATM    1  C1  UNL     1       7.469  -1.229  46.614  1.00  0.00     0.157 C 
HETATM    2  N1  UNL     1       7.329  -2.209  45.577  1.00  0.00    -0.342 N 
HETATM    3  C2  UNL     1       6.072  -2.512  45.021  1.00  0.00     0.062 A 
HETATM    4  C3  UNL     1       4.936  -1.850  45.490  1.00  0.00     0.033 A 
HETATM    5  C4  UNL     1       3.715  -2.143  44.957  1.00  0.00     0.021 A 
HETATM    6  C5  UNL     1       3.643  -3.084  43.975  1.00  0.00     0.013 A 
HETATM    7 BR1  UNL     1       1.934  -3.485  43.239  1.00  0.00    -0.051 Br
HETATM    8  C6  UNL     1       4.768  -3.732  43.519  1.00  0.00     0.051 A 
HETATM    9  C7  UNL     1       6.021  -3.446  44.050  1.00  0.00     0.063 A 
HETATM   10  N2  UNL     1       7.190  -4.135  43.565  1.00  0.00    -0.346 N 
HETATM   11  C8  UNL     1       6.933  -5.091  42.513  1.00  0.00     0.156 C 
HETATM   12  C9  UNL     1       8.494  -3.850  44.113  1.00  0.00     0.094 A 
HETATM   13  C10 UNL     1       8.483  -2.890  45.098  1.00  0.00     0.106 A 
HETATM   14  S1  UNL     1      10.136  -2.772  45.545  1.00  0.00    -0.072 SA
HETATM   15  C11 UNL     1      10.784  -3.931  44.479  1.00  0.00     0.011 A 
HETATM   16  C19 UNL     1       9.699  -4.379  43.804  1.00  0.00     0.089 A 
HETATM   17  N6  UNL     1       9.940  -5.408  42.804  1.00  0.00    -0.099 NA
ENDROOT
BRANCH  15  18
HETATM   18  C12 UNL     1      12.229  -4.248  44.432  1.00  0.00     0.048 C 
BRANCH  18  19
HETATM   19  C13 UNL     1      12.657  -5.517  45.047  1.00  0.00     0.005 C 
BRANCH  19  20
HETATM   20  C14 UNL     1      14.102  -5.796  44.700  1.00  0.00     0.000 C 
BRANCH  20  21
HETATM   21  C15 UNL     1      14.802  -6.523  45.788  1.00  0.00     0.002 C 
BRANCH  21  22
HETATM   22  C16 UNL     1      16.245  -6.058  45.875  1.00  0.00     0.020 C 
BRANCH  22  23
HETATM   23  C17 UNL     1      16.658  -5.397  44.603  1.00  0.00     0.122 C 
BRANCH  23  24
HETATM   24  N3  UNL     1      17.566  -4.310  44.841  1.00  0.00    -0.365 N 
HETATM   25  C18 UNL     1      18.697  -4.153  43.984  1.00  0.00     0.181 C 
HETATM   26  N4  UNL     1      18.764  -3.074  43.276  1.00  0.00    -0.374 N 
HETATM   27  N5  UNL     1      19.733  -5.108  43.874  1.00  0.00    -0.064 NA
ATOM     28  H42 UNL     1      18.016  -2.386  43.355  1.00  0.00     0.158 HD
ATOM     29  H41 UNL     1      19.571  -2.962  42.663  1.00  0.00     0.158 HD
ATOM     30  H3  UNL     1      17.406  -3.660  45.611  1.00  0.00     0.162 HD
ENDBRANCH  23  24
ENDBRANCH  22  23
ENDBRANCH  21  22
ENDBRANCH  20  21
ENDBRANCH  19  20
ENDBRANCH  18  19
ENDBRANCH  15  18
TORSDOF 7
ENDMDL
MODEL 2
REMARK VINA RESULT: -8.530725596      0.874      1.289
REMARK  7 active torsions:
REMARK  status: ('A' for Active; 'I' for Inactive)
REMARK    1  A    between atoms: C11_15  and  C12_16 
REMARK    2  A    between atoms: C12_16  and  C13_17 
REMARK    3  A    between atoms: C13_17  and  C14_18 
REMARK    4  A    between atoms: C14_18  and  C15_19 
REMARK    5  A    between atoms: C15_19  and  C16_20 
REMARK    6  A    between atoms: C16_20  and  C17_21 
REMARK    7  A    between atoms: C17_21  and  N3_22 
REMARK       I    between atoms: N3_22  and  C18_24 
ROOT
HETATM    1  C1  UNL     1       7.355  -1.231  46.730  1.00  0.00     0.157 C 
HETATM    2  N1  UNL     1       7.233  -2.176  45.660  1.00  0.00    -0.342 N 
HETATM    3  C2  UNL     1       5.986  -2.462  45.075  1.00  0.00     0.062 A 
HETATM    4  C3  UNL     1       4.840  -1.818  45.548  1.00  0.00     0.033 A 
HETATM    5  C4  UNL     1       3.629  -2.094  44.987  1.00  0.00     0.021 A 
HETATM    6  C5  UNL     1       3.574  -3.003  43.973  1.00  0.00     0.013 A 
HETATM    7 BR1  UNL     1       1.877  -3.382  43.198  1.00  0.00    -0.051 Br
HETATM    8  C6  UNL     1       4.707  -3.634  43.514  1.00  0.00     0.051 A 
HETATM    9  C7  UNL     1       5.951  -3.364  44.073  1.00  0.00     0.063 A 
HETATM   10  N2  UNL     1       7.129  -4.034  43.584  1.00  0.00    -0.346 N 
HETATM   11  C8  UNL     1       6.890  -4.955  42.497  1.00  0.00     0.156 C 
HETATM   12  C9  UNL     1       8.423  -3.765  44.160  1.00  0.00     0.094 A 
HETATM   13  C10 UNL     1       8.395  -2.839  45.177  1.00  0.00     0.106 A 
HETATM   14  S1  UNL     1      10.041  -2.733  45.653  1.00  0.00    -0.072 SA
HETATM   15  C11 UNL     1      10.708  -3.855  44.559  1.00  0.00     0.011 A 
HETATM   16  C19 UNL     1       9.634  -4.282  43.853  1.00  0.00     0.089 A 
HETATM   17  N6  UNL     1       9.893  -5.277  42.823  1.00  0.00    -0.099 NA
ENDROOT
BRANCH  15  18
HETATM   18  C12 UNL     1      12.154  -4.168  44.523  1.00  0.00     0.048 C 
BRANCH  18  19
HETATM   19  C13 UNL     1      12.570  -5.475  45.061  1.00  0.00     0.005 C 
BRANCH  19  20
HETATM   20  C14 UNL     1      13.947  -5.830  44.546  1.00  0.00     0.000 C 
BRANCH  20  21
HETATM   21  C15 UNL     1      14.029  -5.723  43.068  1.00  0.00     0.002 C 
BRANCH  21  22
HETATM   22  C16 UNL     1      15.414  -6.132  42.596  1.00  0.00     0.020 C 
BRANCH  22  23
HETATM   23  C17 UNL     1      16.376  -6.126  43.736  1.00  0.00     0.122 C 
BRANCH  23  24
HETATM   24  N3  UNL     1      17.052  -4.864  43.852  1.00  0.00    -0.365 N 
HETATM   25  C18 UNL     1      17.676  -4.524  45.089  1.00  0.00     0.181 C 
HETATM   26  N4  UNL     1      18.959  -4.368  45.088  1.00  0.00    -0.374 N 
HETATM   27  N5  UNL     1      16.968  -4.352  46.301  1.00  0.00    -0.064 NA
ATOM     28  H42 UNL     1      19.470  -4.492  44.214  1.00  0.00     0.158 HD
ATOM     29  H41 UNL     1      19.405  -4.126  45.972  1.00  0.00     0.158 HD
ATOM     30  H3  UNL     1      17.086  -4.220  43.061  1.00  0.00     0.162 HD
ENDBRANCH  23  24
ENDBRANCH  22  23
ENDBRANCH  21  22
ENDBRANCH  20  21
ENDBRANCH  19  20
ENDBRANCH  18  19
ENDBRANCH  15  18
TORSDOF 7
ENDMDL
MODEL 3
REMARK VINA RESULT: -8.470868356      1.767      2.772
REMARK  7 active torsions:
REMARK  status: ('A' for Active; 'I' for Inactive)
REMARK    1  A    between atoms: C11_15  and  C12_16 
REMARK    2  A    between atoms: C12_16  and  C13_17 
REMARK    3  A    between atoms: C13_17  and  C14_18 
REMARK    4  A    between atoms: C14_18  and  C15_19 
REMARK    5  A    between atoms: C15_19  and  C16_20 
REMARK    6  A    between atoms: C16_20  and  C17_21 
REMARK    7  A    between atoms: C17_21  and  N3_22 
REMARK       I    between atoms: N3_22  and  C18_24 
ROOT
HETATM    1  C1  UNL     1       7.346  -5.453  42.262  1.00  0.00     0.157 C 
HETATM    2  N1  UNL     1       7.820  -4.529  43.249  1.00  0.00    -0.342 N 
HETATM    3  C2  UNL     1       6.938  -3.669  43.930  1.00  0.00     0.062 A 
HETATM    4  C3  UNL     1       5.574  -3.711  43.636  1.00  0.00     0.033 A 
HETATM    5  C4  UNL     1       4.716  -2.877  44.290  1.00  0.00     0.021 A 
HETATM    6  C5  UNL     1       5.224  -2.019  45.218  1.00  0.00     0.013 A 
HETATM    7 BR1  UNL     1       4.017  -0.859  46.125  1.00  0.00    -0.051 Br
HETATM    8  C6  UNL     1       6.570  -1.984  45.501  1.00  0.00     0.051 A 
HETATM    9  C7  UNL     1       7.460  -2.828  44.845  1.00  0.00     0.063 A 
HETATM   10  N2  UNL     1       8.867  -2.778  45.149  1.00  0.00    -0.346 N 
HETATM   11  C8  UNL     1       9.230  -1.819  46.168  1.00  0.00     0.156 C 
HETATM   12  C9  UNL     1       9.799  -3.645  44.471  1.00  0.00     0.094 A 
HETATM   13  C10 UNL     1       9.209  -4.479  43.550  1.00  0.00     0.106 A 
HETATM   14  S1  UNL     1      10.538  -5.365  42.920  1.00  0.00    -0.072 SA
HETATM   15  C11 UNL     1      11.789  -4.657  43.835  1.00  0.00     0.011 A 
HETATM   16  C19 UNL     1      11.140  -3.751  44.606  1.00  0.00     0.089 A 
HETATM   17  N6  UNL     1      11.965  -2.965  45.509  1.00  0.00    -0.099 NA
ENDROOT
BRANCH  15  18
HETATM   18  C12 UNL     1      13.204  -5.064  43.695  1.00  0.00     0.048 C 
BRANCH  18  19
HETATM   19  C13 UNL     1      13.800  -5.816  44.814  1.00  0.00     0.005 C 
BRANCH  19  20
HETATM   20  C14 UNL     1      15.258  -6.094  44.530  1.00  0.00     0.000 C 
BRANCH  20  21
HETATM   21  C15 UNL     1      16.110  -5.851  45.721  1.00  0.00     0.002 C 
BRANCH  21  22
HETATM   22  C16 UNL     1      17.165  -4.807  45.397  1.00  0.00     0.020 C 
BRANCH  22  23
HETATM   23  C17 UNL     1      17.612  -4.940  43.980  1.00  0.00     0.122 C 
BRANCH  23  24
HETATM   24  N3  UNL     1      18.455  -3.845  43.585  1.00  0.00    -0.365 N 
HETATM   25  C18 UNL     1      18.513  -3.479  42.207  1.00  0.00     0.181 C 
HETATM   26  N4  UNL     1      18.093  -2.300  41.885  1.00  0.00    -0.374 N 
HETATM   27  N5  UNL     1      19.000  -4.333  41.191  1.00  0.00    -0.064 NA
ATOM     28  H42 UNL     1      17.741  -1.685  42.617  1.00  0.00     0.158 HD
ATOM     29  H41 UNL     1      18.134  -2.039  40.900  1.00  0.00     0.158 HD
ATOM     30  H3  UNL     1      19.003  -3.337  44.279  1.00  0.00     0.162 HD
ENDBRANCH  23  24
ENDBRANCH  22  23
ENDBRANCH  21  22
ENDBRANCH  20  21
ENDBRANCH  19  20
ENDBRANCH  18  19
ENDBRANCH  15  18
TORSDOF 7
ENDMDL
MODEL 4
REMARK VINA RESULT: -8.398956312      4.456      9.678
REMARK  7 active torsions:
REMARK  status: ('A' for Active; 'I' for Inactive)
REMARK    1  A    between atoms: C11_15  and  C12_16 
REMARK    2  A    between atoms: C12_16  and  C13_17 
REMARK    3  A    between atoms: C13_17  and  C14_18 
REMARK    4  A    between atoms: C14_18  and  C15_19 
REMARK    5  A    between atoms: C15_19  and  C16_20 
REMARK    6  A    between atoms: C16_20  and  C17_21 
REMARK    7  A    between atoms: C17_21  and  N3_22 
REMARK       I    between atoms: N3_22  and  C18_24 
ROOT
HETATM    1  C1  UNL     1       8.125  -4.627  40.628  1.00  0.00     0.157 C 
HETATM    2  N1  UNL     1       9.037  -4.480  41.723  1.00  0.00    -0.342 N 
HETATM    3  C2  UNL     1      10.376  -4.901  41.623  1.00  0.00     0.062 A 
HETATM    4  C3  UNL     1      10.828  -5.479  40.434  1.00  0.00     0.033 A 
HETATM    5  C4  UNL     1      12.122  -5.891  40.332  1.00  0.00     0.021 A 
HETATM    6  C5  UNL     1      12.944  -5.728  41.407  1.00  0.00     0.013 A 
HETATM    7 BR1  UNL     1      14.750  -6.308  41.254  1.00  0.00    -0.051 Br
HETATM    8  C6  UNL     1      12.491  -5.158  42.574  1.00  0.00     0.051 A 
HETATM    9  C7  UNL     1      11.173  -4.730  42.696  1.00  0.00     0.063 A 
HETATM   10  N2  UNL     1      10.712  -4.139  43.926  1.00  0.00    -0.346 N 
HETATM   11  C8  UNL     1      11.718  -4.030  44.957  1.00  0.00     0.156 C 
HETATM   12  C9  UNL     1       9.346  -3.697  44.065  1.00  0.00     0.094 A 
HETATM   13  C10 UNL     1       8.582  -3.897  42.938  1.00  0.00     0.106 A 
HETATM   14  S1  UNL     1       7.044  -3.289  43.398  1.00  0.00    -0.072 SA
HETATM   15  C11 UNL     1       7.413  -2.803  44.988  1.00  0.00     0.011 A 
HETATM   16  C19 UNL     1       8.722  -3.127  45.120  1.00  0.00     0.089 A 
HETATM   17  N6  UNL     1       9.333  -2.833  46.407  1.00  0.00    -0.099 NA
ENDROOT
BRANCH  15  18
HETATM   18  C12 UNL     1       6.411  -2.183  45.883  1.00  0.00     0.048 C 
BRANCH  18  19
HETATM   19  C13 UNL     1       4.999  -2.535  45.654  1.00  0.00     0.005 C 
BRANCH  19  20
HETATM   20  C14 UNL     1       4.247  -1.337  45.120  1.00  0.00     0.000 C 
BRANCH  20  21
HETATM   21  C15 UNL     1       3.495  -1.663  43.883  1.00  0.00     0.002 C 
BRANCH  21  22
HETATM   22  C16 UNL     1       3.257  -3.161  43.802  1.00  0.00     0.020 C 
BRANCH  22  23
HETATM   23  C17 UNL     1       2.280  -3.476  42.720  1.00  0.00     0.122 C 
BRANCH  23  24
HETATM   24  N3  UNL     1       2.657  -4.657  41.993  1.00  0.00    -0.365 N 
HETATM   25  C18 UNL     1       3.334  -4.513  40.745  1.00  0.00     0.181 C 
HETATM   26  N4  UNL     1       4.537  -4.980  40.661  1.00  0.00    -0.374 N 
HETATM   27  N5  UNL     1       2.761  -3.894  39.610  1.00  0.00    -0.064 NA
ATOM     28  H42 UNL     1       4.950  -5.426  41.480  1.00  0.00     0.158 HD
ATOM     29  H41 UNL     1       5.021  -4.877  39.770  1.00  0.00     0.158 HD
ATOM     30  H3  UNL     1       2.444  -5.583  42.363  1.00  0.00     0.162 HD
ENDBRANCH  23  24
ENDBRANCH  22  23
ENDBRANCH  21  22
ENDBRANCH  20  21
ENDBRANCH  19  20
ENDBRANCH  18  19
ENDBRANCH  15  18
TORSDOF 7
ENDMDL
MODEL 5
REMARK VINA RESULT: -8.356197520      4.126      9.451
REMARK  7 active torsions:
REMARK  status: ('A' for Active; 'I' for Inactive)
REMARK    1  A    between atoms: C11_15  and  C12_16 
REMARK    2  A    between atoms: C12_16  and  C13_17 
REMARK    3  A    between atoms: C13_17  and  C14_18 
REMARK    4  A    between atoms: C14_18  and  C15_19 
REMARK    5  A    between atoms: C15_19  and  C16_20 
REMARK    6  A    between atoms: C16_20  and  C17_21 
REMARK    7  A    between atoms: C17_21  and  N3_22 
REMARK       I    between atoms: N3_22  and  C18_24 
ROOT
HETATM    1  C1  UNL     1      12.360  -4.194  44.426  1.00  0.00     0.157 C 
HETATM    2  N1  UNL     1      11.348  -4.353  43.425  1.00  0.00    -0.342 N 
HETATM    3  C2  UNL     1      11.613  -5.021  42.215  1.00  0.00     0.062 A 
HETATM    4  C3  UNL     1      12.889  -5.536  41.980  1.00  0.00     0.033 A 
HETATM    5  C4  UNL     1      13.153  -6.180  40.808  1.00  0.00     0.021 A 
HETATM    6  C5  UNL     1      12.151  -6.300  39.892  1.00  0.00     0.013 A 
HETATM    7 BR1  UNL     1      12.530  -7.201  38.259  1.00  0.00    -0.051 Br
HETATM    8  C6  UNL     1      10.896  -5.789  40.131  1.00  0.00     0.051 A 
HETATM    9  C7  UNL     1      10.609  -5.129  41.321  1.00  0.00     0.063 A 
HETATM   10  N2  UNL     1       9.292  -4.596  41.557  1.00  0.00    -0.346 N 
HETATM   11  C8  UNL     1       8.349  -4.824  40.486  1.00  0.00     0.156 C 
HETATM   12  C9  UNL     1       8.985  -3.905  42.785  1.00  0.00     0.094 A 
HETATM   13  C10 UNL     1      10.047  -3.826  43.656  1.00  0.00     0.106 A 
HETATM   14  S1  UNL     1       9.392  -2.969  44.992  1.00  0.00    -0.072 SA
HETATM   15  C11 UNL     1       7.807  -2.740  44.411  1.00  0.00     0.011 A 
HETATM   16  C19 UNL     1       7.829  -3.336  43.195  1.00  0.00     0.089 A 
HETATM   17  N6  UNL     1       6.590  -3.295  42.434  1.00  0.00    -0.099 NA
ENDROOT
BRANCH  15  18
HETATM   18  C12 UNL     1       6.769  -2.033  45.192  1.00  0.00     0.048 C 
BRANCH  18  19
HETATM   19  C13 UNL     1       5.655  -2.844  45.717  1.00  0.00     0.005 C 
BRANCH  19  20
HETATM   20  C14 UNL     1       4.423  -1.983  45.881  1.00  0.00     0.000 C 
BRANCH  20  21
HETATM   21  C15 UNL     1       3.849  -1.585  44.572  1.00  0.00     0.002 C 
BRANCH  21  22
HETATM   22  C16 UNL     1       3.020  -2.724  44.004  1.00  0.00     0.020 C 
BRANCH  22  23
HETATM   23  C17 UNL     1       3.102  -2.736  42.514  1.00  0.00     0.122 C 
BRANCH  23  24
HETATM   24  N3  UNL     1       3.265  -4.068  42.003  1.00  0.00    -0.365 N 
HETATM   25  C18 UNL     1       3.578  -4.246  40.622  1.00  0.00     0.181 C 
HETATM   26  N4  UNL     1       4.711  -4.796  40.333  1.00  0.00    -0.374 N 
HETATM   27  N5  UNL     1       2.720  -3.855  39.569  1.00  0.00    -0.064 NA
ATOM     28  H42 UNL     1       5.330  -5.078  41.093  1.00  0.00     0.158 HD
ATOM     29  H41 UNL     1       4.936  -4.923  39.347  1.00  0.00     0.158 HD
ATOM     30  H3  UNL     1       3.158  -4.876  42.618  1.00  0.00     0.162 HD
ENDBRANCH  23  24
ENDBRANCH  22  23
ENDBRANCH  21  22
ENDBRANCH  20  21
ENDBRANCH  19  20
ENDBRANCH  18  19
ENDBRANCH  15  18
TORSDOF 7
ENDMDL
