MODEL 1
REMARK VINA RESULT: -7.201416680      0.000      0.000
REMARK  11 active torsions:
REMARK  status: ('A' for Active; 'I' for Inactive)
REMARK    1  A    between atoms: C2_2  and  C3_3 
REMARK    2  A    between atoms: C3_3  and  C4_4 
REMARK    3  A    between atoms: C4_4  and  C5_5 
REMARK    4  A    between atoms: C5_5  and  C6_6 
REMARK    5  A    between atoms: C6_6  and  C7_7 
REMARK    6  A    between atoms: C7_7  and  C8_8 
REMARK    7  A    between atoms: C8_8  and  O1_9 
REMARK    8  A    between atoms: N1_11  and  C9_13 
REMARK    9  A    between atoms: C17_21  and  O2_22 
REMARK   10  A    between atoms: C18_24  and  O3_26 
REMARK   11  A    between atoms: C25_33  and  O4_34 
ROOT
HETATM    1  C9  UNL     1       6.508  -5.252  41.236  1.00  0.00     0.134 C 
HETATM    2  C10 UNL     1       6.226  -5.624  42.669  1.00  0.00     0.030 C 
HETATM    3  C11 UNL     1       7.413  -5.381  43.550  1.00  0.00     0.012 C 
HETATM    4  C12 UNL     1       7.937  -3.943  43.392  1.00  0.00    -0.029 C 
HETATM    5  C13 UNL     1       6.676  -3.101  43.661  1.00  0.00     0.016 C 
HETATM    6  C14 UNL     1       8.867  -3.688  44.506  1.00  0.00     0.002 C 
HETATM    7  C15 UNL     1       8.483  -2.474  45.366  1.00  0.00     0.008 C 
HETATM    8  C16 UNL     1       9.363  -2.462  46.604  1.00  0.00     0.035 C 
HETATM    9  C17 UNL     1      10.814  -2.500  46.312  1.00  0.00     0.152 C 
HETATM   10  C18 UNL     1      11.211  -3.552  45.305  1.00  0.00     0.084 C 
HETATM   11  C19 UNL     1      11.272  -4.926  45.892  1.00  0.00     0.049 C 
HETATM   12  C20 UNL     1      10.299  -3.438  44.131  1.00  0.00     0.027 C 
HETATM   13  C21 UNL     1      10.679  -4.324  42.977  1.00  0.00     0.009 C 
HETATM   14  C22 UNL     1       9.902  -3.747  41.811  1.00  0.00     0.015 C 
HETATM   15  C23 UNL     1       8.419  -3.791  42.008  1.00  0.00     0.011 C 
HETATM   16  C24 UNL     1       7.889  -2.450  41.469  1.00  0.00     0.020 C 
HETATM   17  C25 UNL     1       7.910  -4.837  41.032  1.00  0.00     0.162 C 
HETATM   18 CL1  UNL     1       9.042  -6.234  40.947  1.00  0.00    -0.085 Cl
ENDROOT
BRANCH   1  19
HETATM   19  N1  UNL     1       6.262  -6.435  40.433  1.00  0.00    -0.366 N 
HETATM   20  C8  UNL     1       5.299  -6.526  39.592  1.00  0.00     0.111 C 
ATOM     21  H1  UNL     1       6.887  -7.234  40.542  1.00  0.00     0.161 HD
BRANCH  20  22
HETATM   22  C7  UNL     1       5.082  -7.746  38.794  1.00  0.00     0.083 C 
BRANCH  22  23
HETATM   23  C6  UNL     1       5.557  -7.563  37.354  1.00  0.00     0.008 C 
BRANCH  23  24
HETATM   24  C5  UNL     1       7.017  -7.861  37.240  1.00  0.00     0.000 C 
BRANCH  24  25
HETATM   25  C4  UNL     1       7.812  -6.601  37.064  1.00  0.00     0.000 C 
BRANCH  25  26
HETATM   26  C3  UNL     1       9.265  -6.925  36.892  1.00  0.00    -0.000 C 
BRANCH  26  27
HETATM   27  C2  UNL     1       9.472  -7.419  35.455  1.00  0.00    -0.005 C 
HETATM   28  C1  UNL     1      10.222  -6.340  34.724  1.00  0.00     0.005 C 
ENDBRANCH  26  27
ENDBRANCH  25  26
ENDBRANCH  24  25
ENDBRANCH  23  24
ENDBRANCH  22  23
ENDBRANCH  20  22
BRANCH  20  29
HETATM   29  O1  UNL     1       4.445  -5.454  39.433  1.00  0.00    -0.350 OA
ATOM     30  H1  UNL     1       4.306  -5.095  38.564  1.00  0.00     0.219 HD
ENDBRANCH  20  29
ENDBRANCH   1  19
BRANCH  17  31
HETATM   31  O4  UNL     1       7.990  -4.239  39.750  1.00  0.00    -0.372 OA
ATOM     32  H4  UNL     1       8.899  -4.283  39.475  1.00  0.00     0.212 HD
ENDBRANCH  17  31
BRANCH  10  33
HETATM   33  O3  UNL     1      12.506  -3.222  44.862  1.00  0.00    -0.387 OA
ATOM     34  H3  UNL     1      12.600  -3.591  43.991  1.00  0.00     0.210 HD
ENDBRANCH  10  33
BRANCH   9  35
HETATM   35  O2  UNL     1      11.298  -1.231  45.944  1.00  0.00    -0.393 OA
ATOM     36  H2  UNL     1      10.748  -0.829  45.282  1.00  0.00     0.210 HD
ENDBRANCH   9  35
TORSDOF 11
ENDMDL
MODEL 2
REMARK VINA RESULT: -7.093659243      3.729      7.057
REMARK  11 active torsions:
REMARK  status: ('A' for Active; 'I' for Inactive)
REMARK    1  A    between atoms: C2_2  and  C3_3 
REMARK    2  A    between atoms: C3_3  and  C4_4 
REMARK    3  A    between atoms: C4_4  and  C5_5 
REMARK    4  A    between atoms: C5_5  and  C6_6 
REMARK    5  A    between atoms: C6_6  and  C7_7 
REMARK    6  A    between atoms: C7_7  and  C8_8 
REMARK    7  A    between atoms: C8_8  and  O1_9 
REMARK    8  A    between atoms: N1_11  and  C9_13 
REMARK    9  A    between atoms: C17_21  and  O2_22 
REMARK   10  A    between atoms: C18_24  and  O3_26 
REMARK   11  A    between atoms: C25_33  and  O4_34 
ROOT
HETATM    1  C9  UNL     1       9.787  -5.160  42.217  1.00  0.00     0.134 C 
HETATM    2  C10 UNL     1       8.785  -6.149  42.754  1.00  0.00     0.030 C 
HETATM    3  C11 UNL     1       7.720  -5.478  43.566  1.00  0.00     0.012 C 
HETATM    4  C12 UNL     1       7.070  -4.324  42.785  1.00  0.00    -0.029 C 
HETATM    5  C13 UNL     1       6.629  -5.016  41.482  1.00  0.00     0.016 C 
HETATM    6  C14 UNL     1       5.842  -3.942  43.503  1.00  0.00     0.002 C 
HETATM    7  C15 UNL     1       4.572  -4.021  42.642  1.00  0.00     0.008 C 
HETATM    8  C16 UNL     1       3.364  -3.845  43.546  1.00  0.00     0.035 C 
HETATM    9  C17 UNL     1       3.401  -2.615  44.369  1.00  0.00     0.152 C 
HETATM   10  C18 UNL     1       4.716  -2.388  45.075  1.00  0.00     0.084 C 
HETATM   11  C19 UNL     1       4.874  -3.236  46.297  1.00  0.00     0.049 C 
HETATM   12  C20 UNL     1       5.812  -2.556  44.079  1.00  0.00     0.027 C 
HETATM   13  C21 UNL     1       7.175  -2.203  44.609  1.00  0.00     0.009 C 
HETATM   14  C22 UNL     1       8.016  -2.049  43.358  1.00  0.00     0.015 C 
HETATM   15  C23 UNL     1       8.106  -3.303  42.546  1.00  0.00     0.011 C 
HETATM   16  C24 UNL     1       7.998  -2.855  41.078  1.00  0.00     0.020 C 
HETATM   17  C25 UNL     1       9.535  -3.789  42.706  1.00  0.00     0.162 C 
HETATM   18 CL1  UNL     1      10.111  -3.538  44.392  1.00  0.00    -0.085 Cl
ENDROOT
BRANCH   1  19
HETATM   19  N1  UNL     1      11.093  -5.578  42.689  1.00  0.00    -0.366 N 
HETATM   20  C8  UNL     1      12.177  -5.368  42.038  1.00  0.00     0.111 C 
ATOM     21  H1  UNL     1      11.153  -6.065  43.584  1.00  0.00     0.161 HD
BRANCH  20  22
HETATM   22  C7  UNL     1      13.486  -5.809  42.552  1.00  0.00     0.083 C 
BRANCH  22  23
HETATM   23  C6  UNL     1      13.537  -5.748  44.076  1.00  0.00     0.008 C 
BRANCH  23  24
HETATM   24  C5  UNL     1      14.872  -5.261  44.538  1.00  0.00     0.000 C 
BRANCH  24  25
HETATM   25  C4  UNL     1      15.773  -6.408  44.887  1.00  0.00     0.000 C 
BRANCH  25  26
HETATM   26  C3  UNL     1      15.880  -6.552  46.375  1.00  0.00    -0.000 C 
BRANCH  26  27
HETATM   27  C2  UNL     1      15.360  -7.945  46.753  1.00  0.00    -0.005 C 
HETATM   28  C1  UNL     1      13.914  -7.784  47.137  1.00  0.00     0.005 C 
ENDBRANCH  26  27
ENDBRANCH  25  26
ENDBRANCH  24  25
ENDBRANCH  23  24
ENDBRANCH  22  23
ENDBRANCH  20  22
BRANCH  20  29
HETATM   29  O1  UNL     1      12.113  -4.712  40.826  1.00  0.00    -0.350 OA
ATOM     30  H1  UNL     1      11.274  -4.623  40.389  1.00  0.00     0.219 HD
ENDBRANCH  20  29
ENDBRANCH   1  19
BRANCH  17  31
HETATM   31  O4  UNL     1      10.330  -2.912  41.927  1.00  0.00    -0.372 OA
ATOM     32  H4  UNL     1      11.236  -3.173  42.045  1.00  0.00     0.212 HD
ENDBRANCH  17  31
BRANCH  10  33
HETATM   33  O3  UNL     1       4.728  -1.042  45.488  1.00  0.00    -0.387 OA
ATOM     34  H3  UNL     1       4.751  -1.047  46.438  1.00  0.00     0.210 HD
ENDBRANCH  10  33
BRANCH   9  35
HETATM   35  O2  UNL     1       3.020  -1.486  43.623  1.00  0.00    -0.393 OA
ATOM     36  H2  UNL     1       2.258  -1.063  43.999  1.00  0.00     0.210 HD
ENDBRANCH   9  35
TORSDOF 11
ENDMDL
MODEL 3
REMARK VINA RESULT: -7.029223934      3.731      7.412
REMARK  11 active torsions:
REMARK  status: ('A' for Active; 'I' for Inactive)
REMARK    1  A    between atoms: C2_2  and  C3_3 
REMARK    2  A    between atoms: C3_3  and  C4_4 
REMARK    3  A    between atoms: C4_4  and  C5_5 
REMARK    4  A    between atoms: C5_5  and  C6_6 
REMARK    5  A    between atoms: C6_6  and  C7_7 
REMARK    6  A    between atoms: C7_7  and  C8_8 
REMARK    7  A    between atoms: C8_8  and  O1_9 
REMARK    8  A    between atoms: N1_11  and  C9_13 
REMARK    9  A    between atoms: C17_21  and  O2_22 
REMARK   10  A    between atoms: C18_24  and  O3_26 
REMARK   11  A    between atoms: C25_33  and  O4_34 
ROOT
HETATM    1  C9  UNL     1       9.722  -5.008  43.229  1.00  0.00     0.134 C 
HETATM    2  C10 UNL     1       8.555  -5.956  43.121  1.00  0.00     0.030 C 
HETATM    3  C11 UNL     1       7.277  -5.319  43.572  1.00  0.00     0.012 C 
HETATM    4  C12 UNL     1       7.037  -3.983  42.849  1.00  0.00    -0.029 C 
HETATM    5  C13 UNL     1       7.136  -4.387  41.367  1.00  0.00     0.016 C 
HETATM    6  C14 UNL     1       5.636  -3.595  43.093  1.00  0.00     0.002 C 
HETATM    7  C15 UNL     1       4.820  -3.383  41.809  1.00  0.00     0.008 C 
HETATM    8  C16 UNL     1       3.357  -3.230  42.186  1.00  0.00     0.035 C 
HETATM    9  C17 UNL     1       3.101  -2.172  43.189  1.00  0.00     0.152 C 
HETATM   10  C18 UNL     1       4.025  -2.218  44.381  1.00  0.00     0.084 C 
HETATM   11  C19 UNL     1       3.648  -3.275  45.369  1.00  0.00     0.049 C 
HETATM   12  C20 UNL     1       5.424  -2.334  43.879  1.00  0.00     0.027 C 
HETATM   13  C21 UNL     1       6.468  -2.231  44.957  1.00  0.00     0.009 C 
HETATM   14  C22 UNL     1       7.747  -1.960  44.192  1.00  0.00     0.015 C 
HETATM   15  C23 UNL     1       8.114  -3.059  43.244  1.00  0.00     0.011 C 
HETATM   16  C24 UNL     1       8.623  -2.357  41.973  1.00  0.00     0.020 C 
HETATM   17  C25 UNL     1       9.340  -3.722  43.846  1.00  0.00     0.162 C 
HETATM   18 CL1  UNL     1       9.194  -3.829  45.637  1.00  0.00    -0.085 Cl
ENDROOT
BRANCH   1  19
HETATM   19  N1  UNL     1      10.711  -5.644  44.077  1.00  0.00    -0.366 N 
HETATM   20  C8  UNL     1      11.974  -5.483  43.927  1.00  0.00     0.111 C 
ATOM     21  H1  UNL     1      10.386  -6.251  44.830  1.00  0.00     0.161 HD
BRANCH  20  22
HETATM   22  C7  UNL     1      12.948  -6.148  44.811  1.00  0.00     0.083 C 
BRANCH  22  23
HETATM   23  C6  UNL     1      12.258  -6.835  45.987  1.00  0.00     0.008 C 
BRANCH  23  24
HETATM   24  C5  UNL     1      13.236  -7.655  46.764  1.00  0.00     0.000 C 
BRANCH  24  25
HETATM   25  C4  UNL     1      14.553  -6.948  46.891  1.00  0.00     0.000 C 
BRANCH  25  26
HETATM   26  C3  UNL     1      15.669  -7.848  46.456  1.00  0.00    -0.000 C 
BRANCH  26  27
HETATM   27  C2  UNL     1      16.453  -7.128  45.351  1.00  0.00    -0.005 C 
HETATM   28  C1  UNL     1      16.492  -5.670  45.720  1.00  0.00     0.005 C 
ENDBRANCH  26  27
ENDBRANCH  25  26
ENDBRANCH  24  25
ENDBRANCH  23  24
ENDBRANCH  22  23
ENDBRANCH  20  22
BRANCH  20  29
HETATM   29  O1  UNL     1      12.429  -4.667  42.913  1.00  0.00    -0.350 OA
ATOM     30  H1  UNL     1      11.827  -4.061  42.497  1.00  0.00     0.219 HD
ENDBRANCH  20  29
ENDBRANCH   1  19
BRANCH  17  31
HETATM   31  O4  UNL     1      10.411  -2.819  43.633  1.00  0.00    -0.372 OA
ATOM     32  H4  UNL     1      10.367  -2.538  42.726  1.00  0.00     0.212 HD
ENDBRANCH  17  31
BRANCH  10  33
HETATM   33  O3  UNL     1       3.915  -0.972  45.029  1.00  0.00    -0.387 OA
ATOM     34  H3  UNL     1       3.276  -0.466  44.542  1.00  0.00     0.210 HD
ENDBRANCH  10  33
BRANCH   9  35
HETATM   35  O2  UNL     1       3.091  -0.896  42.597  1.00  0.00    -0.393 OA
ATOM     36  H2  UNL     1       3.428  -0.236  43.191  1.00  0.00     0.210 HD
ENDBRANCH   9  35
TORSDOF 11
ENDMDL
MODEL 4
REMARK VINA RESULT: -6.985064122      0.894      1.255
REMARK  11 active torsions:
REMARK  status: ('A' for Active; 'I' for Inactive)
REMARK    1  A    between atoms: C2_2  and  C3_3 
REMARK    2  A    between atoms: C3_3  and  C4_4 
REMARK    3  A    between atoms: C4_4  and  C5_5 
REMARK    4  A    between atoms: C5_5  and  C6_6 
REMARK    5  A    between atoms: C6_6  and  C7_7 
REMARK    6  A    between atoms: C7_7  and  C8_8 
REMARK    7  A    between atoms: C8_8  and  O1_9 
REMARK    8  A    between atoms: N1_11  and  C9_13 
REMARK    9  A    between atoms: C17_21  and  O2_22 
REMARK   10  A    between atoms: C18_24  and  O3_26 
REMARK   11  A    between atoms: C25_33  and  O4_34 
ROOT
HETATM    1  C9  UNL     1       6.394  -5.172  41.337  1.00  0.00     0.134 C 
HETATM    2  C10 UNL     1       6.093  -5.475  42.783  1.00  0.00     0.030 C 
HETATM    3  C11 UNL     1       7.284  -5.244  43.660  1.00  0.00     0.012 C 
HETATM    4  C12 UNL     1       7.866  -3.837  43.447  1.00  0.00    -0.029 C 
HETATM    5  C13 UNL     1       6.639  -2.935  43.677  1.00  0.00     0.016 C 
HETATM    6  C14 UNL     1       8.801  -3.574  44.556  1.00  0.00     0.002 C 
HETATM    7  C15 UNL     1       8.463  -2.313  45.365  1.00  0.00     0.008 C 
HETATM    8  C16 UNL     1       9.339  -2.287  46.606  1.00  0.00     0.035 C 
HETATM    9  C17 UNL     1      10.788  -2.394  46.323  1.00  0.00     0.152 C 
HETATM   10  C18 UNL     1      11.146  -3.501  45.361  1.00  0.00     0.084 C 
HETATM   11  C19 UNL     1      11.150  -4.851  46.003  1.00  0.00     0.049 C 
HETATM   12  C20 UNL     1      10.244  -3.397  44.179  1.00  0.00     0.027 C 
HETATM   13  C21 UNL     1      10.592  -4.343  43.062  1.00  0.00     0.009 C 
HETATM   14  C22 UNL     1       9.844  -3.781  41.871  1.00  0.00     0.015 C 
HETATM   15  C23 UNL     1       8.359  -3.759  42.061  1.00  0.00     0.011 C 
HETATM   16  C24 UNL     1       7.885  -2.420  41.467  1.00  0.00     0.020 C 
HETATM   17  C25 UNL     1       7.813  -4.821  41.125  1.00  0.00     0.162 C 
HETATM   18 CL1  UNL     1       8.888  -6.264  41.101  1.00  0.00    -0.085 Cl
ENDROOT
BRANCH   1  19
HETATM   19  N1  UNL     1       6.104  -6.375  40.580  1.00  0.00    -0.366 N 
HETATM   20  C8  UNL     1       5.147  -6.457  39.731  1.00  0.00     0.111 C 
ATOM     21  H1  UNL     1       6.691  -7.195  40.730  1.00  0.00     0.161 HD
BRANCH  20  22
HETATM   22  C7  UNL     1       4.885  -7.699  38.981  1.00  0.00     0.083 C 
BRANCH  22  23
HETATM   23  C6  UNL     1       5.348  -8.929  39.757  1.00  0.00     0.008 C 
BRANCH  23  24
HETATM   24  C5  UNL     1       6.290  -9.746  38.933  1.00  0.00     0.000 C 
BRANCH  24  25
HETATM   25  C4  UNL     1       7.696  -9.235  39.055  1.00  0.00     0.000 C 
BRANCH  25  26
HETATM   26  C3  UNL     1       8.230  -8.859  37.706  1.00  0.00    -0.000 C 
BRANCH  26  27
HETATM   27  C2  UNL     1       8.799  -7.438  37.803  1.00  0.00    -0.005 C 
HETATM   28  C1  UNL     1       7.843  -6.532  37.077  1.00  0.00     0.005 C 
ENDBRANCH  26  27
ENDBRANCH  25  26
ENDBRANCH  24  25
ENDBRANCH  23  24
ENDBRANCH  22  23
ENDBRANCH  20  22
BRANCH  20  29
HETATM   29  O1  UNL     1       4.344  -5.357  39.518  1.00  0.00    -0.350 OA
ATOM     30  H1  UNL     1       4.589  -4.724  38.852  1.00  0.00     0.219 HD
ENDBRANCH  20  29
ENDBRANCH   1  19
BRANCH  17  31
HETATM   31  O4  UNL     1       7.921  -4.279  39.820  1.00  0.00    -0.372 OA
ATOM     32  H4  UNL     1       8.263  -4.964  39.258  1.00  0.00     0.212 HD
ENDBRANCH  17  31
BRANCH  10  33
HETATM   33  O3  UNL     1      12.455  -3.241  44.912  1.00  0.00    -0.387 OA
ATOM     34  H3  UNL     1      12.607  -3.809  44.166  1.00  0.00     0.210 HD
ENDBRANCH  10  33
BRANCH   9  35
HETATM   35  O2  UNL     1      11.323  -1.162  45.908  1.00  0.00    -0.393 OA
ATOM     36  H2  UNL     1      11.184  -1.018  44.980  1.00  0.00     0.210 HD
ENDBRANCH   9  35
TORSDOF 11
ENDMDL
MODEL 5
REMARK VINA RESULT: -6.935650677      3.224      7.842
REMARK  11 active torsions:
REMARK  status: ('A' for Active; 'I' for Inactive)
REMARK    1  A    between atoms: C2_2  and  C3_3 
REMARK    2  A    between atoms: C3_3  and  C4_4 
REMARK    3  A    between atoms: C4_4  and  C5_5 
REMARK    4  A    between atoms: C5_5  and  C6_6 
REMARK    5  A    between atoms: C6_6  and  C7_7 
REMARK    6  A    between atoms: C7_7  and  C8_8 
REMARK    7  A    between atoms: C8_8  and  O1_9 
REMARK    8  A    between atoms: N1_11  and  C9_13 
REMARK    9  A    between atoms: C17_21  and  O2_22 
REMARK   10  A    between atoms: C18_24  and  O3_26 
REMARK   11  A    between atoms: C25_33  and  O4_34 
ROOT
HETATM    1  C9  UNL     1      10.189  -5.411  42.477  1.00  0.00     0.134 C 
HETATM    2  C10 UNL     1       9.196  -6.414  43.007  1.00  0.00     0.030 C 
HETATM    3  C11 UNL     1       7.796  -5.882  42.972  1.00  0.00     0.012 C 
HETATM    4  C12 UNL     1       7.435  -5.358  41.572  1.00  0.00    -0.029 C 
HETATM    5  C13 UNL     1       7.750  -6.570  40.675  1.00  0.00     0.016 C 
HETATM    6  C14 UNL     1       5.975  -5.168  41.535  1.00  0.00     0.002 C 
HETATM    7  C15 UNL     1       5.276  -5.954  40.416  1.00  0.00     0.008 C 
HETATM    8  C16 UNL     1       3.775  -5.871  40.632  1.00  0.00     0.035 C 
HETATM    9  C17 UNL     1       3.258  -4.488  40.746  1.00  0.00     0.152 C 
HETATM   10  C18 UNL     1       4.048  -3.613  41.688  1.00  0.00     0.084 C 
HETATM   11  C19 UNL     1       3.732  -3.872  43.126  1.00  0.00     0.049 C 
HETATM   12  C20 UNL     1       5.493  -3.757  41.353  1.00  0.00     0.027 C 
HETATM   13  C21 UNL     1       6.391  -2.817  42.111  1.00  0.00     0.009 C 
HETATM   14  C22 UNL     1       7.688  -2.853  41.329  1.00  0.00     0.015 C 
HETATM   15  C23 UNL     1       8.314  -4.212  41.281  1.00  0.00     0.011 C 
HETATM   16  C24 UNL     1       8.843  -4.374  39.845  1.00  0.00     0.020 C 
HETATM   17  C25 UNL     1       9.555  -4.118  42.150  1.00  0.00     0.162 C 
HETATM   18 CL1  UNL     1       9.239  -3.112  43.609  1.00  0.00    -0.085 Cl
ENDROOT
BRANCH   1  19
HETATM   19  N1  UNL     1      11.168  -5.187  43.523  1.00  0.00    -0.366 N 
HETATM   20  C8  UNL     1      12.406  -5.495  43.405  1.00  0.00     0.111 C 
ATOM     21  H1  UNL     1      10.855  -4.763  44.397  1.00  0.00     0.161 HD
BRANCH  20  22
HETATM   22  C7  UNL     1      13.371  -5.251  44.493  1.00  0.00     0.083 C 
BRANCH  22  23
HETATM   23  C6  UNL     1      14.758  -5.781  44.138  1.00  0.00     0.008 C 
BRANCH  23  24
HETATM   24  C5  UNL     1      15.806  -5.092  44.950  1.00  0.00     0.000 C 
BRANCH  24  25
HETATM   25  C4  UNL     1      16.181  -5.908  46.151  1.00  0.00     0.000 C 
BRANCH  25  26
HETATM   26  C3  UNL     1      16.031  -7.369  45.854  1.00  0.00    -0.000 C 
BRANCH  26  27
HETATM   27  C2  UNL     1      15.399  -8.038  47.081  1.00  0.00    -0.005 C 
HETATM   28  C1  UNL     1      13.921  -7.763  47.019  1.00  0.00     0.005 C 
ENDBRANCH  26  27
ENDBRANCH  25  26
ENDBRANCH  24  25
ENDBRANCH  23  24
ENDBRANCH  22  23
ENDBRANCH  20  22
BRANCH  20  29
HETATM   29  O1  UNL     1      12.845  -6.069  42.230  1.00  0.00    -0.350 OA
ATOM     30  H1  UNL     1      13.433  -5.582  41.665  1.00  0.00     0.219 HD
ENDBRANCH  20  29
ENDBRANCH   1  19
BRANCH  17  31
HETATM   31  O4  UNL     1      10.495  -3.367  41.401  1.00  0.00    -0.372 OA
ATOM     32  H4  UNL     1      11.149  -3.975  41.078  1.00  0.00     0.212 HD
ENDBRANCH  17  31
BRANCH  10  33
HETATM   33  O3  UNL     1       3.684  -2.282  41.407  1.00  0.00    -0.387 OA
ATOM     34  H3  UNL     1       3.443  -1.883  42.235  1.00  0.00     0.210 HD
ENDBRANCH  10  33
BRANCH   9  35
HETATM   35  O2  UNL     1       3.119  -3.886  39.482  1.00  0.00    -0.393 OA
ATOM     36  H2  UNL     1       3.060  -4.536  38.793  1.00  0.00     0.210 HD
ENDBRANCH   9  35
TORSDOF 11
ENDMDL
