MODEL 1
REMARK VINA RESULT: -7.733450042      0.000      0.000
REMARK  10 active torsions:
REMARK  status: ('A' for Active; 'I' for Inactive)
REMARK    1  A    between atoms: S1_2  and  C2_3 
REMARK    2  A    between atoms: C7_9  and  N1_10 
REMARK       I    between atoms: N1_10  and  C8_12 
REMARK       I    between atoms: C8_12  and  N4_28 
REMARK    3  A    between atoms: N2_13  and  C9_15 
REMARK    4  A    between atoms: C9_15  and  C10_16 
REMARK    5  A    between atoms: C10_16  and  C11_17 
REMARK    6  A    between atoms: C11_17  and  C12_18 
REMARK    7  A    between atoms: C12_18  and  N3_19 
REMARK       I    between atoms: N3_19  and  C13_21 
REMARK    8  A    between atoms: C13_21  and  O2_23 
REMARK    9  A    between atoms: O2_23  and  C14_24 
REMARK   10  A    between atoms: N4_28  and  C18_30 
ROOT
HETATM    1  N1  UNL     1      13.730  -5.049  43.656  1.00  0.00    -0.191 N 
ATOM      2  H1  UNL     1      14.412  -4.397  43.267  1.00  0.00     0.184 HD
HETATM    3  C8  UNL     1      12.420  -5.060  43.110  1.00  0.00     0.680 C 
HETATM    4  N2  UNL     1      11.536  -4.288  43.606  1.00  0.00    -0.226 N 
ATOM      5  H2  UNL     1      10.605  -4.321  43.191  1.00  0.00     0.177 HD
HETATM    6  N4  UNL     1      12.077  -5.922  42.017  1.00  0.00    -0.175 N 
ATOM      7  H4  UNL     1      12.124  -6.933  42.140  1.00  0.00     0.185 HD
ENDROOT
BRANCH   1   8
HETATM    8  C7  UNL     1      14.139  -5.899  44.714  1.00  0.00     0.066 A 
HETATM    9  C2  UNL     1      15.490  -6.182  44.822  1.00  0.00     0.030 A 
HETATM   10  C3  UNL     1      15.888  -7.007  45.849  1.00  0.00     0.063 A 
HETATM   11  C4  UNL     1      15.004  -7.551  46.756  1.00  0.00     0.117 A 
HETATM   12  F1  UNL     1      15.412  -8.362  47.760  1.00  0.00    -0.206 F 
HETATM   13  C5  UNL     1      13.662  -7.239  46.605  1.00  0.00     0.044 A 
HETATM   14  C6  UNL     1      13.215  -6.423  45.601  1.00  0.00     0.034 A 
BRANCH   9  15
HETATM   15  S1  UNL     1      16.686  -5.496  43.663  1.00  0.00    -0.132 SA
HETATM   16  C1  UNL     1      18.024  -4.776  44.681  1.00  0.00     0.095 C 
ENDBRANCH   9  15
ENDBRANCH   1   8
BRANCH   4  17
HETATM   17  C9  UNL     1      11.735  -3.370  44.703  1.00  0.00     0.138 C 
BRANCH  17  18
HETATM   18  C10 UNL     1      10.579  -3.513  45.650  1.00  0.00     0.022 C 
BRANCH  18  19
HETATM   19  C11 UNL     1      10.265  -2.209  46.364  1.00  0.00     0.021 C 
BRANCH  19  20
HETATM   20  C12 UNL     1       8.762  -2.142  46.529  1.00  0.00     0.125 C 
BRANCH  20  21
HETATM   21  N3  UNL     1       8.027  -2.256  45.312  1.00  0.00    -0.337 N 
HETATM   22  C13 UNL     1       6.628  -2.429  45.299  1.00  0.00     0.361 C 
HETATM   23  O1  UNL     1       5.996  -2.485  46.356  1.00  0.00    -0.238 OA
ATOM     24  H3  UNL     1       8.529  -2.211  44.425  1.00  0.00     0.164 HD
BRANCH  22  25
HETATM   25  O2  UNL     1       5.889  -2.543  44.134  1.00  0.00    -0.294 OA
BRANCH  25  26
HETATM   26  C14 UNL     1       5.562  -3.725  43.482  1.00  0.00     0.061 C 
HETATM   27  C15 UNL     1       5.962  -3.585  42.022  1.00  0.00     0.046 C 
HETATM   28  C16 UNL     1       6.257  -4.949  44.010  1.00  0.00     0.046 C 
HETATM   29  C17 UNL     1       4.069  -3.999  43.491  1.00  0.00     0.046 C 
ENDBRANCH  25  26
ENDBRANCH  22  25
ENDBRANCH  20  21
ENDBRANCH  19  20
ENDBRANCH  18  19
ENDBRANCH  17  18
ENDBRANCH   4  17
BRANCH   6  30
HETATM   30  C18 UNL     1      11.676  -5.391  40.776  1.00  0.00     0.164 C 
HETATM   31  S2  UNL     1      12.793  -5.068  39.645  1.00  0.00    -0.051 SA
HETATM   32  S3  UNL     1       9.967  -5.076  40.439  1.00  0.00    -0.020 SA
ENDBRANCH   6  30
TORSDOF 10
ENDMDL
MODEL 2
REMARK VINA RESULT: -7.672372276      1.125      1.771
REMARK  10 active torsions:
REMARK  status: ('A' for Active; 'I' for Inactive)
REMARK    1  A    between atoms: S1_2  and  C2_3 
REMARK    2  A    between atoms: C7_9  and  N1_10 
REMARK       I    between atoms: N1_10  and  C8_12 
REMARK       I    between atoms: C8_12  and  N4_28 
REMARK    3  A    between atoms: N2_13  and  C9_15 
REMARK    4  A    between atoms: C9_15  and  C10_16 
REMARK    5  A    between atoms: C10_16  and  C11_17 
REMARK    6  A    between atoms: C11_17  and  C12_18 
REMARK    7  A    between atoms: C12_18  and  N3_19 
REMARK       I    between atoms: N3_19  and  C13_21 
REMARK    8  A    between atoms: C13_21  and  O2_23 
REMARK    9  A    between atoms: O2_23  and  C14_24 
REMARK   10  A    between atoms: N4_28  and  C18_30 
ROOT
HETATM    1  N1  UNL     1      13.741  -5.070  43.645  1.00  0.00    -0.191 N 
ATOM      2  H1  UNL     1      14.409  -4.407  43.251  1.00  0.00     0.184 HD
HETATM    3  C8  UNL     1      12.426  -5.100  43.112  1.00  0.00     0.680 C 
HETATM    4  N2  UNL     1      11.535  -4.342  43.618  1.00  0.00    -0.226 N 
ATOM      5  H2  UNL     1      10.600  -4.389  43.213  1.00  0.00     0.177 HD
HETATM    6  N4  UNL     1      12.085  -5.964  42.020  1.00  0.00    -0.175 N 
ATOM      7  H4  UNL     1      12.148  -6.975  42.140  1.00  0.00     0.185 HD
ENDROOT
BRANCH   1   8
HETATM    8  C7  UNL     1      14.173  -5.916  44.696  1.00  0.00     0.066 A 
HETATM    9  C2  UNL     1      15.529  -6.178  44.791  1.00  0.00     0.030 A 
HETATM   10  C3  UNL     1      15.949  -7.000  45.812  1.00  0.00     0.063 A 
HETATM   11  C4  UNL     1      15.083  -7.561  46.726  1.00  0.00     0.117 A 
HETATM   12  F1  UNL     1      15.513  -8.368  47.724  1.00  0.00    -0.206 F 
HETATM   13  C5  UNL     1      13.734  -7.269  46.589  1.00  0.00     0.044 A 
HETATM   14  C6  UNL     1      13.266  -6.457  45.591  1.00  0.00     0.034 A 
BRANCH   9  15
HETATM   15  S1  UNL     1      16.703  -5.471  43.624  1.00  0.00    -0.132 SA
HETATM   16  C1  UNL     1      18.097  -4.838  44.625  1.00  0.00     0.095 C 
ENDBRANCH   9  15
ENDBRANCH   1   8
BRANCH   4  17
HETATM   17  C9  UNL     1      11.731  -3.424  44.716  1.00  0.00     0.138 C 
BRANCH  17  18
HETATM   18  C10 UNL     1      10.415  -3.239  45.414  1.00  0.00     0.022 C 
BRANCH  18  19
HETATM   19  C11 UNL     1       9.239  -3.439  44.473  1.00  0.00     0.021 C 
BRANCH  19  20
HETATM   20  C12 UNL     1       7.985  -3.099  45.249  1.00  0.00     0.125 C 
BRANCH  20  21
HETATM   21  N3  UNL     1       6.889  -2.671  44.444  1.00  0.00    -0.337 N 
HETATM   22  C13 UNL     1       5.838  -3.541  44.090  1.00  0.00     0.361 C 
HETATM   23  O1  UNL     1       5.842  -4.713  44.475  1.00  0.00    -0.238 OA
ATOM     24  H3  UNL     1       6.865  -1.705  44.115  1.00  0.00     0.164 HD
BRANCH  22  25
HETATM   25  O2  UNL     1       4.763  -3.154  43.309  1.00  0.00    -0.294 OA
BRANCH  25  26
HETATM   26  C14 UNL     1       3.593  -2.557  43.760  1.00  0.00     0.061 C 
HETATM   27  C15 UNL     1       2.479  -3.589  43.689  1.00  0.00     0.046 C 
HETATM   28  C16 UNL     1       3.644  -2.065  45.180  1.00  0.00     0.046 C 
HETATM   29  C17 UNL     1       3.157  -1.397  42.883  1.00  0.00     0.046 C 
ENDBRANCH  25  26
ENDBRANCH  22  25
ENDBRANCH  20  21
ENDBRANCH  19  20
ENDBRANCH  18  19
ENDBRANCH  17  18
ENDBRANCH   4  17
BRANCH   6  30
HETATM   30  C18 UNL     1      11.664  -5.436  40.784  1.00  0.00     0.164 C 
HETATM   31  S2  UNL     1      10.084  -5.177  40.522  1.00  0.00    -0.051 SA
HETATM   32  S3  UNL     1      12.839  -5.051  39.519  1.00  0.00    -0.020 SA
ENDBRANCH   6  30
TORSDOF 10
ENDMDL
MODEL 3
REMARK VINA RESULT: -7.498677568      3.894      8.258
REMARK  10 active torsions:
REMARK  status: ('A' for Active; 'I' for Inactive)
REMARK    1  A    between atoms: S1_2  and  C2_3 
REMARK    2  A    between atoms: C7_9  and  N1_10 
REMARK       I    between atoms: N1_10  and  C8_12 
REMARK       I    between atoms: C8_12  and  N4_28 
REMARK    3  A    between atoms: N2_13  and  C9_15 
REMARK    4  A    between atoms: C9_15  and  C10_16 
REMARK    5  A    between atoms: C10_16  and  C11_17 
REMARK    6  A    between atoms: C11_17  and  C12_18 
REMARK    7  A    between atoms: C12_18  and  N3_19 
REMARK       I    between atoms: N3_19  and  C13_21 
REMARK    8  A    between atoms: C13_21  and  O2_23 
REMARK    9  A    between atoms: O2_23  and  C14_24 
REMARK   10  A    between atoms: N4_28  and  C18_30 
ROOT
HETATM    1  N1  UNL     1      10.795  -5.087  43.692  1.00  0.00    -0.191 N 
ATOM      2  H1  UNL     1      10.101  -5.729  43.309  1.00  0.00     0.184 HD
HETATM    3  C8  UNL     1      12.168  -5.367  43.468  1.00  0.00     0.680 C 
HETATM    4  N2  UNL     1      12.797  -6.092  44.306  1.00  0.00    -0.226 N 
ATOM      5  H2  UNL     1      13.783  -6.273  44.116  1.00  0.00     0.177 HD
HETATM    6  N4  UNL     1      12.855  -4.849  42.322  1.00  0.00    -0.175 N 
ATOM      7  H4  UNL     1      12.957  -3.840  42.209  1.00  0.00     0.185 HD
ENDROOT
BRANCH   1   8
HETATM    8  C7  UNL     1      10.340  -3.960  44.420  1.00  0.00     0.066 A 
HETATM    9  C2  UNL     1       9.007  -3.607  44.287  1.00  0.00     0.030 A 
HETATM   10  C3  UNL     1       8.565  -2.512  44.994  1.00  0.00     0.063 A 
HETATM   11  C4  UNL     1       9.387  -1.770  45.815  1.00  0.00     0.117 A 
HETATM   12  F1  UNL     1       8.935  -0.695  46.503  1.00  0.00    -0.206 F 
HETATM   13  C5  UNL     1      10.712  -2.163  45.915  1.00  0.00     0.044 A 
HETATM   14  C6  UNL     1      11.202  -3.244  45.233  1.00  0.00     0.034 A 
BRANCH   9  15
HETATM   15  S1  UNL     1       7.892  -4.544  43.228  1.00  0.00    -0.132 SA
HETATM   16  C1  UNL     1       6.295  -4.624  44.118  1.00  0.00     0.095 C 
ENDBRANCH   9  15
ENDBRANCH   1   8
BRANCH   4  17
HETATM   17  C9  UNL     1      12.239  -6.680  45.501  1.00  0.00     0.138 C 
BRANCH  17  18
HETATM   18  C10 UNL     1      13.284  -6.635  46.579  1.00  0.00     0.022 C 
BRANCH  18  19
HETATM   19  C11 UNL     1      14.102  -7.914  46.631  1.00  0.00     0.021 C 
BRANCH  19  20
HETATM   20  C12 UNL     1      15.560  -7.510  46.621  1.00  0.00     0.125 C 
BRANCH  20  21
HETATM   21  N3  UNL     1      15.992  -6.878  45.418  1.00  0.00    -0.337 N 
HETATM   22  C13 UNL     1      16.538  -5.578  45.413  1.00  0.00     0.361 C 
HETATM   23  O1  UNL     1      16.659  -4.948  46.466  1.00  0.00    -0.238 OA
ATOM     24  H3  UNL     1      15.902  -7.381  44.535  1.00  0.00     0.164 HD
BRANCH  22  25
HETATM   25  O2  UNL     1      16.964  -4.939  44.262  1.00  0.00    -0.294 OA
BRANCH  25  26
HETATM   26  C14 UNL     1      18.245  -4.978  43.726  1.00  0.00     0.061 C 
HETATM   27  C15 UNL     1      18.224  -4.239  42.398  1.00  0.00     0.046 C 
HETATM   28  C16 UNL     1      19.301  -4.325  44.573  1.00  0.00     0.046 C 
HETATM   29  C17 UNL     1      18.704  -6.392  43.420  1.00  0.00     0.046 C 
ENDBRANCH  25  26
ENDBRANCH  22  25
ENDBRANCH  20  21
ENDBRANCH  19  20
ENDBRANCH  18  19
ENDBRANCH  17  18
ENDBRANCH   4  17
BRANCH   6  30
HETATM   30  C18 UNL     1      13.392  -5.713  41.348  1.00  0.00     0.164 C 
HETATM   31  S2  UNL     1      14.939  -6.189  41.467  1.00  0.00    -0.051 SA
HETATM   32  S3  UNL     1      12.397  -6.287  40.002  1.00  0.00    -0.020 SA
ENDBRANCH   6  30
TORSDOF 10
ENDMDL
MODEL 4
REMARK VINA RESULT: -7.443707306      3.966      8.387
REMARK  10 active torsions:
REMARK  status: ('A' for Active; 'I' for Inactive)
REMARK    1  A    between atoms: S1_2  and  C2_3 
REMARK    2  A    between atoms: C7_9  and  N1_10 
REMARK       I    between atoms: N1_10  and  C8_12 
REMARK       I    between atoms: C8_12  and  N4_28 
REMARK    3  A    between atoms: N2_13  and  C9_15 
REMARK    4  A    between atoms: C9_15  and  C10_16 
REMARK    5  A    between atoms: C10_16  and  C11_17 
REMARK    6  A    between atoms: C11_17  and  C12_18 
REMARK    7  A    between atoms: C12_18  and  N3_19 
REMARK       I    between atoms: N3_19  and  C13_21 
REMARK    8  A    between atoms: C13_21  and  O2_23 
REMARK    9  A    between atoms: O2_23  and  C14_24 
REMARK   10  A    between atoms: N4_28  and  C18_30 
ROOT
HETATM    1  N1  UNL     1       9.537  -4.616  43.296  1.00  0.00    -0.191 N 
ATOM      2  H1  UNL     1       8.798  -5.298  43.126  1.00  0.00     0.184 HD
HETATM    3  C8  UNL     1      10.781  -4.789  42.635  1.00  0.00     0.680 C 
HETATM    4  N2  UNL     1      11.689  -5.485  43.196  1.00  0.00    -0.226 N 
ATOM      5  H2  UNL     1      12.571  -5.589  42.694  1.00  0.00     0.177 HD
HETATM    6  N4  UNL     1      11.031  -4.196  41.354  1.00  0.00    -0.175 N 
ATOM      7  H4  UNL     1      11.028  -3.181  41.260  1.00  0.00     0.185 HD
ENDROOT
BRANCH   1   8
HETATM    8  C7  UNL     1       9.270  -3.542  44.181  1.00  0.00     0.066 A 
HETATM    9  C2  UNL     1       7.992  -3.007  44.173  1.00  0.00     0.030 A 
HETATM   10  C3  UNL     1       7.733  -1.964  45.032  1.00  0.00     0.063 A 
HETATM   11  C4  UNL     1       8.682  -1.443  45.884  1.00  0.00     0.117 A 
HETATM   12  F1  UNL     1       8.410  -0.415  46.722  1.00  0.00    -0.206 F 
HETATM   13  C5  UNL     1       9.947  -2.011  45.855  1.00  0.00     0.044 A 
HETATM   14  C6  UNL     1      10.256  -3.050  45.019  1.00  0.00     0.034 A 
BRANCH   9  15
HETATM   15  S1  UNL     1       6.715  -3.652  43.080  1.00  0.00    -0.132 SA
HETATM   16  C1  UNL     1       5.402  -4.315  44.168  1.00  0.00     0.095 C 
ENDBRANCH   9  15
ENDBRANCH   1   8
BRANCH   4  17
HETATM   17  C9  UNL     1      11.580  -6.139  44.479  1.00  0.00     0.138 C 
BRANCH  17  18
HETATM   18  C10 UNL     1      12.822  -5.836  45.267  1.00  0.00     0.022 C 
BRANCH  18  19
HETATM   19  C11 UNL     1      13.179  -6.963  46.221  1.00  0.00     0.021 C 
BRANCH  19  20
HETATM   20  C12 UNL     1      14.688  -7.079  46.229  1.00  0.00     0.125 C 
BRANCH  20  21
HETATM   21  N3  UNL     1      15.342  -6.364  45.183  1.00  0.00    -0.337 N 
HETATM   22  C13 UNL     1      16.315  -5.378  45.448  1.00  0.00     0.361 C 
HETATM   23  O1  UNL     1      16.629  -5.108  46.609  1.00  0.00    -0.238 OA
ATOM     24  H3  UNL     1      15.098  -6.571  44.214  1.00  0.00     0.164 HD
BRANCH  22  25
HETATM   25  O2  UNL     1      16.964  -4.668  44.454  1.00  0.00    -0.294 OA
BRANCH  25  26
HETATM   26  C14 UNL     1      18.141  -5.037  43.815  1.00  0.00     0.061 C 
HETATM   27  C15 UNL     1      18.141  -4.415  42.428  1.00  0.00     0.046 C 
HETATM   28  C16 UNL     1      19.399  -4.581  44.499  1.00  0.00     0.046 C 
HETATM   29  C17 UNL     1      18.243  -6.538  43.609  1.00  0.00     0.046 C 
ENDBRANCH  25  26
ENDBRANCH  22  25
ENDBRANCH  20  21
ENDBRANCH  19  20
ENDBRANCH  18  19
ENDBRANCH  17  18
ENDBRANCH   4  17
BRANCH   6  30
HETATM   30  C18 UNL     1      11.280  -4.997  40.223  1.00  0.00     0.164 C 
HETATM   31  S2  UNL     1      10.060  -5.818  39.539  1.00  0.00    -0.051 SA
HETATM   32  S3  UNL     1      12.909  -5.114  39.540  1.00  0.00    -0.020 SA
ENDBRANCH   6  30
TORSDOF 10
ENDMDL
MODEL 5
REMARK VINA RESULT: -7.357804487      4.339      9.136
REMARK  10 active torsions:
REMARK  status: ('A' for Active; 'I' for Inactive)
REMARK    1  A    between atoms: S1_2  and  C2_3 
REMARK    2  A    between atoms: C7_9  and  N1_10 
REMARK       I    between atoms: N1_10  and  C8_12 
REMARK       I    between atoms: C8_12  and  N4_28 
REMARK    3  A    between atoms: N2_13  and  C9_15 
REMARK    4  A    between atoms: C9_15  and  C10_16 
REMARK    5  A    between atoms: C10_16  and  C11_17 
REMARK    6  A    between atoms: C11_17  and  C12_18 
REMARK    7  A    between atoms: C12_18  and  N3_19 
REMARK       I    between atoms: N3_19  and  C13_21 
REMARK    8  A    between atoms: C13_21  and  O2_23 
REMARK    9  A    between atoms: O2_23  and  C14_24 
REMARK   10  A    between atoms: N4_28  and  C18_30 
ROOT
HETATM    1  N1  UNL     1       6.056  -5.024  43.240  1.00  0.00    -0.191 N 
ATOM      2  H1  UNL     1       5.760  -5.921  43.625  1.00  0.00     0.184 HD
HETATM    3  C8  UNL     1       6.877  -5.023  42.083  1.00  0.00     0.680 C 
HETATM    4  N2  UNL     1       8.143  -5.055  42.222  1.00  0.00    -0.226 N 
ATOM      5  H2  UNL     1       8.704  -5.053  41.370  1.00  0.00     0.177 HD
HETATM    6  N4  UNL     1       6.308  -4.986  40.768  1.00  0.00    -0.175 N 
ATOM      7  H4  UNL     1       5.759  -4.177  40.479  1.00  0.00     0.185 HD
ENDROOT
BRANCH   1   8
HETATM    8  C7  UNL     1       5.626  -3.839  43.888  1.00  0.00     0.066 A 
HETATM    9  C2  UNL     1       4.346  -3.387  43.612  1.00  0.00     0.030 A 
HETATM   10  C3  UNL     1       3.927  -2.237  44.241  1.00  0.00     0.063 A 
HETATM   11  C4  UNL     1       4.722  -1.532  45.119  1.00  0.00     0.117 A 
HETATM   12  F1  UNL     1       4.295  -0.401  45.728  1.00  0.00    -0.206 F 
HETATM   13  C5  UNL     1       5.996  -2.024  45.362  1.00  0.00     0.044 A 
HETATM   14  C6  UNL     1       6.460  -3.164  44.763  1.00  0.00     0.034 A 
BRANCH   9  15
HETATM   15  S1  UNL     1       3.266  -4.271  42.474  1.00  0.00    -0.132 SA
HETATM   16  C1  UNL     1       1.555  -3.892  42.998  1.00  0.00     0.095 C 
ENDBRANCH   9  15
ENDBRANCH   1   8
BRANCH   4  17
HETATM   17  C9  UNL     1       8.855  -5.094  43.478  1.00  0.00     0.138 C 
BRANCH  17  18
HETATM   18  C10 UNL     1       9.800  -3.927  43.519  1.00  0.00     0.022 C 
BRANCH  18  19
HETATM   19  C11 UNL     1      10.730  -3.907  42.318  1.00  0.00     0.021 C 
BRANCH  19  20
HETATM   20  C12 UNL     1      11.697  -5.060  42.485  1.00  0.00     0.125 C 
BRANCH  20  21
HETATM   21  N3  UNL     1      12.881  -4.738  43.211  1.00  0.00    -0.337 N 
HETATM   22  C13 UNL     1      13.224  -5.397  44.410  1.00  0.00     0.361 C 
HETATM   23  O1  UNL     1      12.495  -6.282  44.866  1.00  0.00    -0.238 OA
ATOM     24  H3  UNL     1      13.499  -4.010  42.853  1.00  0.00     0.164 HD
BRANCH  22  25
HETATM   25  O2  UNL     1      14.365  -5.105  45.137  1.00  0.00    -0.294 OA
BRANCH  25  26
HETATM   26  C14 UNL     1      15.590  -5.751  45.037  1.00  0.00     0.061 C 
HETATM   27  C15 UNL     1      15.575  -6.941  45.983  1.00  0.00     0.046 C 
HETATM   28  C16 UNL     1      15.911  -6.284  43.669  1.00  0.00     0.046 C 
HETATM   29  C17 UNL     1      16.747  -4.872  45.475  1.00  0.00     0.046 C 
ENDBRANCH  25  26
ENDBRANCH  22  25
ENDBRANCH  20  21
ENDBRANCH  19  20
ENDBRANCH  18  19
ENDBRANCH  17  18
ENDBRANCH   4  17
BRANCH   6  30
HETATM   30  C18 UNL     1       6.498  -6.053  39.868  1.00  0.00     0.164 C 
HETATM   31  S2  UNL     1       5.291  -7.105  39.608  1.00  0.00    -0.051 SA
HETATM   32  S3  UNL     1       8.037  -6.254  39.017  1.00  0.00    -0.020 SA
ENDBRANCH   6  30
TORSDOF 10
ENDMDL
