MODEL 1
REMARK VINA RESULT: -6.050930419      0.000      0.000
REMARK  9 active torsions:
REMARK  status: ('A' for Active; 'I' for Inactive)
REMARK    1  A    between atoms: C2_2  and  C3_3 
REMARK    2  A    between atoms: C3_3  and  C4_4 
REMARK    3  A    between atoms: C4_4  and  C5_5 
REMARK    4  A    between atoms: C5_5  and  C6_6 
REMARK    5  A    between atoms: C6_6  and  N1_7 
REMARK       I    between atoms: N1_7  and  C7_9 
REMARK    6  A    between atoms: C7_9  and  C8_11 
REMARK    7  A    between atoms: C12_17  and  O4_18 
REMARK    8  A    between atoms: O4_18  and  C13_19 
REMARK    9  A    between atoms: C20_27  and  O6_29 
ROOT
HETATM    1  C8  UNL     1       9.478 -27.981  -7.618  1.00  0.00     0.233 C 
HETATM    2  O2  UNL     1       9.898 -26.589  -7.904  1.00  0.00    -0.305 OA
HETATM    3  C9  UNL     1      10.503 -26.184  -9.099  1.00  0.00     0.264 C 
HETATM    4  O3  UNL     1      11.019 -25.055  -9.188  1.00  0.00    -0.265 OA
HETATM    5  C10 UNL     1      10.523 -27.152 -10.309  1.00  0.00     0.101 C 
HETATM    6  C11 UNL     1      11.826 -27.516 -10.751  1.00  0.00     0.049 C 
HETATM    7  C12 UNL     1      11.670 -28.566 -11.869  1.00  0.00     0.142 C 
HETATM    8  C15 UNL     1      10.617 -29.602 -11.780  1.00  0.00     0.003 C 
HETATM    9  C16 UNL     1      11.386 -30.882 -12.262  1.00  0.00     0.019 C 
HETATM   10  C17 UNL     1      10.051 -30.047 -10.535  1.00  0.00     0.007 C 
HETATM   11  C18 UNL     1       8.901 -29.306 -10.040  1.00  0.00     0.021 C 
HETATM   12  C19 UNL     1       9.554 -28.061  -9.803  1.00  0.00     0.021 C 
HETATM   13  C20 UNL     1       8.404 -27.355 -10.244  1.00  0.00     0.124 C 
HETATM   14  C21 UNL     1       7.012 -27.557  -9.713  1.00  0.00     0.055 C 
HETATM   15  C22 UNL     1       8.364 -27.580 -11.747  1.00  0.00     0.174 C 
HETATM   16  O7  UNL     1       8.123 -26.537 -12.320  1.00  0.00    -0.293 OA
HETATM   17  C23 UNL     1       8.494 -28.545 -12.859  1.00  0.00     0.053 C 
HETATM   18  C24 UNL     1       7.075 -29.298 -12.800  1.00  0.00     0.029 C 
HETATM   19  C25 UNL     1       8.156 -27.998 -14.200  1.00  0.00    -0.004 C 
HETATM   20  C26 UNL     1       8.193 -28.887 -15.193  1.00  0.00     0.056 C 
HETATM   21  C27 UNL     1       8.596 -30.292 -14.979  1.00  0.00     0.218 C 
HETATM   22  O8  UNL     1       8.588 -31.176 -15.881  1.00  0.00    -0.284 OA
HETATM   23  C28 UNL     1       9.023 -30.639 -13.564  1.00  0.00     0.209 C 
HETATM   24  O9  UNL     1       8.860 -31.724 -13.087  1.00  0.00    -0.288 OA
HETATM   25  C29 UNL     1       9.654 -29.385 -12.969  1.00  0.00     0.053 C 
HETATM   26  C30 UNL     1      10.647 -29.025 -14.088  1.00  0.00     0.026 C 
HETATM   27  C31 UNL     1      10.294 -28.595  -8.623  1.00  0.00     0.011 C 
HETATM   28  C32 UNL     1      11.531 -28.366  -7.976  1.00  0.00     0.020 C 
HETATM   29  C33 UNL     1      10.574 -29.982  -9.137  1.00  0.00    -0.032 C 
HETATM   30  C34 UNL     1      11.910 -30.572  -9.090  1.00  0.00     0.016 C 
HETATM   31  C35 UNL     1       9.805 -31.076  -8.351  1.00  0.00     0.016 C 
ENDROOT
BRANCH   1  32
HETATM   32  C7  UNL     1       9.702 -27.990  -6.153  1.00  0.00     0.251 C 
HETATM   33  N1  UNL     1      10.103 -26.855  -5.352  1.00  0.00    -0.339 N 
ATOM     34  H1  UNL     1      10.218 -25.969  -5.844  1.00  0.00     0.167 HD
HETATM   35  O1  UNL     1       9.589 -29.003  -5.388  1.00  0.00    -0.270 OA
BRANCH  33  36
HETATM   36  C6  UNL     1      10.352 -26.841  -3.973  1.00  0.00     0.064 C 
BRANCH  36  37
HETATM   37  C5  UNL     1      11.123 -25.777  -3.318  1.00  0.00     0.044 C 
BRANCH  37  38
HETATM   38  C4  UNL     1      12.234 -26.144  -2.413  1.00  0.00     0.005 C 
BRANCH  38  39
HETATM   39  C3  UNL     1      13.512 -25.390  -2.566  1.00  0.00     0.000 C 
BRANCH  39  40
HETATM   40  C2  UNL     1      13.767 -24.984  -4.007  1.00  0.00    -0.005 C 
HETATM   41  C1  UNL     1      14.933 -25.793  -4.577  1.00  0.00     0.005 C 
ENDBRANCH  39  40
ENDBRANCH  38  39
ENDBRANCH  37  38
ENDBRANCH  36  37
ENDBRANCH  33  36
ENDBRANCH   1  32
BRANCH  13  42
HETATM   42  O6  UNL     1       8.397 -25.923 -10.231  1.00  0.00    -0.382 OA
ATOM     43  H6  UNL     1       7.709 -25.449 -10.683  1.00  0.00     0.211 HD
ENDBRANCH  13  42
BRANCH   7  44
HETATM   44  O4  UNL     1      13.024 -28.985 -11.926  1.00  0.00    -0.315 OA
BRANCH  44  45
HETATM   45  C13 UNL     1      14.050 -28.314 -12.497  1.00  0.00     0.255 C 
HETATM   46  C14 UNL     1      14.109 -28.105 -13.950  1.00  0.00     0.126 C 
HETATM   47  O5  UNL     1      14.960 -27.867 -11.783  1.00  0.00    -0.266 OA
ENDBRANCH  44  45
ENDBRANCH   7  44
TORSDOF 9
ENDMDL
MODEL 2
REMARK VINA RESULT: -5.656634424      3.187      6.643
REMARK  9 active torsions:
REMARK  status: ('A' for Active; 'I' for Inactive)
REMARK    1  A    between atoms: C2_2  and  C3_3 
REMARK    2  A    between atoms: C3_3  and  C4_4 
REMARK    3  A    between atoms: C4_4  and  C5_5 
REMARK    4  A    between atoms: C5_5  and  C6_6 
REMARK    5  A    between atoms: C6_6  and  N1_7 
REMARK       I    between atoms: N1_7  and  C7_9 
REMARK    6  A    between atoms: C7_9  and  C8_11 
REMARK    7  A    between atoms: C12_17  and  O4_18 
REMARK    8  A    between atoms: O4_18  and  C13_19 
REMARK    9  A    between atoms: C20_27  and  O6_29 
ROOT
HETATM    1  C8  UNL     1      12.897 -27.770 -11.382  1.00  0.00     0.233 C 
HETATM    2  O2  UNL     1      13.038 -26.428 -10.768  1.00  0.00    -0.305 OA
HETATM    3  C9  UNL     1      11.964 -25.573 -10.499  1.00  0.00     0.264 C 
HETATM    4  O3  UNL     1      12.172 -24.387 -10.183  1.00  0.00    -0.265 OA
HETATM    5  C10 UNL     1      10.516 -26.116 -10.597  1.00  0.00     0.101 C 
HETATM    6  C11 UNL     1       9.706 -25.461 -11.568  1.00  0.00     0.049 C 
HETATM    7  C12 UNL     1       8.350 -26.194 -11.623  1.00  0.00     0.142 C 
HETATM    8  C15 UNL     1       8.290 -27.667 -11.501  1.00  0.00     0.003 C 
HETATM    9  C16 UNL     1       7.234 -28.037 -12.601  1.00  0.00     0.019 C 
HETATM   10  C17 UNL     1       9.388 -28.532 -11.840  1.00  0.00     0.007 C 
HETATM   11  C18 UNL     1      10.346 -28.814 -10.783  1.00  0.00     0.021 C 
HETATM   12  C19 UNL     1      10.862 -27.494 -10.626  1.00  0.00     0.021 C 
HETATM   13  C20 UNL     1      10.957 -27.681  -9.221  1.00  0.00     0.124 C 
HETATM   14  C21 UNL     1      11.666 -28.822  -8.548  1.00  0.00     0.055 C 
HETATM   15  C22 UNL     1       9.516 -27.678  -8.733  1.00  0.00     0.174 C 
HETATM   16  O7  UNL     1       9.415 -26.995  -7.734  1.00  0.00    -0.293 OA
HETATM   17  C23 UNL     1       8.135 -28.158  -8.947  1.00  0.00     0.053 C 
HETATM   18  C24 UNL     1       8.227 -29.662  -8.388  1.00  0.00     0.029 C 
HETATM   19  C25 UNL     1       7.179 -27.805  -7.863  1.00  0.00    -0.004 C 
HETATM   20  C26 UNL     1       5.953 -28.306  -8.013  1.00  0.00     0.056 C 
HETATM   21  C27 UNL     1       5.565 -29.101  -9.196  1.00  0.00     0.218 C 
HETATM   22  O8  UNL     1       4.433 -29.641  -9.347  1.00  0.00    -0.284 OA
HETATM   23  C28 UNL     1       6.640 -29.257 -10.257  1.00  0.00     0.209 C 
HETATM   24  O9  UNL     1       6.726 -30.227 -10.953  1.00  0.00    -0.288 OA
HETATM   25  C29 UNL     1       7.489 -27.992 -10.219  1.00  0.00     0.053 C 
HETATM   26  C30 UNL     1       6.386 -26.923 -10.285  1.00  0.00     0.026 C 
HETATM   27  C31 UNL     1      11.590 -27.549 -11.927  1.00  0.00     0.011 C 
HETATM   28  C32 UNL     1      11.996 -26.644 -12.935  1.00  0.00     0.020 C 
HETATM   29  C33 UNL     1      10.572 -28.318 -12.726  1.00  0.00    -0.032 C 
HETATM   30  C34 UNL     1      10.121 -27.873 -14.042  1.00  0.00     0.016 C 
HETATM   31  C35 UNL     1      11.065 -29.737 -13.114  1.00  0.00     0.016 C 
ENDROOT
BRANCH   1  32
HETATM   32  C7  UNL     1      14.180 -27.817 -12.122  1.00  0.00     0.251 C 
HETATM   33  N1  UNL     1      14.373 -28.372 -13.443  1.00  0.00    -0.339 N 
ATOM     34  H1  UNL     1      13.544 -28.741 -13.908  1.00  0.00     0.167 HD
HETATM   35  O1  UNL     1      15.302 -27.389 -11.696  1.00  0.00    -0.270 OA
BRANCH  33  36
HETATM   36  C6  UNL     1      15.578 -28.457 -14.154  1.00  0.00     0.064 C 
BRANCH  36  37
HETATM   37  C5  UNL     1      15.948 -27.499 -15.204  1.00  0.00     0.044 C 
BRANCH  37  38
HETATM   38  C4  UNL     1      17.067 -26.562 -14.965  1.00  0.00     0.005 C 
BRANCH  38  39
HETATM   39  C3  UNL     1      18.000 -26.888 -13.848  1.00  0.00     0.000 C 
BRANCH  39  40
HETATM   40  C2  UNL     1      19.022 -25.789 -13.618  1.00  0.00    -0.005 C 
HETATM   41  C1  UNL     1      20.320 -26.122 -14.355  1.00  0.00     0.005 C 
ENDBRANCH  39  40
ENDBRANCH  38  39
ENDBRANCH  37  38
ENDBRANCH  36  37
ENDBRANCH  33  36
ENDBRANCH   1  32
BRANCH  13  42
HETATM   42  O6  UNL     1      11.475 -26.632  -8.396  1.00  0.00    -0.382 OA
ATOM     43  H6  UNL     1      11.316 -25.724  -8.628  1.00  0.00     0.211 HD
ENDBRANCH  13  42
BRANCH   7  44
HETATM   44  O4  UNL     1       7.860 -25.595 -12.813  1.00  0.00    -0.315 OA
BRANCH  44  45
HETATM   45  C13 UNL     1       7.326 -24.359 -12.931  1.00  0.00     0.255 C 
HETATM   46  C14 UNL     1       7.800 -23.419 -13.955  1.00  0.00     0.126 C 
HETATM   47  O5  UNL     1       6.418 -24.010 -12.161  1.00  0.00    -0.266 OA
ENDBRANCH  44  45
ENDBRANCH   7  44
TORSDOF 9
ENDMDL
MODEL 3
REMARK VINA RESULT: -5.541033446      1.390      1.599
REMARK  9 active torsions:
REMARK  status: ('A' for Active; 'I' for Inactive)
REMARK    1  A    between atoms: C2_2  and  C3_3 
REMARK    2  A    between atoms: C3_3  and  C4_4 
REMARK    3  A    between atoms: C4_4  and  C5_5 
REMARK    4  A    between atoms: C5_5  and  C6_6 
REMARK    5  A    between atoms: C6_6  and  N1_7 
REMARK       I    between atoms: N1_7  and  C7_9 
REMARK    6  A    between atoms: C7_9  and  C8_11 
REMARK    7  A    between atoms: C12_17  and  O4_18 
REMARK    8  A    between atoms: O4_18  and  C13_19 
REMARK    9  A    between atoms: C20_27  and  O6_29 
ROOT
HETATM    1  C8  UNL     1      10.154 -27.616  -8.481  1.00  0.00     0.233 C 
HETATM    2  O2  UNL     1      10.701 -26.330  -8.975  1.00  0.00    -0.305 OA
HETATM    3  C9  UNL     1      10.980 -26.063 -10.319  1.00  0.00     0.264 C 
HETATM    4  O3  UNL     1      11.632 -25.050 -10.634  1.00  0.00    -0.265 OA
HETATM    5  C10 UNL     1      10.471 -27.037 -11.412  1.00  0.00     0.101 C 
HETATM    6  C11 UNL     1      11.500 -27.642 -12.187  1.00  0.00     0.049 C 
HETATM    7  C12 UNL     1      10.839 -28.664 -13.135  1.00  0.00     0.142 C 
HETATM    8  C15 UNL     1       9.700 -29.487 -12.670  1.00  0.00     0.003 C 
HETATM    9  C16 UNL     1      10.059 -30.894 -13.265  1.00  0.00     0.019 C 
HETATM   10  C17 UNL     1       9.465 -29.799 -11.286  1.00  0.00     0.007 C 
HETATM   11  C18 UNL     1       8.661 -28.851 -10.531  1.00  0.00     0.021 C 
HETATM   12  C19 UNL     1       9.558 -27.744 -10.583  1.00  0.00     0.021 C 
HETATM   13  C20 UNL     1       8.467 -26.845 -10.718  1.00  0.00     0.124 C 
HETATM   14  C21 UNL     1       7.285 -26.779  -9.792  1.00  0.00     0.055 C 
HETATM   15  C22 UNL     1       7.941 -27.084 -12.125  1.00  0.00     0.174 C 
HETATM   16  O7  UNL     1       7.722 -26.023 -12.674  1.00  0.00    -0.293 OA
HETATM   17  C23 UNL     1       7.565 -28.074 -13.155  1.00  0.00     0.053 C 
HETATM   18  C24 UNL     1       6.123 -28.552 -12.632  1.00  0.00     0.029 C 
HETATM   19  C25 UNL     1       6.940 -27.496 -14.375  1.00  0.00    -0.004 C 
HETATM   20  C26 UNL     1       6.526 -28.393 -15.270  1.00  0.00     0.056 C 
HETATM   21  C27 UNL     1       6.728 -29.844 -15.084  1.00  0.00     0.218 C 
HETATM   22  O8  UNL     1       6.299 -30.726 -15.880  1.00  0.00    -0.284 OA
HETATM   23  C28 UNL     1       7.493 -30.241 -13.835  1.00  0.00     0.209 C 
HETATM   24  O9  UNL     1       7.296 -31.270 -13.255  1.00  0.00    -0.288 OA
HETATM   25  C29 UNL     1       8.477 -29.115 -13.539  1.00  0.00     0.053 C 
HETATM   26  C30 UNL     1       9.136 -28.963 -14.921  1.00  0.00     0.026 C 
HETATM   27  C31 UNL     1      10.514 -28.386  -9.635  1.00  0.00     0.011 C 
HETATM   28  C32 UNL     1      11.909 -28.379  -9.394  1.00  0.00     0.020 C 
HETATM   29  C33 UNL     1      10.386 -29.809 -10.110  1.00  0.00    -0.032 C 
HETATM   30  C34 UNL     1      11.553 -30.635 -10.412  1.00  0.00     0.016 C 
HETATM   31  C35 UNL     1       9.713 -30.730  -9.059  1.00  0.00     0.016 C 
ENDROOT
BRANCH   1  32
HETATM   32  C7  UNL     1      10.802 -27.643  -7.149  1.00  0.00     0.251 C 
HETATM   33  N1  UNL     1      11.600 -26.582  -6.576  1.00  0.00    -0.339 N 
ATOM     34  H1  UNL     1      11.704 -25.737  -7.136  1.00  0.00     0.167 HD
HETATM   35  O1  UNL     1      10.762 -28.610  -6.320  1.00  0.00    -0.270 OA
BRANCH  33  36
HETATM   36  C6  UNL     1      12.249 -26.591  -5.333  1.00  0.00     0.064 C 
BRANCH  36  37
HETATM   37  C5  UNL     1      11.715 -25.895  -4.156  1.00  0.00     0.044 C 
BRANCH  37  38
HETATM   38  C4  UNL     1      12.230 -26.244  -2.815  1.00  0.00     0.005 C 
BRANCH  38  39
HETATM   39  C3  UNL     1      12.980 -25.187  -2.078  1.00  0.00     0.000 C 
BRANCH  39  40
HETATM   40  C2  UNL     1      14.253 -24.781  -2.799  1.00  0.00    -0.005 C 
HETATM   41  C1  UNL     1      14.881 -23.571  -2.107  1.00  0.00     0.005 C 
ENDBRANCH  39  40
ENDBRANCH  38  39
ENDBRANCH  37  38
ENDBRANCH  36  37
ENDBRANCH  33  36
ENDBRANCH   1  32
BRANCH  13  42
HETATM   42  O6  UNL     1       8.709 -25.437 -10.805  1.00  0.00    -0.382 OA
ATOM     43  H6  UNL     1       8.281 -24.844 -10.199  1.00  0.00     0.211 HD
ENDBRANCH  13  42
BRANCH   7  44
HETATM   44  O4  UNL     1      12.022 -29.326 -13.554  1.00  0.00    -0.315 OA
BRANCH  44  45
HETATM   45  C13 UNL     1      12.928 -28.866 -14.446  1.00  0.00     0.255 C 
HETATM   46  C14 UNL     1      14.326 -28.633 -14.060  1.00  0.00     0.126 C 
HETATM   47  O5  UNL     1      12.575 -28.636 -15.613  1.00  0.00    -0.266 OA
ENDBRANCH  44  45
ENDBRANCH   7  44
TORSDOF 9
ENDMDL
MODEL 4
REMARK VINA RESULT: -5.486488291      2.862      7.526
REMARK  9 active torsions:
REMARK  status: ('A' for Active; 'I' for Inactive)
REMARK    1  A    between atoms: C2_2  and  C3_3 
REMARK    2  A    between atoms: C3_3  and  C4_4 
REMARK    3  A    between atoms: C4_4  and  C5_5 
REMARK    4  A    between atoms: C5_5  and  C6_6 
REMARK    5  A    between atoms: C6_6  and  N1_7 
REMARK       I    between atoms: N1_7  and  C7_9 
REMARK    6  A    between atoms: C7_9  and  C8_11 
REMARK    7  A    between atoms: C12_17  and  O4_18 
REMARK    8  A    between atoms: O4_18  and  C13_19 
REMARK    9  A    between atoms: C20_27  and  O6_29 
ROOT
HETATM    1  C8  UNL     1      10.140 -30.387 -10.486  1.00  0.00     0.233 C 
HETATM    2  O2  UNL     1      11.237 -31.080  -9.771  1.00  0.00    -0.305 OA
HETATM    3  C9  UNL     1      11.501 -30.927  -8.406  1.00  0.00     0.264 C 
HETATM    4  O3  UNL     1      12.558 -31.369  -7.919  1.00  0.00    -0.265 OA
HETATM    5  C10 UNL     1      10.467 -30.203  -7.506  1.00  0.00     0.101 C 
HETATM    6  C11 UNL     1      10.956 -29.024  -6.878  1.00  0.00     0.049 C 
HETATM    7  C12 UNL     1       9.780 -28.366  -6.127  1.00  0.00     0.142 C 
HETATM    8  C15 UNL     1       8.423 -28.367  -6.716  1.00  0.00     0.003 C 
HETATM    9  C16 UNL     1       7.938 -26.907  -6.402  1.00  0.00     0.019 C 
HETATM   10  C17 UNL     1       8.175 -28.466  -8.128  1.00  0.00     0.007 C 
HETATM   11  C18 UNL     1       8.055 -29.808  -8.677  1.00  0.00     0.021 C 
HETATM   12  C19 UNL     1       9.391 -30.242  -8.435  1.00  0.00     0.021 C 
HETATM   13  C20 UNL     1       8.928 -31.545  -8.113  1.00  0.00     0.124 C 
HETATM   14  C21 UNL     1       8.039 -32.384  -8.987  1.00  0.00     0.055 C 
HETATM   15  C22 UNL     1       8.239 -31.388  -6.766  1.00  0.00     0.174 C 
HETATM   16  O7  UNL     1       8.564 -32.292  -6.023  1.00  0.00    -0.293 OA
HETATM   17  C23 UNL     1       7.314 -30.592  -5.933  1.00  0.00     0.053 C 
HETATM   18  C24 UNL     1       5.886 -31.050  -6.508  1.00  0.00     0.029 C 
HETATM   19  C25 UNL     1       6.986 -31.198  -4.615  1.00  0.00    -0.004 C 
HETATM   20  C26 UNL     1       6.090 -30.522  -3.895  1.00  0.00     0.056 C 
HETATM   21  C27 UNL     1       5.515 -29.241  -4.354  1.00  0.00     0.218 C 
HETATM   22  O8  UNL     1       4.622 -28.602  -3.730  1.00  0.00    -0.284 OA
HETATM   23  C28 UNL     1       6.060 -28.716  -5.671  1.00  0.00     0.209 C 
HETATM   24  O9  UNL     1       5.402 -28.064  -6.429  1.00  0.00    -0.288 OA
HETATM   25  C29 UNL     1       7.508 -29.178  -5.768  1.00  0.00     0.053 C 
HETATM   26  C30 UNL     1       8.031 -28.721  -4.396  1.00  0.00     0.026 C 
HETATM   27  C31 UNL     1       9.944 -29.361  -9.505  1.00  0.00     0.011 C 
HETATM   28  C32 UNL     1      11.149 -28.667  -9.767  1.00  0.00     0.020 C 
HETATM   29  C33 UNL     1       9.049 -28.167  -9.303  1.00  0.00    -0.032 C 
HETATM   30  C34 UNL     1       9.579 -26.811  -9.184  1.00  0.00     0.016 C 
HETATM   31  C35 UNL     1       8.083 -27.938 -10.495  1.00  0.00     0.016 C 
ENDROOT
BRANCH   1  32
HETATM   32  C7  UNL     1      10.786 -30.246 -11.813  1.00  0.00     0.251 C 
HETATM   33  N1  UNL     1      10.628 -29.128 -12.716  1.00  0.00    -0.339 N 
ATOM     34  H1  UNL     1      10.035 -28.364 -12.394  1.00  0.00     0.167 HD
HETATM   35  O1  UNL     1      11.564 -31.097 -12.356  1.00  0.00    -0.270 OA
BRANCH  33  36
HETATM   36  C6  UNL     1      11.202 -28.982 -13.986  1.00  0.00     0.064 C 
BRANCH  36  37
HETATM   37  C5  UNL     1      12.391 -28.154 -14.228  1.00  0.00     0.044 C 
BRANCH  37  38
HETATM   38  C4  UNL     1      13.671 -28.525 -13.588  1.00  0.00     0.005 C 
BRANCH  38  39
HETATM   39  C3  UNL     1      13.944 -27.959 -12.235  1.00  0.00     0.000 C 
BRANCH  39  40
HETATM   40  C2  UNL     1      15.431 -27.805 -11.968  1.00  0.00    -0.005 C 
HETATM   41  C1  UNL     1      16.213 -27.975 -13.271  1.00  0.00     0.005 C 
ENDBRANCH  39  40
ENDBRANCH  38  39
ENDBRANCH  37  38
ENDBRANCH  36  37
ENDBRANCH  33  36
ENDBRANCH   1  32
BRANCH  13  42
HETATM   42  O6  UNL     1       9.865 -32.570  -7.768  1.00  0.00    -0.382 OA
ATOM     43  H6  UNL     1       9.942 -32.858  -6.866  1.00  0.00     0.211 HD
ENDBRANCH  13  42
BRANCH   7  44
HETATM   44  O4  UNL     1      10.399 -27.118  -5.861  1.00  0.00    -0.315 OA
BRANCH  44  45
HETATM   45  C13 UNL     1      11.299 -26.857  -4.886  1.00  0.00     0.255 C 
HETATM   46  C14 UNL     1      10.911 -26.860  -3.470  1.00  0.00     0.126 C 
HETATM   47  O5  UNL     1      12.476 -26.610  -5.192  1.00  0.00    -0.266 OA
ENDBRANCH  44  45
ENDBRANCH   7  44
TORSDOF 9
ENDMDL
MODEL 5
REMARK VINA RESULT: -5.414695669      2.822      7.273
REMARK  9 active torsions:
REMARK  status: ('A' for Active; 'I' for Inactive)
REMARK    1  A    between atoms: C2_2  and  C3_3 
REMARK    2  A    between atoms: C3_3  and  C4_4 
REMARK    3  A    between atoms: C4_4  and  C5_5 
REMARK    4  A    between atoms: C5_5  and  C6_6 
REMARK    5  A    between atoms: C6_6  and  N1_7 
REMARK       I    between atoms: N1_7  and  C7_9 
REMARK    6  A    between atoms: C7_9  and  C8_11 
REMARK    7  A    between atoms: C12_17  and  O4_18 
REMARK    8  A    between atoms: O4_18  and  C13_19 
REMARK    9  A    between atoms: C20_27  and  O6_29 
ROOT
HETATM    1  C8  UNL     1      11.777 -28.442  -9.980  1.00  0.00     0.233 C 
HETATM    2  O2  UNL     1      11.232 -27.093 -10.266  1.00  0.00    -0.305 OA
HETATM    3  C9  UNL     1       9.918 -26.704  -9.986  1.00  0.00     0.264 C 
HETATM    4  O3  UNL     1       9.471 -25.636 -10.443  1.00  0.00    -0.265 OA
HETATM    5  C10 UNL     1       9.026 -27.612  -9.102  1.00  0.00     0.101 C 
HETATM    6  C11 UNL     1       7.855 -28.098  -9.750  1.00  0.00     0.049 C 
HETATM    7  C12 UNL     1       7.152 -29.073  -8.784  1.00  0.00     0.142 C 
HETATM    8  C15 UNL     1       7.946 -29.989  -7.936  1.00  0.00     0.003 C 
HETATM    9  C16 UNL     1       7.128 -31.324  -8.053  1.00  0.00     0.019 C 
HETATM   10  C17 UNL     1       9.274 -30.424  -8.273  1.00  0.00     0.007 C 
HETATM   11  C18 UNL     1      10.371 -29.584  -7.818  1.00  0.00     0.021 C 
HETATM   12  C19 UNL     1      10.076 -28.431  -8.603  1.00  0.00     0.021 C 
HETATM   13  C20 UNL     1      10.466 -27.583  -7.533  1.00  0.00     0.124 C 
HETATM   14  C21 UNL     1      11.784 -27.653  -6.813  1.00  0.00     0.055 C 
HETATM   15  C22 UNL     1       9.363 -27.734  -6.497  1.00  0.00     0.174 C 
HETATM   16  O7  UNL     1       9.047 -26.645  -6.061  1.00  0.00    -0.293 OA
HETATM   17  C23 UNL     1       8.474 -28.656  -5.760  1.00  0.00     0.053 C 
HETATM   18  C24 UNL     1       9.474 -29.249  -4.651  1.00  0.00     0.029 C 
HETATM   19  C25 UNL     1       7.659 -28.015  -4.694  1.00  0.00    -0.004 C 
HETATM   20  C26 UNL     1       6.917 -28.857  -3.974  1.00  0.00     0.056 C 
HETATM   21  C27 UNL     1       6.870 -30.306  -4.257  1.00  0.00     0.218 C 
HETATM   22  O8  UNL     1       6.227 -31.142  -3.563  1.00  0.00    -0.284 OA
HETATM   23  C28 UNL     1       7.675 -30.761  -5.461  1.00  0.00     0.209 C 
HETATM   24  O9  UNL     1       8.185 -31.843  -5.526  1.00  0.00    -0.288 OA
HETATM   25  C29 UNL     1       7.666 -29.614  -6.463  1.00  0.00     0.053 C 
HETATM   26  C30 UNL     1       6.158 -29.316  -6.518  1.00  0.00     0.026 C 
HETATM   27  C31 UNL     1      10.507 -29.096  -9.867  1.00  0.00     0.011 C 
HETATM   28  C32 UNL     1      10.180 -29.035 -11.242  1.00  0.00     0.020 C 
HETATM   29  C33 UNL     1       9.988 -30.481  -9.584  1.00  0.00    -0.032 C 
HETATM   30  C34 UNL     1       9.175 -31.217 -10.550  1.00  0.00     0.016 C 
HETATM   31  C35 UNL     1      11.126 -31.518  -9.397  1.00  0.00     0.016 C 
ENDROOT
BRANCH   1  32
HETATM   32  C7  UNL     1      12.739 -28.541 -11.103  1.00  0.00     0.251 C 
HETATM   33  N1  UNL     1      13.925 -27.733 -11.273  1.00  0.00    -0.339 N 
ATOM     34  H1  UNL     1      14.121 -27.052 -10.541  1.00  0.00     0.167 HD
HETATM   35  O1  UNL     1      12.652 -29.344 -12.089  1.00  0.00    -0.270 OA
BRANCH  33  36
HETATM   36  C6  UNL     1      14.836 -27.785 -12.338  1.00  0.00     0.064 C 
BRANCH  36  37
HETATM   37  C5  UNL     1      16.265 -28.059 -12.145  1.00  0.00     0.044 C 
BRANCH  37  38
HETATM   38  C4  UNL     1      17.188 -27.918 -13.292  1.00  0.00     0.005 C 
BRANCH  38  39
HETATM   39  C3  UNL     1      16.793 -26.966 -14.370  1.00  0.00     0.000 C 
BRANCH  39  40
HETATM   40  C2  UNL     1      17.971 -26.151 -14.873  1.00  0.00    -0.005 C 
HETATM   41  C1  UNL     1      18.939 -25.870 -13.724  1.00  0.00     0.005 C 
ENDBRANCH  39  40
ENDBRANCH  38  39
ENDBRANCH  37  38
ENDBRANCH  36  37
ENDBRANCH  33  36
ENDBRANCH   1  32
BRANCH  13  42
HETATM   42  O6  UNL     1      10.425 -26.161  -7.698  1.00  0.00    -0.382 OA
ATOM     43  H6  UNL     1       9.604 -25.732  -7.908  1.00  0.00     0.211 HD
ENDBRANCH  13  42
BRANCH   7  44
HETATM   44  O4  UNL     1       6.241 -29.636  -9.715  1.00  0.00    -0.315 OA
BRANCH  44  45
HETATM   45  C13 UNL     1       5.188 -29.011 -10.289  1.00  0.00     0.255 C 
HETATM   46  C14 UNL     1       4.913 -29.145 -11.726  1.00  0.00     0.126 C 
HETATM   47  O5  UNL     1       4.438 -28.311  -9.591  1.00  0.00    -0.266 OA
ENDBRANCH  44  45
ENDBRANCH   7  44
TORSDOF 9
ENDMDL
