MODEL 1
REMARK VINA RESULT: -8.734227462      0.000      0.000
REMARK  8 active torsions:
REMARK  status: ('A' for Active; 'I' for Inactive)
REMARK    1  A    between atoms: C2_3  and  C3_5 
REMARK    2  A    between atoms: C4_6  and  S1_7 
REMARK    3  A    between atoms: S1_7  and  C5_8 
REMARK    4  A    between atoms: C5_8  and  C6_9 
REMARK       I    between atoms: C6_9  and  N2_11 
REMARK    5  A    between atoms: N3_14  and  C9_15 
REMARK    6  A    between atoms: C9_15  and  C10_16 
REMARK       I    between atoms: C10_16  and  N4_18 
REMARK    7  A    between atoms: N4_18  and  C11_20 
REMARK    8  A    between atoms: C22_35  and  N7_36 
ROOT
HETATM    1  C1  UNL     1      18.299 -19.035  -1.972  1.00  0.00     0.233 C 
HETATM    2  N1  UNL     1      18.029 -20.040  -2.843  1.00  0.00    -0.391 NA
HETATM    3  C2  UNL     1      17.754 -21.064  -3.733  1.00  0.00     0.328 C 
HETATM    4  O1  UNL     1      18.540 -22.050  -3.951  1.00  0.00    -0.251 OA
ENDROOT
BRANCH   3   5
HETATM    5  C3  UNL     1      16.531 -21.148  -4.532  1.00  0.00     0.098 A 
HETATM    6  C4  UNL     1      15.413 -21.929  -4.200  1.00  0.00     0.092 A 
HETATM    7  N3  UNL     1      14.452 -21.741  -5.095  1.00  0.00    -0.317 N 
HETATM    8  C20 UNL     1      14.914 -20.852  -6.011  1.00  0.00     0.125 A 
HETATM    9  N5  UNL     1      14.373 -20.318  -7.110  1.00  0.00    -0.338 N 
HETATM   10  C32 UNL     1      16.230 -20.455  -5.681  1.00  0.00     0.072 A 
HETATM   11  C21 UNL     1      15.000 -19.437  -7.910  1.00  0.00     0.183 A 
ATOM     12  H5  UNL     1      13.423 -20.597  -7.357  1.00  0.00     0.168 HD
HETATM   13  N6  UNL     1      16.230 -19.067  -7.598  1.00  0.00    -0.338 N 
HETATM   14  C22 UNL     1      16.877 -19.559  -6.483  1.00  0.00     0.119 A 
ATOM     15  H6  UNL     1      16.715 -18.400  -8.198  1.00  0.00     0.168 HD
BRANCH   6  16
HETATM   16  S1  UNL     1      15.386 -22.965  -2.745  1.00  0.00    -0.102 SA
BRANCH  16  17
HETATM   17  C5  UNL     1      14.969 -24.672  -3.211  1.00  0.00     0.183 C 
BRANCH  17  18
HETATM   18  C6  UNL     1      13.576 -24.948  -2.726  1.00  0.00     0.228 C 
HETATM   19  O2  UNL     1      13.191 -24.353  -1.692  1.00  0.00    -0.273 OA
HETATM   20  N2  UNL     1      12.805 -25.866  -3.487  1.00  0.00    -0.360 N 
HETATM   21  C7  UNL     1      11.454 -26.156  -3.089  1.00  0.00     0.152 C 
HETATM   22  C8  UNL     1      13.349 -26.531  -4.655  1.00  0.00     0.152 C 
ENDBRANCH  17  18
ENDBRANCH  16  17
ENDBRANCH   6  16
BRANCH   7  23
HETATM   23  C9  UNL     1      13.145 -22.372  -5.176  1.00  0.00     0.234 C 
BRANCH  23  24
HETATM   24  C10 UNL     1      13.145 -23.319  -6.339  1.00  0.00     0.240 C 
HETATM   25  O3  UNL     1      14.177 -23.964  -6.610  1.00  0.00    -0.271 OA
HETATM   26  N4  UNL     1      11.996 -23.495  -7.147  1.00  0.00    -0.325 N 
ATOM     27  H4  UNL     1      11.157 -22.965  -6.910  1.00  0.00     0.169 HD
BRANCH  26  28
HETATM   28  C11 UNL     1      11.943 -24.355  -8.253  1.00  0.00     0.046 A 
HETATM   29  C12 UNL     1      11.397 -25.619  -8.163  1.00  0.00    -0.034 A 
HETATM   30  C13 UNL     1      10.834 -26.109  -6.878  1.00  0.00     0.050 C 
HETATM   31  C14 UNL     1      11.344 -26.459  -9.265  1.00  0.00     0.015 A 
HETATM   32  C15 UNL     1      11.838 -26.043 -10.467  1.00  0.00    -0.061 A 
HETATM   33  C16 UNL     1      11.748 -26.994 -11.622  1.00  0.00     0.048 C 
HETATM   34  C17 UNL     1      12.385 -24.790 -10.570  1.00  0.00     0.015 A 
HETATM   35  C18 UNL     1      12.439 -23.938  -9.461  1.00  0.00    -0.034 A 
HETATM   36  C19 UNL     1      13.054 -22.580  -9.667  1.00  0.00     0.050 C 
ENDBRANCH  26  28
ENDBRANCH  23  24
ENDBRANCH   7  23
BRANCH  14  37
HETATM   37  N7  UNL     1      18.164 -19.082  -6.236  1.00  0.00    -0.366 N 
HETATM   38  C23 UNL     1      18.581 -17.977  -5.457  1.00  0.00     0.125 C 
HETATM   39  C24 UNL     1      19.351 -16.953  -6.280  1.00  0.00     0.031 C 
HETATM   40  C25 UNL     1      20.445 -17.611  -7.040  1.00  0.00    -0.009 C 
HETATM   41  C26 UNL     1      21.809 -17.061  -6.692  1.00  0.00     0.041 C 
HETATM   42  C29 UNL     1      20.234 -17.290  -8.518  1.00  0.00     0.281 C 
HETATM   43  C30 UNL     1      20.536 -19.111  -6.837  1.00  0.00     0.031 C 
HETATM   44  C27 UNL     1      22.425 -16.787  -8.022  1.00  0.00     0.272 C 
HETATM   45  N8  UNL     1      21.317 -16.414  -8.875  1.00  0.00     0.085 N 
HETATM   46  C28 UNL     1      21.049 -15.014  -8.684  1.00  0.00     0.309 C 
HETATM   47  C31 UNL     1      19.230 -19.821  -6.946  1.00  0.00     0.125 C 
ENDBRANCH  14  37
ENDBRANCH   3   5
TORSDOF 7
ENDMDL
MODEL 2
REMARK VINA RESULT: -8.072217127      1.978      3.172
REMARK  8 active torsions:
REMARK  status: ('A' for Active; 'I' for Inactive)
REMARK    1  A    between atoms: C2_3  and  C3_5 
REMARK    2  A    between atoms: C4_6  and  S1_7 
REMARK    3  A    between atoms: S1_7  and  C5_8 
REMARK    4  A    between atoms: C5_8  and  C6_9 
REMARK       I    between atoms: C6_9  and  N2_11 
REMARK    5  A    between atoms: N3_14  and  C9_15 
REMARK    6  A    between atoms: C9_15  and  C10_16 
REMARK       I    between atoms: C10_16  and  N4_18 
REMARK    7  A    between atoms: N4_18  and  C11_20 
REMARK    8  A    between atoms: C22_35  and  N7_36 
ROOT
HETATM    1  C1  UNL     1      15.143 -21.203  -3.123  1.00  0.00     0.233 C 
HETATM    2  N1  UNL     1      15.180 -21.953  -4.253  1.00  0.00    -0.391 NA
HETATM    3  C2  UNL     1      15.218 -22.716  -5.407  1.00  0.00     0.328 C 
HETATM    4  O1  UNL     1      15.942 -23.762  -5.547  1.00  0.00    -0.251 OA
ENDROOT
BRANCH   3   5
HETATM    5  C3  UNL     1      14.437 -22.424  -6.610  1.00  0.00     0.098 A 
HETATM    6  C4  UNL     1      13.280 -23.118  -6.996  1.00  0.00     0.092 A 
HETATM    7  N3  UNL     1      12.776 -22.574  -8.096  1.00  0.00    -0.317 N 
HETATM    8  C20 UNL     1      13.579 -21.535  -8.442  1.00  0.00     0.125 A 
HETATM    9  N5  UNL     1      13.542 -20.659  -9.451  1.00  0.00    -0.338 N 
HETATM   10  C32 UNL     1      14.641 -21.413  -7.517  1.00  0.00     0.072 A 
HETATM   11  C21 UNL     1      14.447 -19.680  -9.634  1.00  0.00     0.183 A 
ATOM     12  H5  UNL     1      12.780 -20.737 -10.124  1.00  0.00     0.168 HD
HETATM   13  N6  UNL     1      15.439 -19.568  -8.766  1.00  0.00    -0.338 N 
HETATM   14  C22 UNL     1      15.564 -20.422  -7.691  1.00  0.00     0.119 A 
ATOM     15  H6  UNL     1      16.129 -18.829  -8.896  1.00  0.00     0.168 HD
BRANCH   6  16
HETATM   16  S1  UNL     1      12.650 -24.499  -6.054  1.00  0.00    -0.102 SA
BRANCH  16  17
HETATM   17  C5  UNL     1      12.175 -23.945  -4.389  1.00  0.00     0.183 C 
BRANCH  17  18
HETATM   18  C6  UNL     1      11.893 -25.168  -3.566  1.00  0.00     0.228 C 
HETATM   19  O2  UNL     1      10.974 -25.930  -3.951  1.00  0.00    -0.273 OA
HETATM   20  N2  UNL     1      12.699 -25.362  -2.413  1.00  0.00    -0.360 N 
HETATM   21  C7  UNL     1      12.495 -26.527  -1.595  1.00  0.00     0.152 C 
HETATM   22  C8  UNL     1      13.721 -24.408  -2.031  1.00  0.00     0.152 C 
ENDBRANCH  17  18
ENDBRANCH  16  17
ENDBRANCH   6  16
BRANCH   7  23
HETATM   23  C9  UNL     1      11.619 -22.988  -8.872  1.00  0.00     0.234 C 
BRANCH  23  24
HETATM   24  C10 UNL     1      11.960 -24.257  -9.595  1.00  0.00     0.240 C 
HETATM   25  O3  UNL     1      13.130 -24.455  -9.977  1.00  0.00    -0.271 OA
HETATM   26  N4  UNL     1      10.977 -25.240  -9.864  1.00  0.00    -0.325 N 
ATOM     27  H4  UNL     1      10.025 -25.067  -9.542  1.00  0.00     0.169 HD
BRANCH  26  28
HETATM   28  C11 UNL     1      11.235 -26.436 -10.548  1.00  0.00     0.046 A 
HETATM   29  C12 UNL     1      11.228 -26.500 -11.926  1.00  0.00    -0.034 A 
HETATM   30  C13 UNL     1      10.952 -25.286 -12.738  1.00  0.00     0.050 C 
HETATM   31  C14 UNL     1      11.489 -27.688 -12.592  1.00  0.00     0.015 A 
HETATM   32  C15 UNL     1      11.760 -28.824 -11.885  1.00  0.00    -0.061 A 
HETATM   33  C16 UNL     1      12.040 -30.074 -12.661  1.00  0.00     0.048 C 
HETATM   34  C17 UNL     1      11.769 -28.774 -10.515  1.00  0.00     0.015 A 
HETATM   35  C18 UNL     1      11.507 -27.577  -9.839  1.00  0.00    -0.034 A 
HETATM   36  C19 UNL     1      11.541 -27.617  -8.334  1.00  0.00     0.050 C 
ENDBRANCH  26  28
ENDBRANCH  23  24
ENDBRANCH   7  23
BRANCH  14  37
HETATM   37  N7  UNL     1      16.634 -20.196  -6.825  1.00  0.00    -0.366 N 
HETATM   38  C23 UNL     1      16.721 -19.338  -5.703  1.00  0.00     0.125 C 
HETATM   39  C24 UNL     1      17.821 -18.298  -5.860  1.00  0.00     0.031 C 
HETATM   40  C25 UNL     1      19.105 -18.949  -6.231  1.00  0.00    -0.009 C 
HETATM   41  C26 UNL     1      20.203 -18.684  -5.227  1.00  0.00     0.041 C 
HETATM   42  C29 UNL     1      19.578 -18.318  -7.538  1.00  0.00     0.281 C 
HETATM   43  C30 UNL     1      19.025 -20.456  -6.374  1.00  0.00     0.031 C 
HETATM   44  C27 UNL     1      21.352 -18.249  -6.073  1.00  0.00     0.272 C 
HETATM   45  N8  UNL     1      20.748 -17.558  -7.192  1.00  0.00     0.085 N 
HETATM   46  C28 UNL     1      20.491 -16.198  -6.800  1.00  0.00     0.309 C 
HETATM   47  C31 UNL     1      17.867 -20.931  -7.182  1.00  0.00     0.125 C 
ENDBRANCH  14  37
ENDBRANCH   3   5
TORSDOF 7
ENDMDL
MODEL 3
REMARK VINA RESULT: -8.064675656      2.598      9.485
REMARK  8 active torsions:
REMARK  status: ('A' for Active; 'I' for Inactive)
REMARK    1  A    between atoms: C2_3  and  C3_5 
REMARK    2  A    between atoms: C4_6  and  S1_7 
REMARK    3  A    between atoms: S1_7  and  C5_8 
REMARK    4  A    between atoms: C5_8  and  C6_9 
REMARK       I    between atoms: C6_9  and  N2_11 
REMARK    5  A    between atoms: N3_14  and  C9_15 
REMARK    6  A    between atoms: C9_15  and  C10_16 
REMARK       I    between atoms: C10_16  and  N4_18 
REMARK    7  A    between atoms: N4_18  and  C11_20 
REMARK    8  A    between atoms: C22_35  and  N7_36 
ROOT
HETATM    1  C1  UNL     1       8.267 -27.685  -8.107  1.00  0.00     0.233 C 
HETATM    2  N1  UNL     1       9.569 -27.430  -7.828  1.00  0.00    -0.391 NA
HETATM    3  C2  UNL     1      10.899 -27.169  -7.542  1.00  0.00     0.328 C 
HETATM    4  O1  UNL     1      11.786 -28.078  -7.387  1.00  0.00    -0.251 OA
ENDROOT
BRANCH   3   5
HETATM    5  C3  UNL     1      11.454 -25.824  -7.384  1.00  0.00     0.098 A 
HETATM    6  C4  UNL     1      11.655 -25.186  -6.150  1.00  0.00     0.092 A 
HETATM    7  N3  UNL     1      12.226 -24.004  -6.344  1.00  0.00    -0.317 N 
HETATM    8  C20 UNL     1      12.404 -23.851  -7.681  1.00  0.00     0.125 A 
HETATM    9  N5  UNL     1      12.921 -22.864  -8.419  1.00  0.00    -0.338 N 
HETATM   10  C32 UNL     1      11.926 -24.990  -8.368  1.00  0.00     0.072 A 
HETATM   11  C21 UNL     1      13.012 -22.892  -9.761  1.00  0.00     0.183 A 
ATOM     12  H5  UNL     1      13.270 -22.038  -7.934  1.00  0.00     0.168 HD
HETATM   13  N6  UNL     1      12.564 -23.960 -10.401  1.00  0.00    -0.338 N 
HETATM   14  C22 UNL     1      12.014 -25.032  -9.730  1.00  0.00     0.119 A 
ATOM     15  H6  UNL     1      12.628 -23.991 -11.418  1.00  0.00     0.168 HD
BRANCH   6  16
HETATM   16  S1  UNL     1      11.200 -25.957  -4.604  1.00  0.00    -0.102 SA
BRANCH  16  17
HETATM   17  C5  UNL     1      12.691 -26.297  -3.622  1.00  0.00     0.183 C 
BRANCH  17  18
HETATM   18  C6  UNL     1      12.917 -25.122  -2.716  1.00  0.00     0.228 C 
HETATM   19  O2  UNL     1      11.932 -24.684  -2.074  1.00  0.00    -0.273 OA
HETATM   20  N2  UNL     1      14.237 -24.602  -2.660  1.00  0.00    -0.360 N 
HETATM   21  C7  UNL     1      14.525 -23.492  -1.793  1.00  0.00     0.152 C 
HETATM   22  C8  UNL     1      15.308 -25.159  -3.465  1.00  0.00     0.152 C 
ENDBRANCH  17  18
ENDBRANCH  16  17
ENDBRANCH   6  16
BRANCH   7  23
HETATM   23  C9  UNL     1      12.576 -22.988  -5.365  1.00  0.00     0.234 C 
BRANCH  23  24
HETATM   24  C10 UNL     1      13.939 -22.458  -5.696  1.00  0.00     0.240 C 
HETATM   25  O3  UNL     1      14.834 -23.244  -6.065  1.00  0.00    -0.271 OA
HETATM   26  N4  UNL     1      14.240 -21.079  -5.591  1.00  0.00    -0.325 N 
ATOM     27  H4  UNL     1      13.497 -20.447  -5.294  1.00  0.00     0.169 HD
BRANCH  26  28
HETATM   28  C11 UNL     1      15.499 -20.530  -5.874  1.00  0.00     0.046 A 
HETATM   29  C12 UNL     1      15.766 -19.912  -7.078  1.00  0.00    -0.034 A 
HETATM   30  C13 UNL     1      14.714 -19.800  -8.121  1.00  0.00     0.050 C 
HETATM   31  C14 UNL     1      17.013 -19.367  -7.345  1.00  0.00     0.015 A 
HETATM   32  C15 UNL     1      18.005 -19.437  -6.409  1.00  0.00    -0.061 A 
HETATM   33  C16 UNL     1      19.329 -18.826  -6.754  1.00  0.00     0.048 C 
HETATM   34  C17 UNL     1      17.753 -20.050  -5.209  1.00  0.00     0.015 A 
HETATM   35  C18 UNL     1      16.495 -20.600  -4.935  1.00  0.00    -0.034 A 
HETATM   36  C19 UNL     1      16.308 -21.251  -3.591  1.00  0.00     0.050 C 
ENDBRANCH  26  28
ENDBRANCH  23  24
ENDBRANCH   7  23
BRANCH  14  37
HETATM   37  N7  UNL     1      11.597 -26.115 -10.503  1.00  0.00    -0.366 N 
HETATM   38  C23 UNL     1      12.297 -27.294 -10.854  1.00  0.00     0.125 C 
HETATM   39  C24 UNL     1      12.437 -27.450 -12.362  1.00  0.00     0.031 C 
HETATM   40  C25 UNL     1      11.116 -27.305 -13.027  1.00  0.00    -0.009 C 
HETATM   41  C26 UNL     1      10.722 -28.532 -13.816  1.00  0.00     0.041 C 
HETATM   42  C29 UNL     1      11.239 -26.177 -14.049  1.00  0.00     0.281 C 
HETATM   43  C30 UNL     1       9.964 -27.031 -12.079  1.00  0.00     0.031 C 
HETATM   44  C27 UNL     1      10.309 -27.979 -15.138  1.00  0.00     0.272 C 
HETATM   45  N8  UNL     1      11.149 -26.816 -15.333  1.00  0.00     0.085 N 
HETATM   46  C28 UNL     1      12.405 -27.251 -15.881  1.00  0.00     0.309 C 
HETATM   47  C31 UNL     1      10.242 -25.965 -11.075  1.00  0.00     0.125 C 
ENDBRANCH  14  37
ENDBRANCH   3   5
TORSDOF 7
ENDMDL
MODEL 4
REMARK VINA RESULT: -8.031878587      1.976      2.945
REMARK  8 active torsions:
REMARK  status: ('A' for Active; 'I' for Inactive)
REMARK    1  A    between atoms: C2_3  and  C3_5 
REMARK    2  A    between atoms: C4_6  and  S1_7 
REMARK    3  A    between atoms: S1_7  and  C5_8 
REMARK    4  A    between atoms: C5_8  and  C6_9 
REMARK       I    between atoms: C6_9  and  N2_11 
REMARK    5  A    between atoms: N3_14  and  C9_15 
REMARK    6  A    between atoms: C9_15  and  C10_16 
REMARK       I    between atoms: C10_16  and  N4_18 
REMARK    7  A    between atoms: N4_18  and  C11_20 
REMARK    8  A    between atoms: C22_35  and  N7_36 
ROOT
HETATM    1  C1  UNL     1      15.136 -21.218  -3.099  1.00  0.00     0.233 C 
HETATM    2  N1  UNL     1      15.194 -21.953  -4.238  1.00  0.00    -0.391 NA
HETATM    3  C2  UNL     1      15.254 -22.701  -5.401  1.00  0.00     0.328 C 
HETATM    4  O1  UNL     1      16.003 -23.728  -5.551  1.00  0.00    -0.251 OA
ENDROOT
BRANCH   3   5
HETATM    5  C3  UNL     1      14.469 -22.412  -6.602  1.00  0.00     0.098 A 
HETATM    6  C4  UNL     1      13.312 -23.109  -6.984  1.00  0.00     0.092 A 
HETATM    7  N3  UNL     1      12.805 -22.568  -8.084  1.00  0.00    -0.317 N 
HETATM    8  C20 UNL     1      13.605 -21.529  -8.435  1.00  0.00     0.125 A 
HETATM    9  N5  UNL     1      13.565 -20.655  -9.445  1.00  0.00    -0.338 N 
HETATM   10  C32 UNL     1      14.669 -21.403  -7.513  1.00  0.00     0.072 A 
HETATM   11  C21 UNL     1      14.467 -19.675  -9.632  1.00  0.00     0.183 A 
ATOM     12  H5  UNL     1      12.801 -20.736 -10.116  1.00  0.00     0.168 HD
HETATM   13  N6  UNL     1      15.461 -19.559  -8.767  1.00  0.00    -0.338 N 
HETATM   14  C22 UNL     1      15.591 -20.411  -7.690  1.00  0.00     0.119 A 
ATOM     15  H6  UNL     1      16.151 -18.820  -8.901  1.00  0.00     0.168 HD
BRANCH   6  16
HETATM   16  S1  UNL     1      12.686 -24.489  -6.038  1.00  0.00    -0.102 SA
BRANCH  16  17
HETATM   17  C5  UNL     1      12.187 -23.926  -4.383  1.00  0.00     0.183 C 
BRANCH  17  18
HETATM   18  C6  UNL     1      11.872 -25.144  -3.564  1.00  0.00     0.228 C 
HETATM   19  O2  UNL     1      10.947 -25.891  -3.963  1.00  0.00    -0.273 OA
HETATM   20  N2  UNL     1      12.656 -25.350  -2.398  1.00  0.00    -0.360 N 
HETATM   21  C7  UNL     1      12.421 -26.512  -1.583  1.00  0.00     0.152 C 
HETATM   22  C8  UNL     1      13.688 -24.412  -2.000  1.00  0.00     0.152 C 
ENDBRANCH  17  18
ENDBRANCH  16  17
ENDBRANCH   6  16
BRANCH   7  23
HETATM   23  C9  UNL     1      11.646 -22.986  -8.856  1.00  0.00     0.234 C 
BRANCH  23  24
HETATM   24  C10 UNL     1      11.980 -24.267  -9.561  1.00  0.00     0.240 C 
HETATM   25  O3  UNL     1      13.152 -24.482  -9.928  1.00  0.00    -0.271 OA
HETATM   26  N4  UNL     1      10.990 -25.241  -9.829  1.00  0.00    -0.325 N 
ATOM     27  H4  UNL     1      10.036 -25.054  -9.519  1.00  0.00     0.169 HD
BRANCH  26  28
HETATM   28  C11 UNL     1      11.241 -26.449 -10.496  1.00  0.00     0.046 A 
HETATM   29  C12 UNL     1      11.484 -27.620  -9.807  1.00  0.00    -0.034 A 
HETATM   30  C13 UNL     1      11.478 -27.638  -8.321  1.00  0.00     0.050 C 
HETATM   31  C14 UNL     1      11.726 -28.810 -10.476  1.00  0.00     0.015 A 
HETATM   32  C15 UNL     1      11.729 -28.840 -11.841  1.00  0.00    -0.061 A 
HETATM   33  C16 UNL     1      11.992 -30.156 -12.507  1.00  0.00     0.048 C 
HETATM   34  C17 UNL     1      11.490 -27.683 -12.537  1.00  0.00     0.015 A 
HETATM   35  C18 UNL     1      11.244 -26.480 -11.866  1.00  0.00    -0.034 A 
HETATM   36  C19 UNL     1      10.990 -25.261 -12.712  1.00  0.00     0.050 C 
ENDBRANCH  26  28
ENDBRANCH  23  24
ENDBRANCH   7  23
BRANCH  14  37
HETATM   37  N7  UNL     1      16.662 -20.182  -6.828  1.00  0.00    -0.366 N 
HETATM   38  C23 UNL     1      16.746 -19.331  -5.700  1.00  0.00     0.125 C 
HETATM   39  C24 UNL     1      17.836 -18.280  -5.854  1.00  0.00     0.031 C 
HETATM   40  C25 UNL     1      19.124 -18.916  -6.235  1.00  0.00    -0.009 C 
HETATM   41  C26 UNL     1      20.224 -18.648  -5.235  1.00  0.00     0.041 C 
HETATM   42  C29 UNL     1      19.585 -18.271  -7.540  1.00  0.00     0.281 C 
HETATM   43  C30 UNL     1      19.058 -20.423  -6.389  1.00  0.00     0.031 C 
HETATM   44  C27 UNL     1      21.365 -18.197  -6.083  1.00  0.00     0.272 C 
HETATM   45  N8  UNL     1      20.750 -17.503  -7.194  1.00  0.00     0.085 N 
HETATM   46  C28 UNL     1      20.483 -16.149  -6.791  1.00  0.00     0.309 C 
HETATM   47  C31 UNL     1      17.900 -20.902  -7.196  1.00  0.00     0.125 C 
ENDBRANCH  14  37
ENDBRANCH   3   5
TORSDOF 7
ENDMDL
MODEL 5
REMARK VINA RESULT: -7.803646308      2.659      4.865
REMARK  8 active torsions:
REMARK  status: ('A' for Active; 'I' for Inactive)
REMARK    1  A    between atoms: C2_3  and  C3_5 
REMARK    2  A    between atoms: C4_6  and  S1_7 
REMARK    3  A    between atoms: S1_7  and  C5_8 
REMARK    4  A    between atoms: C5_8  and  C6_9 
REMARK       I    between atoms: C6_9  and  N2_11 
REMARK    5  A    between atoms: N3_14  and  C9_15 
REMARK    6  A    between atoms: C9_15  and  C10_16 
REMARK       I    between atoms: C10_16  and  N4_18 
REMARK    7  A    between atoms: N4_18  and  C11_20 
REMARK    8  A    between atoms: C22_35  and  N7_36 
ROOT
HETATM    1  C1  UNL     1      15.314 -25.818  -4.401  1.00  0.00     0.233 C 
HETATM    2  N1  UNL     1      14.474 -24.826  -4.789  1.00  0.00    -0.391 NA
HETATM    3  C2  UNL     1      13.616 -23.814  -5.186  1.00  0.00     0.328 C 
HETATM    4  O1  UNL     1      13.116 -22.949  -4.386  1.00  0.00    -0.251 OA
ENDROOT
BRANCH   3   5
HETATM    5  C3  UNL     1      13.175 -23.608  -6.566  1.00  0.00     0.098 A 
HETATM    6  C4  UNL     1      12.129 -24.313  -7.182  1.00  0.00     0.092 A 
HETATM    7  N3  UNL     1      11.940 -23.852  -8.412  1.00  0.00    -0.317 N 
HETATM    8  C20 UNL     1      12.842 -22.858  -8.618  1.00  0.00     0.125 A 
HETATM    9  N5  UNL     1      13.093 -22.066  -9.665  1.00  0.00    -0.338 N 
HETATM   10  C32 UNL     1      13.639 -22.678  -7.464  1.00  0.00     0.072 A 
HETATM   11  C21 UNL     1      14.050 -21.120  -9.683  1.00  0.00     0.183 A 
ATOM     12  H5  UNL     1      12.524 -22.187 -10.502  1.00  0.00     0.168 HD
HETATM   13  N6  UNL     1      14.793 -20.953  -8.602  1.00  0.00    -0.338 N 
HETATM   14  C22 UNL     1      14.611 -21.719  -7.470  1.00  0.00     0.119 A 
ATOM     15  H6  UNL     1      15.521 -20.239  -8.606  1.00  0.00     0.168 HD
BRANCH   6  16
HETATM   16  S1  UNL     1      11.232 -25.602  -6.331  1.00  0.00    -0.102 SA
BRANCH  16  17
HETATM   17  C5  UNL     1      11.443 -27.182  -7.206  1.00  0.00     0.183 C 
BRANCH  17  18
HETATM   18  C6  UNL     1      10.076 -27.705  -7.536  1.00  0.00     0.228 C 
HETATM   19  O2  UNL     1       9.436 -27.129  -8.448  1.00  0.00    -0.273 OA
HETATM   20  N2  UNL     1       9.620 -28.819  -6.783  1.00  0.00    -0.360 N 
HETATM   21  C7  UNL     1       8.328 -29.383  -7.066  1.00  0.00     0.152 C 
HETATM   22  C8  UNL     1      10.422 -29.401  -5.724  1.00  0.00     0.152 C 
ENDBRANCH  17  18
ENDBRANCH  16  17
ENDBRANCH   6  16
BRANCH   7  23
HETATM   23  C9  UNL     1      11.003 -24.310  -9.424  1.00  0.00     0.234 C 
BRANCH  23  24
HETATM   24  C10 UNL     1      11.733 -25.204 -10.380  1.00  0.00     0.240 C 
HETATM   25  O3  UNL     1      12.960 -25.056 -10.551  1.00  0.00    -0.271 OA
HETATM   26  N4  UNL     1      11.060 -26.217 -11.104  1.00  0.00    -0.325 N 
ATOM     27  H4  UNL     1      10.058 -26.331 -10.950  1.00  0.00     0.169 HD
BRANCH  26  28
HETATM   28  C11 UNL     1      11.689 -27.072 -12.020  1.00  0.00     0.046 A 
HETATM   29  C12 UNL     1      12.350 -28.212 -11.611  1.00  0.00    -0.034 A 
HETATM   30  C13 UNL     1      12.410 -28.576 -10.172  1.00  0.00     0.050 C 
HETATM   31  C14 UNL     1      12.964 -29.054 -12.526  1.00  0.00     0.015 A 
HETATM   32  C15 UNL     1      12.922 -28.763 -13.859  1.00  0.00    -0.061 A 
HETATM   33  C16 UNL     1      13.599 -29.714 -14.799  1.00  0.00     0.048 C 
HETATM   34  C17 UNL     1      12.269 -27.633 -14.279  1.00  0.00     0.015 A 
HETATM   35  C18 UNL     1      11.648 -26.781 -13.359  1.00  0.00    -0.034 A 
HETATM   36  C19 UNL     1      10.953 -25.565 -13.910  1.00  0.00     0.050 C 
ENDBRANCH  26  28
ENDBRANCH  23  24
ENDBRANCH   7  23
BRANCH  14  37
HETATM   37  N7  UNL     1      15.435 -21.441  -6.380  1.00  0.00    -0.366 N 
HETATM   38  C23 UNL     1      15.289 -20.465  -5.365  1.00  0.00     0.125 C 
HETATM   39  C24 UNL     1      16.463 -19.497  -5.329  1.00  0.00     0.031 C 
HETATM   40  C25 UNL     1      17.750 -20.239  -5.280  1.00  0.00    -0.009 C 
HETATM   41  C26 UNL     1      18.568 -19.907  -4.054  1.00  0.00     0.041 C 
HETATM   42  C29 UNL     1      18.588 -19.782  -6.472  1.00  0.00     0.281 C 
HETATM   43  C30 UNL     1      17.604 -21.747  -5.289  1.00  0.00     0.031 C 
HETATM   44  C27 UNL     1      19.924 -19.620  -4.605  1.00  0.00     0.272 C 
HETATM   45  N8  UNL     1      19.680 -19.037  -5.907  1.00  0.00     0.085 N 
HETATM   46  C28 UNL     1      19.427 -17.633  -5.734  1.00  0.00     0.309 C 
HETATM   47  C31 UNL     1      16.663 -22.263  -6.323  1.00  0.00     0.125 C 
ENDBRANCH  14  37
ENDBRANCH   3   5
TORSDOF 7
ENDMDL
