MODEL 1
REMARK VINA RESULT: -9.461339152      0.000      0.000
REMARK  9 active torsions:
REMARK  status: ('A' for Active; 'I' for Inactive)
REMARK    1  A    between atoms: C5_5  and  N1_6 
REMARK    2  A    between atoms: C6_7  and  N2_8 
REMARK    3  A    between atoms: N2_8  and  S1_10 
REMARK    4  A    between atoms: S1_10  and  C8_13 
REMARK    5  A    between atoms: C11_16  and  N3_17 
REMARK    6  A    between atoms: C17_25  and  N5_26 
REMARK    7  A    between atoms: N5_26  and  C18_28 
REMARK    8  A    between atoms: C21_31  and  N6_32 
REMARK    9  A    between atoms: N6_32  and  S2_34 
ROOT
HETATM    1  N1  UNL     1      15.797 -20.840  -7.266  1.00  0.00    -0.261 N 
HETATM    2  C6  UNL     1      15.070 -21.186  -6.207  1.00  0.00     0.154 A 
HETATM    3  C17 UNL     1      13.924 -21.987  -6.483  1.00  0.00     0.080 A 
HETATM    4  C24 UNL     1      13.603 -22.367  -7.756  1.00  0.00     0.046 A 
HETATM    5  C25 UNL     1      14.388 -21.983  -8.817  1.00  0.00     0.009 A 
HETATM    6  C26 UNL     1      13.987 -22.424 -10.177  1.00  0.00     0.054 C 
HETATM    7  C27 UNL     1      15.470 -21.226  -8.549  1.00  0.00     0.260 A 
HETATM    8  O5  UNL     1      16.198 -20.867  -9.525  1.00  0.00    -0.267 OA
ENDROOT
BRANCH   2   9
HETATM    9  N2  UNL     1      15.288 -20.833  -4.854  1.00  0.00    -0.259 N 
HETATM   10  C7  UNL     1      14.556 -19.629  -4.406  1.00  0.00     0.171 C 
BRANCH   9  11
HETATM   11  S1  UNL     1      16.175 -21.672  -3.679  1.00  0.00     0.266 S 
HETATM   12  O1  UNL     1      16.373 -23.124  -4.106  1.00  0.00    -0.200 OA
HETATM   13  O2  UNL     1      15.451 -21.671  -2.331  1.00  0.00    -0.200 OA
BRANCH  11  14
HETATM   14  C8  UNL     1      17.772 -21.048  -3.378  1.00  0.00     0.080 A 
HETATM   15  C9  UNL     1      18.893 -21.759  -3.112  1.00  0.00     0.027 A 
HETATM   16  C10 UNL     1      20.096 -21.124  -2.912  1.00  0.00     0.031 A 
HETATM   17  C11 UNL     1      20.250 -19.746  -2.964  1.00  0.00     0.039 A 
HETATM   18  C15 UNL     1      19.080 -19.048  -3.239  1.00  0.00     0.031 A 
HETATM   19  C16 UNL     1      17.872 -19.649  -3.442  1.00  0.00     0.027 A 
BRANCH  17  20
HETATM   20  N3  UNL     1      21.506 -19.119  -2.768  1.00  0.00    -0.317 N 
HETATM   21  C12 UNL     1      22.716 -19.670  -2.950  1.00  0.00     0.115 A 
HETATM   22  C13 UNL     1      23.704 -18.729  -2.653  1.00  0.00     0.106 A 
HETATM   23  N4  UNL     1      23.042 -17.621  -2.295  1.00  0.00    -0.360 N 
HETATM   24  C14 UNL     1      21.713 -17.854  -2.365  1.00  0.00     0.188 A 
ATOM     25  H4  UNL     1      23.473 -16.740  -2.014  1.00  0.00     0.166 HD
ENDBRANCH  17  20
ENDBRANCH  11  14
ENDBRANCH   9  11
ENDBRANCH   2   9
BRANCH   1  26
HETATM   26  C5  UNL     1      16.973 -20.050  -7.190  1.00  0.00     0.050 A 
HETATM   27  C4  UNL     1      16.875 -18.694  -7.304  1.00  0.00     0.031 A 
HETATM   28  C3  UNL     1      18.025 -17.927  -7.188  1.00  0.00     0.009 A 
HETATM   29  C2  UNL     1      19.235 -18.513  -6.964  1.00  0.00    -0.061 A 
HETATM   30  C1  UNL     1      20.460 -17.655  -6.848  1.00  0.00     0.048 C 
HETATM   31  C30 UNL     1      19.344 -19.874  -6.849  1.00  0.00     0.015 A 
HETATM   32  C28 UNL     1      18.181 -20.636  -6.965  1.00  0.00    -0.034 A 
HETATM   33  C29 UNL     1      18.326 -22.114  -6.795  1.00  0.00     0.050 C 
ENDBRANCH   1  26
BRANCH   3  34
HETATM   34  N5  UNL     1      13.093 -22.384  -5.432  1.00  0.00    -0.339 N 
ATOM     35  H5  UNL     1      12.843 -21.663  -4.754  1.00  0.00     0.167 HD
BRANCH  34  36
HETATM   36  C18 UNL     1      12.615 -23.545  -5.226  1.00  0.00     0.105 A 
HETATM   37  C19 UNL     1      12.748 -24.104  -3.967  1.00  0.00     0.051 A 
HETATM   38  C20 UNL     1      12.247 -25.353  -3.664  1.00  0.00     0.035 A 
HETATM   39  C21 UNL     1      11.602 -26.066  -4.629  1.00  0.00     0.057 A 
HETATM   40  C23 UNL     1      11.473 -25.492  -5.903  1.00  0.00     0.119 A 
HETATM   41  N7  UNL     1      11.974 -24.296  -6.125  1.00  0.00    -0.350 N 
ATOM     42  H7  UNL     1      11.863 -23.910  -7.063  1.00  0.00     0.166 HD
BRANCH  39  43
HETATM   43  N6  UNL     1      11.030 -27.350  -4.415  1.00  0.00    -0.284 N 
ATOM     44  H6  UNL     1      10.904 -27.693  -3.463  1.00  0.00     0.178 HD
BRANCH  43  45
HETATM   45  S2  UNL     1      10.551 -28.326  -5.733  1.00  0.00     0.227 S 
HETATM   46  C22 UNL     1      10.056 -29.928  -5.094  1.00  0.00     0.186 C 
HETATM   47  O3  UNL     1      11.707 -28.507  -6.697  1.00  0.00    -0.206 OA
HETATM   48  O4  UNL     1       9.405 -27.682  -6.446  1.00  0.00    -0.206 OA
ENDBRANCH  43  45
ENDBRANCH  39  43
ENDBRANCH  34  36
ENDBRANCH   3  34
TORSDOF 9
ENDMDL
MODEL 2
REMARK VINA RESULT: -9.157886586      1.410      2.083
REMARK  9 active torsions:
REMARK  status: ('A' for Active; 'I' for Inactive)
REMARK    1  A    between atoms: C5_5  and  N1_6 
REMARK    2  A    between atoms: C6_7  and  N2_8 
REMARK    3  A    between atoms: N2_8  and  S1_10 
REMARK    4  A    between atoms: S1_10  and  C8_13 
REMARK    5  A    between atoms: C11_16  and  N3_17 
REMARK    6  A    between atoms: C17_25  and  N5_26 
REMARK    7  A    between atoms: N5_26  and  C18_28 
REMARK    8  A    between atoms: C21_31  and  N6_32 
REMARK    9  A    between atoms: N6_32  and  S2_34 
ROOT
HETATM    1  N1  UNL     1      15.525 -21.947  -7.168  1.00  0.00    -0.261 N 
HETATM    2  C6  UNL     1      14.950 -22.502  -6.104  1.00  0.00     0.154 A 
HETATM    3  C17 UNL     1      13.748 -23.222  -6.361  1.00  0.00     0.080 A 
HETATM    4  C24 UNL     1      13.229 -23.328  -7.621  1.00  0.00     0.046 A 
HETATM    5  C25 UNL     1      13.863 -22.736  -8.688  1.00  0.00     0.009 A 
HETATM    6  C26 UNL     1      13.250 -22.883 -10.032  1.00  0.00     0.054 C 
HETATM    7  C27 UNL     1      14.999 -22.056  -8.438  1.00  0.00     0.260 A 
HETATM    8  O5  UNL     1      15.589 -21.506  -9.420  1.00  0.00    -0.267 OA
ENDROOT
BRANCH   2   9
HETATM    9  N2  UNL     1      15.378 -22.438  -4.757  1.00  0.00    -0.259 N 
HETATM   10  C7  UNL     1      15.822 -23.728  -4.190  1.00  0.00     0.171 C 
BRANCH   9  11
HETATM   11  S1  UNL     1      15.549 -21.068  -3.773  1.00  0.00     0.266 S 
HETATM   12  O1  UNL     1      15.126 -21.391  -2.343  1.00  0.00    -0.200 OA
HETATM   13  O2  UNL     1      14.679 -19.913  -4.274  1.00  0.00    -0.200 OA
BRANCH  11  14
HETATM   14  C8  UNL     1      17.170 -20.445  -3.656  1.00  0.00     0.080 A 
HETATM   15  C9  UNL     1      17.557 -19.150  -3.736  1.00  0.00     0.027 A 
HETATM   16  C10 UNL     1      18.882 -18.803  -3.606  1.00  0.00     0.031 A 
HETATM   17  C11 UNL     1      19.894 -19.728  -3.389  1.00  0.00     0.039 A 
HETATM   18  C15 UNL     1      19.461 -21.046  -3.312  1.00  0.00     0.031 A 
HETATM   19  C16 UNL     1      18.155 -21.421  -3.438  1.00  0.00     0.027 A 
BRANCH  17  20
HETATM   20  N3  UNL     1      21.250 -19.340  -3.244  1.00  0.00    -0.317 N 
HETATM   21  C12 UNL     1      21.735 -18.090  -3.266  1.00  0.00     0.115 A 
HETATM   22  C13 UNL     1      23.120 -18.125  -3.088  1.00  0.00     0.106 A 
HETATM   23  N4  UNL     1      23.427 -19.423  -2.963  1.00  0.00    -0.360 N 
HETATM   24  C14 UNL     1      22.299 -20.160  -3.056  1.00  0.00     0.188 A 
ATOM     25  H4  UNL     1      24.366 -19.797  -2.820  1.00  0.00     0.166 HD
ENDBRANCH  17  20
ENDBRANCH  11  14
ENDBRANCH   9  11
ENDBRANCH   2   9
BRANCH   1  26
HETATM   26  C5  UNL     1      16.728 -21.196  -7.112  1.00  0.00     0.050 A 
HETATM   27  C4  UNL     1      17.916 -21.849  -6.961  1.00  0.00     0.031 A 
HETATM   28  C3  UNL     1      19.090 -21.110  -6.949  1.00  0.00     0.009 A 
HETATM   29  C2  UNL     1      19.063 -19.754  -7.084  1.00  0.00    -0.061 A 
HETATM   30  C1  UNL     1      20.350 -18.984  -7.062  1.00  0.00     0.048 C 
HETATM   31  C30 UNL     1      17.874 -19.089  -7.236  1.00  0.00     0.015 A 
HETATM   32  C28 UNL     1      16.700 -19.842  -7.249  1.00  0.00    -0.034 A 
HETATM   33  C29 UNL     1      15.423 -19.093  -7.456  1.00  0.00     0.050 C 
ENDBRANCH   1  26
BRANCH   3  34
HETATM   34  N5  UNL     1      13.067 -23.824  -5.300  1.00  0.00    -0.339 N 
ATOM     35  H5  UNL     1      13.060 -23.313  -4.417  1.00  0.00     0.167 HD
BRANCH  34  36
HETATM   36  C18 UNL     1      12.455 -24.939  -5.313  1.00  0.00     0.105 A 
HETATM   37  C19 UNL     1      12.045 -25.486  -4.109  1.00  0.00     0.051 A 
HETATM   38  C20 UNL     1      11.368 -26.686  -4.043  1.00  0.00     0.035 A 
HETATM   39  C21 UNL     1      11.090 -27.360  -5.194  1.00  0.00     0.057 A 
HETATM   40  C23 UNL     1      11.509 -26.798  -6.409  1.00  0.00     0.119 A 
HETATM   41  N7  UNL     1      12.152 -25.651  -6.402  1.00  0.00    -0.350 N 
ATOM     42  H7  UNL     1      12.443 -25.273  -7.303  1.00  0.00     0.166 HD
BRANCH  39  43
HETATM   43  N6  UNL     1      10.378 -28.590  -5.237  1.00  0.00    -0.284 N 
ATOM     44  H6  UNL     1      10.894 -29.470  -5.240  1.00  0.00     0.178 HD
BRANCH  43  45
HETATM   45  S2  UNL     1       8.671 -28.613  -5.284  1.00  0.00     0.227 S 
HETATM   46  C22 UNL     1       8.161 -29.541  -6.733  1.00  0.00     0.186 C 
HETATM   47  O3  UNL     1       8.131 -27.199  -5.380  1.00  0.00    -0.206 OA
HETATM   48  O4  UNL     1       8.142 -29.264  -4.046  1.00  0.00    -0.206 OA
ENDBRANCH  43  45
ENDBRANCH  39  43
ENDBRANCH  34  36
ENDBRANCH   3  34
TORSDOF 9
ENDMDL
MODEL 3
REMARK VINA RESULT: -9.152975472      4.008     10.725
REMARK  9 active torsions:
REMARK  status: ('A' for Active; 'I' for Inactive)
REMARK    1  A    between atoms: C5_5  and  N1_6 
REMARK    2  A    between atoms: C6_7  and  N2_8 
REMARK    3  A    between atoms: N2_8  and  S1_10 
REMARK    4  A    between atoms: S1_10  and  C8_13 
REMARK    5  A    between atoms: C11_16  and  N3_17 
REMARK    6  A    between atoms: C17_25  and  N5_26 
REMARK    7  A    between atoms: N5_26  and  C18_28 
REMARK    8  A    between atoms: C21_31  and  N6_32 
REMARK    9  A    between atoms: N6_32  and  S2_34 
ROOT
HETATM    1  N1  UNL     1      18.486 -20.468  -3.858  1.00  0.00    -0.261 N 
HETATM    2  C6  UNL     1      18.491 -19.316  -4.523  1.00  0.00     0.154 A 
HETATM    3  C17 UNL     1      19.678 -18.538  -4.395  1.00  0.00     0.080 A 
HETATM    4  C24 UNL     1      20.734 -18.958  -3.635  1.00  0.00     0.046 A 
HETATM    5  C25 UNL     1      20.678 -20.158  -2.967  1.00  0.00     0.009 A 
HETATM    6  C26 UNL     1      21.854 -20.559  -2.155  1.00  0.00     0.054 C 
HETATM    7  C27 UNL     1      19.553 -20.888  -3.092  1.00  0.00     0.260 A 
HETATM    8  O5  UNL     1      19.495 -21.998  -2.476  1.00  0.00    -0.267 OA
ENDROOT
BRANCH   2   9
HETATM    9  N2  UNL     1      17.454 -18.768  -5.315  1.00  0.00    -0.259 N 
HETATM   10  C7  UNL     1      16.467 -17.963  -4.567  1.00  0.00     0.171 C 
BRANCH   9  11
HETATM   11  S1  UNL     1      17.277 -18.827  -7.000  1.00  0.00     0.266 S 
HETATM   12  O1  UNL     1      18.623 -19.108  -7.662  1.00  0.00    -0.200 OA
HETATM   13  O2  UNL     1      16.748 -17.500  -7.549  1.00  0.00    -0.200 OA
BRANCH  11  14
HETATM   14  C8  UNL     1      16.198 -20.062  -7.583  1.00  0.00     0.080 A 
HETATM   15  C9  UNL     1      16.377 -20.864  -8.660  1.00  0.00     0.027 A 
HETATM   16  C10 UNL     1      15.439 -21.815  -8.991  1.00  0.00     0.031 A 
HETATM   17  C11 UNL     1      14.272 -22.019  -8.268  1.00  0.00     0.039 A 
HETATM   18  C15 UNL     1      14.121 -21.179  -7.171  1.00  0.00     0.031 A 
HETATM   19  C16 UNL     1      15.032 -20.227  -6.818  1.00  0.00     0.027 A 
BRANCH  17  20
HETATM   20  N3  UNL     1      13.330 -23.016  -8.624  1.00  0.00    -0.317 N 
HETATM   21  C12 UNL     1      13.123 -23.526  -9.848  1.00  0.00     0.115 A 
HETATM   22  C13 UNL     1      12.111 -24.486  -9.786  1.00  0.00     0.106 A 
HETATM   23  N4  UNL     1      11.735 -24.522  -8.501  1.00  0.00    -0.360 N 
HETATM   24  C14 UNL     1      12.471 -23.635  -7.796  1.00  0.00     0.188 A 
ATOM     25  H4  UNL     1      11.008 -25.124  -8.115  1.00  0.00     0.166 HD
ENDBRANCH  17  20
ENDBRANCH  11  14
ENDBRANCH   9  11
ENDBRANCH   2   9
BRANCH   1  26
HETATM   26  C5  UNL     1      17.397 -21.378  -3.866  1.00  0.00     0.050 A 
HETATM   27  C4  UNL     1      16.487 -21.340  -2.850  1.00  0.00     0.031 A 
HETATM   28  C3  UNL     1      15.404 -22.206  -2.889  1.00  0.00     0.009 A 
HETATM   29  C2  UNL     1      15.246 -23.082  -3.921  1.00  0.00    -0.061 A 
HETATM   30  C1  UNL     1      14.066 -24.007  -3.929  1.00  0.00     0.048 C 
HETATM   31  C30 UNL     1      16.155 -23.127  -4.946  1.00  0.00     0.015 A 
HETATM   32  C28 UNL     1      17.239 -22.251  -4.899  1.00  0.00    -0.034 A 
HETATM   33  C29 UNL     1      18.191 -22.297  -6.050  1.00  0.00     0.050 C 
ENDBRANCH   1  26
BRANCH   3  34
HETATM   34  N5  UNL     1      19.765 -17.305  -5.047  1.00  0.00    -0.339 N 
ATOM     35  H5  UNL     1      18.932 -16.717  -5.020  1.00  0.00     0.167 HD
BRANCH  34  36
HETATM   36  C18 UNL     1      20.770 -16.835  -5.671  1.00  0.00     0.105 A 
HETATM   37  C19 UNL     1      21.466 -15.780  -5.108  1.00  0.00     0.051 A 
HETATM   38  C20 UNL     1      22.571 -15.223  -5.719  1.00  0.00     0.035 A 
HETATM   39  C21 UNL     1      22.996 -15.722  -6.913  1.00  0.00     0.057 A 
HETATM   40  C23 UNL     1      22.284 -16.791  -7.476  1.00  0.00     0.119 A 
HETATM   41  N7  UNL     1      21.238 -17.275  -6.842  1.00  0.00    -0.350 N 
ATOM     42  H7  UNL     1      20.743 -18.051  -7.281  1.00  0.00     0.166 HD
BRANCH  39  43
HETATM   43  N6  UNL     1      24.134 -15.236  -7.613  1.00  0.00    -0.284 N 
ATOM     44  H6  UNL     1      24.007 -14.647  -8.436  1.00  0.00     0.178 HD
BRANCH  43  45
HETATM   45  S2  UNL     1      25.714 -15.624  -7.091  1.00  0.00     0.227 S 
HETATM   46  C22 UNL     1      26.022 -14.766  -5.545  1.00  0.00     0.186 C 
HETATM   47  O3  UNL     1      26.731 -15.176  -8.123  1.00  0.00    -0.206 OA
HETATM   48  O4  UNL     1      25.828 -17.101  -6.889  1.00  0.00    -0.206 OA
ENDBRANCH  43  45
ENDBRANCH  39  43
ENDBRANCH  34  36
ENDBRANCH   3  34
TORSDOF 9
ENDMDL
MODEL 4
REMARK VINA RESULT: -8.951464498      2.638      7.713
REMARK  9 active torsions:
REMARK  status: ('A' for Active; 'I' for Inactive)
REMARK    1  A    between atoms: C5_5  and  N1_6 
REMARK    2  A    between atoms: C6_7  and  N2_8 
REMARK    3  A    between atoms: N2_8  and  S1_10 
REMARK    4  A    between atoms: S1_10  and  C8_13 
REMARK    5  A    between atoms: C11_16  and  N3_17 
REMARK    6  A    between atoms: C17_25  and  N5_26 
REMARK    7  A    between atoms: N5_26  and  C18_28 
REMARK    8  A    between atoms: C21_31  and  N6_32 
REMARK    9  A    between atoms: N6_32  and  S2_34 
ROOT
HETATM    1  N1  UNL     1      14.774 -21.984  -6.932  1.00  0.00    -0.261 N 
HETATM    2  C6  UNL     1      15.318 -20.916  -6.356  1.00  0.00     0.154 A 
HETATM    3  C17 UNL     1      15.865 -19.947  -7.247  1.00  0.00     0.080 A 
HETATM    4  C24 UNL     1      15.827 -20.117  -8.603  1.00  0.00     0.046 A 
HETATM    5  C25 UNL     1      15.252 -21.240  -9.150  1.00  0.00     0.009 A 
HETATM    6  C26 UNL     1      15.244 -21.370 -10.628  1.00  0.00     0.054 C 
HETATM    7  C27 UNL     1      14.738 -22.152  -8.301  1.00  0.00     0.260 A 
HETATM    8  O5  UNL     1      14.206 -23.192  -8.800  1.00  0.00    -0.267 OA
ENDROOT
BRANCH   2   9
HETATM    9  N2  UNL     1      15.438 -20.645  -4.972  1.00  0.00    -0.259 N 
HETATM   10  C7  UNL     1      14.488 -19.637  -4.457  1.00  0.00     0.171 C 
BRANCH   9  11
HETATM   11  S1  UNL     1      16.439 -21.407  -3.836  1.00  0.00     0.266 S 
HETATM   12  O1  UNL     1      16.835 -22.795  -4.330  1.00  0.00    -0.200 OA
HETATM   13  O2  UNL     1      15.728 -21.569  -2.491  1.00  0.00    -0.200 OA
BRANCH  11  14
HETATM   14  C8  UNL     1      17.934 -20.581  -3.502  1.00  0.00     0.080 A 
HETATM   15  C9  UNL     1      18.085 -19.326  -3.015  1.00  0.00     0.027 A 
HETATM   16  C10 UNL     1      19.339 -18.810  -2.783  1.00  0.00     0.031 A 
HETATM   17  C11 UNL     1      20.511 -19.513  -3.024  1.00  0.00     0.039 A 
HETATM   18  C15 UNL     1      20.318 -20.796  -3.524  1.00  0.00     0.031 A 
HETATM   19  C16 UNL     1      19.088 -21.336  -3.764  1.00  0.00     0.027 A 
BRANCH  17  20
HETATM   20  N3  UNL     1      21.790 -18.961  -2.762  1.00  0.00    -0.317 N 
HETATM   21  C12 UNL     1      22.967 -19.601  -2.816  1.00  0.00     0.115 A 
HETATM   22  C13 UNL     1      23.995 -18.712  -2.492  1.00  0.00     0.106 A 
HETATM   23  N4  UNL     1      23.387 -17.543  -2.249  1.00  0.00    -0.360 N 
HETATM   24  C14 UNL     1      22.054 -17.691  -2.412  1.00  0.00     0.188 A 
ATOM     25  H4  UNL     1      23.857 -16.678  -1.981  1.00  0.00     0.166 HD
ENDBRANCH  17  20
ENDBRANCH  11  14
ENDBRANCH   9  11
ENDBRANCH   2   9
BRANCH   1  26
HETATM   26  C5  UNL     1      14.178 -23.050  -6.212  1.00  0.00     0.050 A 
HETATM   27  C4  UNL     1      14.976 -23.978  -5.609  1.00  0.00     0.031 A 
HETATM   28  C3  UNL     1      14.385 -24.994  -4.873  1.00  0.00     0.009 A 
HETATM   29  C2  UNL     1      13.029 -25.069  -4.749  1.00  0.00    -0.061 A 
HETATM   30  C1  UNL     1      12.422 -26.183  -3.949  1.00  0.00     0.048 C 
HETATM   31  C30 UNL     1      12.219 -24.142  -5.350  1.00  0.00     0.015 A 
HETATM   32  C28 UNL     1      12.824 -23.124  -6.087  1.00  0.00    -0.034 A 
HETATM   33  C29 UNL     1      11.916 -22.106  -6.698  1.00  0.00     0.050 C 
ENDBRANCH   1  26
BRANCH   3  34
HETATM   34  N5  UNL     1      16.471 -18.801  -6.729  1.00  0.00    -0.339 N 
ATOM     35  H5  UNL     1      15.845 -18.058  -6.417  1.00  0.00     0.167 HD
BRANCH  34  36
HETATM   36  C18 UNL     1      17.718 -18.580  -6.603  1.00  0.00     0.105 A 
HETATM   37  C19 UNL     1      18.609 -19.551  -7.026  1.00  0.00     0.051 A 
HETATM   38  C20 UNL     1      19.975 -19.381  -6.932  1.00  0.00     0.035 A 
HETATM   39  C21 UNL     1      20.470 -18.224  -6.409  1.00  0.00     0.057 A 
HETATM   40  C23 UNL     1      19.559 -17.247  -5.983  1.00  0.00     0.119 A 
HETATM   41  N7  UNL     1      18.268 -17.472  -6.100  1.00  0.00    -0.350 N 
ATOM     42  H7  UNL     1      17.635 -16.740  -5.779  1.00  0.00     0.166 HD
BRANCH  39  43
HETATM   43  N6  UNL     1      21.858 -17.941  -6.289  1.00  0.00    -0.284 N 
ATOM     44  H6  UNL     1      22.436 -18.506  -5.667  1.00  0.00     0.178 HD
BRANCH  43  45
HETATM   45  S2  UNL     1      22.570 -16.665  -7.173  1.00  0.00     0.227 S 
HETATM   46  C22 UNL     1      22.532 -15.187  -6.156  1.00  0.00     0.186 C 
HETATM   47  O3  UNL     1      21.791 -16.414  -8.450  1.00  0.00    -0.206 OA
HETATM   48  O4  UNL     1      23.983 -17.016  -7.515  1.00  0.00    -0.206 OA
ENDBRANCH  43  45
ENDBRANCH  39  43
ENDBRANCH  34  36
ENDBRANCH   3  34
TORSDOF 9
ENDMDL
MODEL 5
REMARK VINA RESULT: -8.817813017      2.477      4.535
REMARK  9 active torsions:
REMARK  status: ('A' for Active; 'I' for Inactive)
REMARK    1  A    between atoms: C5_5  and  N1_6 
REMARK    2  A    between atoms: C6_7  and  N2_8 
REMARK    3  A    between atoms: N2_8  and  S1_10 
REMARK    4  A    between atoms: S1_10  and  C8_13 
REMARK    5  A    between atoms: C11_16  and  N3_17 
REMARK    6  A    between atoms: C17_25  and  N5_26 
REMARK    7  A    between atoms: N5_26  and  C18_28 
REMARK    8  A    between atoms: C21_31  and  N6_32 
REMARK    9  A    between atoms: N6_32  and  S2_34 
ROOT
HETATM    1  N1  UNL     1      15.067 -22.140  -4.468  1.00  0.00    -0.261 N 
HETATM    2  C6  UNL     1      14.553 -22.086  -5.694  1.00  0.00     0.154 A 
HETATM    3  C17 UNL     1      13.387 -22.876  -5.907  1.00  0.00     0.080 A 
HETATM    4  C24 UNL     1      12.843 -23.636  -4.910  1.00  0.00     0.046 A 
HETATM    5  C25 UNL     1      13.412 -23.658  -3.659  1.00  0.00     0.009 A 
HETATM    6  C26 UNL     1      12.777 -24.505  -2.619  1.00  0.00     0.054 C 
HETATM    7  C27 UNL     1      14.514 -22.908  -3.464  1.00  0.00     0.260 A 
HETATM    8  O5  UNL     1      15.046 -22.925  -2.311  1.00  0.00    -0.267 OA
ENDROOT
BRANCH   2   9
HETATM    9  N2  UNL     1      15.042 -21.360  -6.806  1.00  0.00    -0.259 N 
HETATM   10  C7  UNL     1      14.107 -20.347  -7.339  1.00  0.00     0.171 C 
BRANCH   9  11
HETATM   11  S1  UNL     1      16.582 -21.429  -7.511  1.00  0.00     0.266 S 
HETATM   12  O1  UNL     1      16.461 -21.555  -9.027  1.00  0.00    -0.200 OA
HETATM   13  O2  UNL     1      17.373 -22.633  -6.997  1.00  0.00    -0.200 OA
BRANCH  11  14
HETATM   14  C8  UNL     1      17.581 -20.031  -7.233  1.00  0.00     0.080 A 
HETATM   15  C9  UNL     1      17.189 -18.735  -7.215  1.00  0.00     0.027 A 
HETATM   16  C10 UNL     1      18.095 -17.731  -6.961  1.00  0.00     0.031 A 
HETATM   17  C11 UNL     1      19.441 -17.963  -6.712  1.00  0.00     0.039 A 
HETATM   18  C15 UNL     1      19.807 -19.303  -6.739  1.00  0.00     0.031 A 
HETATM   19  C16 UNL     1      18.933 -20.320  -6.987  1.00  0.00     0.027 A 
BRANCH  17  20
HETATM   20  N3  UNL     1      20.350 -16.910  -6.440  1.00  0.00    -0.317 N 
HETATM   21  C12 UNL     1      20.981 -16.674  -5.280  1.00  0.00     0.115 A 
HETATM   22  C13 UNL     1      21.791 -15.544  -5.413  1.00  0.00     0.106 A 
HETATM   23  N4  UNL     1      21.615 -15.130  -6.675  1.00  0.00    -0.360 N 
HETATM   24  C14 UNL     1      20.745 -15.954  -7.298  1.00  0.00     0.188 A 
ATOM     25  H4  UNL     1      22.067 -14.319  -7.098  1.00  0.00     0.166 HD
ENDBRANCH  17  20
ENDBRANCH  11  14
ENDBRANCH   9  11
ENDBRANCH   2   9
BRANCH   1  26
HETATM   26  C5  UNL     1      16.221 -21.421  -4.065  1.00  0.00     0.050 A 
HETATM   27  C4  UNL     1      17.376 -22.101  -3.807  1.00  0.00     0.031 A 
HETATM   28  C3  UNL     1      18.510 -21.385  -3.453  1.00  0.00     0.009 A 
HETATM   29  C2  UNL     1      18.478 -20.025  -3.362  1.00  0.00    -0.061 A 
HETATM   30  C1  UNL     1      19.722 -19.283  -2.972  1.00  0.00     0.048 C 
HETATM   31  C30 UNL     1      17.323 -19.334  -3.619  1.00  0.00     0.015 A 
HETATM   32  C28 UNL     1      16.189 -20.062  -3.976  1.00  0.00    -0.034 A 
HETATM   33  C29 UNL     1      14.956 -19.277  -4.288  1.00  0.00     0.050 C 
ENDBRANCH   1  26
BRANCH   3  34
HETATM   34  N5  UNL     1      12.789 -22.892  -7.170  1.00  0.00    -0.339 N 
ATOM     35  H5  UNL     1      12.749 -22.000  -7.664  1.00  0.00     0.167 HD
BRANCH  34  36
HETATM   36  C18 UNL     1      12.289 -23.896  -7.771  1.00  0.00     0.105 A 
HETATM   37  C19 UNL     1      12.174 -23.854  -9.150  1.00  0.00     0.051 A 
HETATM   38  C20 UNL     1      11.652 -24.907  -9.873  1.00  0.00     0.035 A 
HETATM   39  C21 UNL     1      11.234 -26.025  -9.217  1.00  0.00     0.057 A 
HETATM   40  C23 UNL     1      11.354 -26.058  -7.820  1.00  0.00     0.119 A 
HETATM   41  N7  UNL     1      11.861 -25.020  -7.191  1.00  0.00    -0.350 N 
ATOM     42  H7  UNL     1      11.931 -25.078  -6.175  1.00  0.00     0.166 HD
BRANCH  39  43
HETATM   43  N6  UNL     1      10.703 -27.172  -9.869  1.00  0.00    -0.284 N 
ATOM     44  H6  UNL     1       9.716 -27.195 -10.123  1.00  0.00     0.178 HD
BRANCH  43  45
HETATM   45  S2  UNL     1      11.699 -28.512 -10.232  1.00  0.00     0.227 S 
HETATM   46  C22 UNL     1      10.823 -29.564 -11.392  1.00  0.00     0.186 C 
HETATM   47  O3  UNL     1      11.998 -29.299  -8.971  1.00  0.00    -0.206 OA
HETATM   48  O4  UNL     1      12.981 -28.037 -10.837  1.00  0.00    -0.206 OA
ENDBRANCH  43  45
ENDBRANCH  39  43
ENDBRANCH  34  36
ENDBRANCH   3  34
TORSDOF 9
ENDMDL
