MODEL 1
REMARK VINA RESULT: -7.511187007      0.000      0.000
REMARK  9 active torsions:
REMARK  status: ('A' for Active; 'I' for Inactive)
REMARK    1  A    between atoms: C2_2  and  O1_4 
REMARK    2  A    between atoms: C2_2  and  C13_41 
REMARK    3  A    between atoms: O1_4  and  N1_5 
REMARK       I    between atoms: N1_5  and  C4_7 
REMARK    4  A    between atoms: C4_7  and  C5_9 
REMARK    5  A    between atoms: C5_9  and  O3_10 
REMARK    6  A    between atoms: C5_9  and  C6_12 
REMARK    7  A    between atoms: C11_24  and  N6_25 
REMARK    8  A    between atoms: N6_25  and  N7_27 
REMARK    9  A    between atoms: C12_33  and  N11_34 
ROOT
HETATM    1  C6  UNL     1     -49.704  11.119  -0.408  1.00  0.00     0.151 A 
HETATM    2  N2  UNL     1     -49.514  11.936   0.651  1.00  0.00    -0.173 N 
ATOM      3  H2  UNL     1     -48.631  12.382   0.901  1.00  0.00     0.185 HD
HETATM    4  C7  UNL     1     -50.669  12.068   1.322  1.00  0.00     0.718 A 
HETATM    5  N3  UNL     1     -51.585  11.322   0.668  1.00  0.00    -0.091 N 
HETATM    6  N4  UNL     1     -50.982  10.755  -0.376  1.00  0.00    -0.267 N 
ATOM      7  H4  UNL     1     -51.433  10.136  -1.049  1.00  0.00     0.189 HD
HETATM    8  C8  UNL     1     -52.989  11.086   0.911  1.00  0.00     0.152 C 
HETATM    9  C9  UNL     1     -53.334   9.670   0.432  1.00  0.00     0.066 C 
HETATM   10  C10 UNL     1     -53.818  12.004   0.005  1.00  0.00     0.066 C 
HETATM   11  N5  UNL     1     -53.441  11.222   2.236  1.00  0.00    -0.195 N 
ATOM     12  H5  UNL     1     -54.297  10.693   2.403  1.00  0.00     0.180 HD
HETATM   13  C11 UNL     1     -53.050  11.842   3.283  1.00  0.00     0.711 C 
HETATM   14  N12 UNL     1     -51.903  12.670   3.420  1.00  0.00    -0.117 N 
ATOM     15  H12 UNL     1     -51.835  13.193   4.293  1.00  0.00     0.206 HD
HETATM   16  N13 UNL     1     -50.857  12.861   2.514  1.00  0.00    -0.116 N 
ATOM     17  H13 UNL     1     -50.186  13.606   2.706  1.00  0.00     0.206 HD
ENDROOT
BRANCH   1  18
HETATM   18  C5  UNL     1     -48.666  10.707  -1.424  1.00  0.00     0.281 C 
BRANCH  18  19
HETATM   19  C4  UNL     1     -49.155   9.674  -2.342  1.00  0.00     0.277 C 
HETATM   20  N1  UNL     1     -48.666   8.327  -2.207  1.00  0.00    -0.231 N 
ATOM     21  H1  UNL     1     -47.985   8.097  -1.483  1.00  0.00     0.197 HD
HETATM   22  O2  UNL     1     -49.982   9.924  -3.234  1.00  0.00    -0.268 OA
BRANCH  20  23
HETATM   23  O1  UNL     1     -49.123   7.355  -3.059  1.00  0.00    -0.256 OA
BRANCH  23  24
HETATM   24  C2  UNL     1     -49.125   6.144  -2.345  1.00  0.00     0.169 C 
HETATM   25  C1  UNL     1     -48.016   6.218  -1.329  1.00  0.00     0.060 C 
HETATM   26  C3  UNL     1     -48.821   5.031  -3.318  1.00  0.00     0.060 C 
BRANCH  24  27
HETATM   27  C13 UNL     1     -50.450   5.917  -1.714  1.00  0.00     0.211 C 
HETATM   28  O4  UNL     1     -50.657   4.796  -1.184  1.00  0.00    -0.646 OA
HETATM   29  O5  UNL     1     -51.445   6.885  -1.693  1.00  0.00    -0.646 OA
ENDBRANCH  24  27
ENDBRANCH  23  24
ENDBRANCH  20  23
ENDBRANCH  18  19
BRANCH  18  30
HETATM   30  O3  UNL     1     -48.093  11.796  -2.032  1.00  0.00    -0.378 OA
ATOM     31  H3  UNL     1     -48.642  12.231  -2.674  1.00  0.00     0.211 HD
ENDBRANCH  18  30
ENDBRANCH   1  18
BRANCH  13  32
HETATM   32  N6  UNL     1     -53.832  11.708   4.477  1.00  0.00    -0.093 N 
ATOM     33  H6  UNL     1     -54.663  12.290   4.580  1.00  0.00     0.208 HD
BRANCH  32  34
HETATM   34  N7  UNL     1     -53.515  10.826   5.502  1.00  0.00     0.008 N 
HETATM   35  N8  UNL     1     -52.922  11.148   6.634  1.00  0.00    -0.189 N 
HETATM   36  N9  UNL     1     -52.766  10.070   7.398  1.00  0.00     0.010 NA
ATOM     37  H8  UNL     1     -52.623  12.090   6.887  1.00  0.00     0.208 HD
HETATM   38  N10 UNL     1     -53.268   9.029   6.751  1.00  0.00    -0.112 N 
HETATM   39  C12 UNL     1     -53.730   9.514   5.577  1.00  0.00     0.727 A 
ATOM     40  H10 UNL     1     -53.299   8.061   7.073  1.00  0.00     0.203 HD
BRANCH  39  41
HETATM   41  N11 UNL     1     -54.291   8.745   4.694  1.00  0.00    -0.230 N 
ATOM     42 2H11 UNL     1     -54.738   9.124   3.859  1.00  0.00     0.174 HD
ATOM     43 1H11 UNL     1     -54.363   7.728   4.705  1.00  0.00     0.174 HD
ENDBRANCH  39  41
ENDBRANCH  32  34
ENDBRANCH  13  32
TORSDOF 9
ENDMDL
MODEL 2
REMARK VINA RESULT: -7.131732643      0.707      1.017
REMARK  9 active torsions:
REMARK  status: ('A' for Active; 'I' for Inactive)
REMARK    1  A    between atoms: C2_2  and  O1_4 
REMARK    2  A    between atoms: C2_2  and  C13_41 
REMARK    3  A    between atoms: O1_4  and  N1_5 
REMARK       I    between atoms: N1_5  and  C4_7 
REMARK    4  A    between atoms: C4_7  and  C5_9 
REMARK    5  A    between atoms: C5_9  and  O3_10 
REMARK    6  A    between atoms: C5_9  and  C6_12 
REMARK    7  A    between atoms: C11_24  and  N6_25 
REMARK    8  A    between atoms: N6_25  and  N7_27 
REMARK    9  A    between atoms: C12_33  and  N11_34 
ROOT
HETATM    1  C6  UNL     1     -49.910  11.049  -0.374  1.00  0.00     0.151 A 
HETATM    2  N2  UNL     1     -49.824  11.792   0.750  1.00  0.00    -0.173 N 
ATOM      3  H2  UNL     1     -48.977  12.240   1.099  1.00  0.00     0.185 HD
HETATM    4  C7  UNL     1     -51.031  11.848   1.337  1.00  0.00     0.718 A 
HETATM    5  N3  UNL     1     -51.873  11.129   0.564  1.00  0.00    -0.091 N 
HETATM    6  N4  UNL     1     -51.175  10.653  -0.466  1.00  0.00    -0.267 N 
ATOM      7  H4  UNL     1     -51.556  10.073  -1.214  1.00  0.00     0.189 HD
HETATM    8  C8  UNL     1     -53.283  10.842   0.680  1.00  0.00     0.152 C 
HETATM    9  C9  UNL     1     -53.549   9.457   0.079  1.00  0.00     0.066 C 
HETATM   10  C10 UNL     1     -54.067  11.803  -0.222  1.00  0.00     0.066 C 
HETATM   11  N5  UNL     1     -53.838  10.872   1.972  1.00  0.00    -0.195 N 
ATOM     12  H5  UNL     1     -54.688  10.313   2.035  1.00  0.00     0.180 HD
HETATM   13  C11 UNL     1     -53.546  11.425   3.087  1.00  0.00     0.711 C 
HETATM   14  N12 UNL     1     -52.438  12.269   3.370  1.00  0.00    -0.117 N 
ATOM     15  H12 UNL     1     -52.451  12.729   4.280  1.00  0.00     0.206 HD
HETATM   16  N13 UNL     1     -51.332  12.549   2.563  1.00  0.00    -0.116 N 
ATOM     17  H13 UNL     1     -50.700  13.294   2.858  1.00  0.00     0.206 HD
ENDROOT
BRANCH   1  18
HETATM   18  C5  UNL     1     -48.786  10.735  -1.332  1.00  0.00     0.281 C 
BRANCH  18  19
HETATM   19  C4  UNL     1     -49.152   9.710  -2.314  1.00  0.00     0.277 C 
HETATM   20  N1  UNL     1     -48.661   8.367  -2.141  1.00  0.00    -0.231 N 
ATOM     21  H1  UNL     1     -48.063   8.137  -1.348  1.00  0.00     0.197 HD
HETATM   22  O2  UNL     1     -49.876   9.962  -3.290  1.00  0.00    -0.268 OA
BRANCH  20  23
HETATM   23  O1  UNL     1     -49.003   7.402  -3.053  1.00  0.00    -0.256 OA
BRANCH  23  24
HETATM   24  C2  UNL     1     -49.060   6.180  -2.361  1.00  0.00     0.169 C 
HETATM   25  C1  UNL     1     -47.970   6.198  -1.324  1.00  0.00     0.060 C 
HETATM   26  C3  UNL     1     -48.776   5.075  -3.349  1.00  0.00     0.060 C 
BRANCH  24  27
HETATM   27  C13 UNL     1     -50.405   5.988  -1.760  1.00  0.00     0.211 C 
HETATM   28  O4  UNL     1     -50.583   4.964  -1.052  1.00  0.00    -0.646 OA
HETATM   29  O5  UNL     1     -51.446   6.885  -1.952  1.00  0.00    -0.646 OA
ENDBRANCH  24  27
ENDBRANCH  23  24
ENDBRANCH  20  23
ENDBRANCH  18  19
BRANCH  18  30
HETATM   30  O3  UNL     1     -48.243  11.878  -1.865  1.00  0.00    -0.378 OA
ATOM     31  H3  UNL     1     -48.591  12.689  -1.513  1.00  0.00     0.211 HD
ENDBRANCH  18  30
ENDBRANCH   1  18
BRANCH  13  32
HETATM   32  N6  UNL     1     -54.412  11.187   4.204  1.00  0.00    -0.093 N 
ATOM     33  H6  UNL     1     -55.404  11.403   4.103  1.00  0.00     0.208 HD
BRANCH  32  34
HETATM   34  N7  UNL     1     -53.969  10.678   5.418  1.00  0.00     0.008 N 
HETATM   35  N8  UNL     1     -53.209   9.611   5.569  1.00  0.00    -0.189 N 
HETATM   36  N9  UNL     1     -52.965   9.396   6.860  1.00  0.00     0.010 NA
ATOM     37  H8  UNL     1     -52.859   9.033   4.806  1.00  0.00     0.208 HD
HETATM   38  N10 UNL     1     -53.578  10.340   7.559  1.00  0.00    -0.112 N 
HETATM   39  C12 UNL     1     -54.195  11.128   6.650  1.00  0.00     0.727 A 
ATOM     40  H10 UNL     1     -53.582  10.450   8.573  1.00  0.00     0.203 HD
BRANCH  39  41
HETATM   41  N11 UNL     1     -54.895  12.161   7.007  1.00  0.00    -0.230 N 
ATOM     42 2H11 UNL     1     -54.478  13.089   7.089  1.00  0.00     0.174 HD
ATOM     43 1H11 UNL     1     -55.887  12.197   7.240  1.00  0.00     0.174 HD
ENDBRANCH  39  41
ENDBRANCH  32  34
ENDBRANCH  13  32
TORSDOF 9
ENDMDL
MODEL 3
REMARK VINA RESULT: -7.118872038      4.491      8.792
REMARK  9 active torsions:
REMARK  status: ('A' for Active; 'I' for Inactive)
REMARK    1  A    between atoms: C2_2  and  O1_4 
REMARK    2  A    between atoms: C2_2  and  C13_41 
REMARK    3  A    between atoms: O1_4  and  N1_5 
REMARK       I    between atoms: N1_5  and  C4_7 
REMARK    4  A    between atoms: C4_7  and  C5_9 
REMARK    5  A    between atoms: C5_9  and  O3_10 
REMARK    6  A    between atoms: C5_9  and  C6_12 
REMARK    7  A    between atoms: C11_24  and  N6_25 
REMARK    8  A    between atoms: N6_25  and  N7_27 
REMARK    9  A    between atoms: C12_33  and  N11_34 
ROOT
HETATM    1  C6  UNL     1     -53.741  11.048   1.937  1.00  0.00     0.151 A 
HETATM    2  N2  UNL     1     -54.256   9.977   1.295  1.00  0.00    -0.173 N 
ATOM      3  H2  UNL     1     -55.086   9.459   1.584  1.00  0.00     0.185 HD
HETATM    4  C7  UNL     1     -53.504   9.702   0.217  1.00  0.00     0.718 A 
HETATM    5  N3  UNL     1     -52.511  10.616   0.193  1.00  0.00    -0.091 N 
HETATM    6  N4  UNL     1     -52.670  11.421   1.242  1.00  0.00    -0.267 N 
ATOM      7  H4  UNL     1     -52.062  12.206   1.477  1.00  0.00     0.189 HD
HETATM    8  C8  UNL     1     -51.416  10.827  -0.724  1.00  0.00     0.152 C 
HETATM    9  C9  UNL     1     -50.228  11.400   0.060  1.00  0.00     0.066 C 
HETATM   10  C10 UNL     1     -51.792  11.942  -1.708  1.00  0.00     0.066 C 
HETATM   11  N5  UNL     1     -50.963   9.710  -1.449  1.00  0.00    -0.195 N 
ATOM     12  H5  UNL     1     -49.999   9.824  -1.763  1.00  0.00     0.180 HD
HETATM   13  C11 UNL     1     -51.455   8.589  -1.815  1.00  0.00     0.711 C 
HETATM   14  N12 UNL     1     -52.762   8.093  -1.557  1.00  0.00    -0.117 N 
ATOM     15  H12 UNL     1     -53.019   7.239  -2.052  1.00  0.00     0.206 HD
HETATM   16  N13 UNL     1     -53.741   8.624  -0.714  1.00  0.00    -0.116 N 
ATOM     17  H13 UNL     1     -54.680   8.226  -0.758  1.00  0.00     0.206 HD
ENDROOT
BRANCH   1  18
HETATM   18  C5  UNL     1     -54.279  11.690   3.192  1.00  0.00     0.281 C 
BRANCH  18  19
HETATM   19  C4  UNL     1     -54.539  10.716   4.257  1.00  0.00     0.277 C 
HETATM   20  N1  UNL     1     -55.109  11.171   5.499  1.00  0.00    -0.231 N 
ATOM     21  H1  UNL     1     -55.325  12.158   5.635  1.00  0.00     0.197 HD
HETATM   22  O2  UNL     1     -54.284   9.509   4.121  1.00  0.00    -0.268 OA
BRANCH  20  23
HETATM   23  O1  UNL     1     -55.358  10.265   6.497  1.00  0.00    -0.256 OA
BRANCH  23  24
HETATM   24  C2  UNL     1     -55.651  10.998   7.660  1.00  0.00     0.169 C 
HETATM   25  C1  UNL     1     -56.256  10.044   8.654  1.00  0.00     0.060 C 
HETATM   26  C3  UNL     1     -56.677  12.046   7.301  1.00  0.00     0.060 C 
BRANCH  24  27
HETATM   27  C13 UNL     1     -54.424  11.651   8.183  1.00  0.00     0.211 C 
HETATM   28  O4  UNL     1     -54.570  12.559   9.041  1.00  0.00    -0.646 OA
HETATM   29  O5  UNL     1     -53.150  11.297   7.762  1.00  0.00    -0.646 OA
ENDBRANCH  24  27
ENDBRANCH  23  24
ENDBRANCH  20  23
ENDBRANCH  18  19
BRANCH  18  30
HETATM   30  O3  UNL     1     -53.524  12.772   3.570  1.00  0.00    -0.378 OA
ATOM     31  H3  UNL     1     -52.812  12.989   2.980  1.00  0.00     0.211 HD
ENDBRANCH  18  30
ENDBRANCH   1  18
BRANCH  13  32
HETATM   32  N6  UNL     1     -50.622   7.702  -2.572  1.00  0.00    -0.093 N 
ATOM     33  H6  UNL     1     -50.864   7.524  -3.547  1.00  0.00     0.208 HD
BRANCH  32  34
HETATM   34  N7  UNL     1     -49.501   7.073  -2.046  1.00  0.00     0.008 N 
HETATM   35  N8  UNL     1     -48.276   7.562  -2.049  1.00  0.00    -0.189 N 
HETATM   36  N9  UNL     1     -47.437   6.710  -1.466  1.00  0.00     0.010 NA
ATOM     37  H8  UNL     1     -48.010   8.464  -2.444  1.00  0.00     0.208 HD
HETATM   38  N10 UNL     1     -48.128   5.649  -1.077  1.00  0.00    -0.112 N 
HETATM   39  C12 UNL     1     -49.408   5.890  -1.444  1.00  0.00     0.727 A 
ATOM     40  H10 UNL     1     -47.770   4.822  -0.600  1.00  0.00     0.203 HD
BRANCH  39  41
HETATM   41  N11 UNL     1     -50.357   5.037  -1.207  1.00  0.00    -0.230 N 
ATOM     42 2H11 UNL     1     -51.200   5.001  -1.781  1.00  0.00     0.174 HD
ATOM     43 1H11 UNL     1     -50.399   4.334  -0.470  1.00  0.00     0.174 HD
ENDBRANCH  39  41
ENDBRANCH  32  34
ENDBRANCH  13  32
TORSDOF 9
ENDMDL
MODEL 4
REMARK VINA RESULT: -7.088667169      4.882      9.030
REMARK  9 active torsions:
REMARK  status: ('A' for Active; 'I' for Inactive)
REMARK    1  A    between atoms: C2_2  and  O1_4 
REMARK    2  A    between atoms: C2_2  and  C13_41 
REMARK    3  A    between atoms: O1_4  and  N1_5 
REMARK       I    between atoms: N1_5  and  C4_7 
REMARK    4  A    between atoms: C4_7  and  C5_9 
REMARK    5  A    between atoms: C5_9  and  O3_10 
REMARK    6  A    between atoms: C5_9  and  C6_12 
REMARK    7  A    between atoms: C11_24  and  N6_25 
REMARK    8  A    between atoms: N6_25  and  N7_27 
REMARK    9  A    between atoms: C12_33  and  N11_34 
ROOT
HETATM    1  C6  UNL     1     -55.136   8.548   3.864  1.00  0.00     0.151 A 
HETATM    2  N2  UNL     1     -54.912   8.004   2.649  1.00  0.00    -0.173 N 
ATOM      3  H2  UNL     1     -55.125   7.042   2.384  1.00  0.00     0.185 HD
HETATM    4  C7  UNL     1     -54.366   8.929   1.843  1.00  0.00     0.718 A 
HETATM    5  N3  UNL     1     -54.251  10.060   2.572  1.00  0.00    -0.091 N 
HETATM    6  N4  UNL     1     -54.722   9.809   3.793  1.00  0.00    -0.267 N 
ATOM      7  H4  UNL     1     -54.759  10.483   4.557  1.00  0.00     0.189 HD
HETATM    8  C8  UNL     1     -53.749  11.373   2.244  1.00  0.00     0.152 C 
HETATM    9  C9  UNL     1     -53.129  11.987   3.505  1.00  0.00     0.066 C 
HETATM   10  C10 UNL     1     -54.931  12.295   1.916  1.00  0.00     0.066 C 
HETATM   11  N5  UNL     1     -52.803  11.456   1.206  1.00  0.00    -0.195 N 
ATOM     12  H5  UNL     1     -52.229  12.296   1.279  1.00  0.00     0.180 HD
HETATM   13  C11 UNL     1     -52.482  10.745   0.194  1.00  0.00     0.711 C 
HETATM   14  N12 UNL     1     -53.062   9.514  -0.217  1.00  0.00    -0.117 N 
ATOM     15  H12 UNL     1     -52.768   9.168  -1.130  1.00  0.00     0.206 HD
HETATM   16  N13 UNL     1     -53.983   8.717   0.467  1.00  0.00    -0.116 N 
ATOM     17  H13 UNL     1     -54.411   7.939  -0.036  1.00  0.00     0.206 HD
ENDROOT
BRANCH   1  18
HETATM   18  C5  UNL     1     -55.740   7.856   5.063  1.00  0.00     0.281 C 
BRANCH  18  19
HETATM   19  C4  UNL     1     -55.304   8.444   6.333  1.00  0.00     0.277 C 
HETATM   20  N1  UNL     1     -56.246   9.207   7.111  1.00  0.00    -0.231 N 
ATOM     21  H1  UNL     1     -57.201   9.337   6.779  1.00  0.00     0.197 HD
HETATM   22  O2  UNL     1     -54.148   8.304   6.761  1.00  0.00    -0.268 OA
BRANCH  20  23
HETATM   23  O1  UNL     1     -55.846   9.756   8.302  1.00  0.00    -0.256 OA
BRANCH  23  24
HETATM   24  C2  UNL     1     -55.954  11.151   8.172  1.00  0.00     0.169 C 
HETATM   25  C1  UNL     1     -57.029  11.611   9.120  1.00  0.00     0.060 C 
HETATM   26  C3  UNL     1     -56.389  11.453   6.758  1.00  0.00     0.060 C 
BRANCH  24  27
HETATM   27  C13 UNL     1     -54.647  11.800   8.449  1.00  0.00     0.211 C 
HETATM   28  O4  UNL     1     -54.646  12.806   9.204  1.00  0.00    -0.646 OA
HETATM   29  O5  UNL     1     -53.454  11.339   7.910  1.00  0.00    -0.646 OA
ENDBRANCH  24  27
ENDBRANCH  23  24
ENDBRANCH  20  23
ENDBRANCH  18  19
BRANCH  18  30
HETATM   30  O3  UNL     1     -57.097   7.707   4.930  1.00  0.00    -0.378 OA
ATOM     31  H3  UNL     1     -57.604   8.494   5.096  1.00  0.00     0.211 HD
ENDBRANCH  18  30
ENDBRANCH   1  18
BRANCH  13  32
HETATM   32  N6  UNL     1     -51.416  11.209  -0.644  1.00  0.00    -0.093 N 
ATOM     33  H6  UNL     1     -51.621  11.407  -1.623  1.00  0.00     0.208 HD
BRANCH  32  34
HETATM   34  N7  UNL     1     -50.117  11.402  -0.191  1.00  0.00     0.008 N 
HETATM   35  N8  UNL     1     -49.765  12.173   0.818  1.00  0.00    -0.189 N 
HETATM   36  N9  UNL     1     -48.446  12.135   0.992  1.00  0.00     0.010 NA
ATOM     37  H8  UNL     1     -50.412  12.723   1.385  1.00  0.00     0.208 HD
HETATM   38  N10 UNL     1     -47.933  11.324   0.080  1.00  0.00    -0.112 N 
HETATM   39  C12 UNL     1     -48.982  10.876  -0.646  1.00  0.00     0.727 A 
ATOM     40  H10 UNL     1     -46.949  11.086  -0.049  1.00  0.00     0.203 HD
BRANCH  39  41
HETATM   41  N11 UNL     1     -48.825  10.051  -1.636  1.00  0.00    -0.230 N 
ATOM     42 2H11 UNL     1     -49.486  10.013  -2.412  1.00  0.00     0.174 HD
ATOM     43 1H11 UNL     1     -48.077   9.372  -1.773  1.00  0.00     0.174 HD
ENDBRANCH  39  41
ENDBRANCH  32  34
ENDBRANCH  13  32
TORSDOF 9
ENDMDL
MODEL 5
REMARK VINA RESULT: -7.071816947      3.695      8.459
REMARK  9 active torsions:
REMARK  status: ('A' for Active; 'I' for Inactive)
REMARK    1  A    between atoms: C2_2  and  O1_4 
REMARK    2  A    between atoms: C2_2  and  C13_41 
REMARK    3  A    between atoms: O1_4  and  N1_5 
REMARK       I    between atoms: N1_5  and  C4_7 
REMARK    4  A    between atoms: C4_7  and  C5_9 
REMARK    5  A    between atoms: C5_9  and  O3_10 
REMARK    6  A    between atoms: C5_9  and  C6_12 
REMARK    7  A    between atoms: C11_24  and  N6_25 
REMARK    8  A    between atoms: N6_25  and  N7_27 
REMARK    9  A    between atoms: C12_33  and  N11_34 
ROOT
HETATM    1  C6  UNL     1     -52.962  10.947   0.644  1.00  0.00     0.151 A 
HETATM    2  N2  UNL     1     -53.078   9.866  -0.156  1.00  0.00    -0.173 N 
ATOM      3  H2  UNL     1     -53.907   9.276  -0.235  1.00  0.00     0.185 HD
HETATM    4  C7  UNL     1     -51.932   9.690  -0.833  1.00  0.00     0.718 A 
HETATM    5  N3  UNL     1     -51.096  10.676  -0.444  1.00  0.00    -0.091 N 
HETATM    6  N4  UNL     1     -51.737  11.427   0.451  1.00  0.00    -0.267 N 
ATOM      7  H4  UNL     1     -51.347  12.246   0.917  1.00  0.00     0.189 HD
HETATM    8  C8  UNL     1     -49.745  11.005  -0.832  1.00  0.00     0.152 C 
HETATM    9  C9  UNL     1     -49.033  11.636   0.372  1.00  0.00     0.066 C 
HETATM   10  C10 UNL     1     -49.780  12.125  -1.879  1.00  0.00     0.066 C 
HETATM   11  N5  UNL     1     -48.943   9.954  -1.313  1.00  0.00    -0.195 N 
ATOM     12  H5  UNL     1     -47.949  10.153  -1.204  1.00  0.00     0.180 HD
HETATM   13  C11 UNL     1     -49.146   8.814  -1.853  1.00  0.00     0.711 C 
HETATM   14  N12 UNL     1     -50.398   8.211  -2.155  1.00  0.00    -0.117 N 
ATOM     15  H12 UNL     1     -50.357   7.360  -2.715  1.00  0.00     0.206 HD
HETATM   16  N13 UNL     1     -51.677   8.633  -1.784  1.00  0.00    -0.116 N 
ATOM     17  H13 UNL     1     -52.478   8.167  -2.210  1.00  0.00     0.206 HD
ENDROOT
BRANCH   1  18
HETATM   18  C5  UNL     1     -54.018  11.498   1.572  1.00  0.00     0.281 C 
BRANCH  18  19
HETATM   19  C4  UNL     1     -53.480  11.861   2.887  1.00  0.00     0.277 C 
HETATM   20  N1  UNL     1     -54.341  11.795   4.039  1.00  0.00    -0.231 N 
ATOM     21  H1  UNL     1     -55.313  11.504   3.939  1.00  0.00     0.197 HD
HETATM   22  O2  UNL     1     -52.302  12.221   3.039  1.00  0.00    -0.268 OA
BRANCH  20  23
HETATM   23  O1  UNL     1     -53.843  12.129   5.272  1.00  0.00    -0.256 OA
BRANCH  23  24
HETATM   24  C2  UNL     1     -54.388  11.223   6.198  1.00  0.00     0.169 C 
HETATM   25  C1  UNL     1     -55.845  11.053   5.859  1.00  0.00     0.060 C 
HETATM   26  C3  UNL     1     -54.276  11.840   7.571  1.00  0.00     0.060 C 
BRANCH  24  27
HETATM   27  C13 UNL     1     -53.648   9.936   6.160  1.00  0.00     0.211 C 
HETATM   28  O4  UNL     1     -53.865   9.170   5.186  1.00  0.00    -0.646 OA
HETATM   29  O5  UNL     1     -52.746   9.561   7.146  1.00  0.00    -0.646 OA
ENDBRANCH  24  27
ENDBRANCH  23  24
ENDBRANCH  20  23
ENDBRANCH  18  19
BRANCH  18  30
HETATM   30  O3  UNL     1     -54.765  12.475   0.964  1.00  0.00    -0.378 OA
ATOM     31  H3  UNL     1     -54.354  12.883   0.211  1.00  0.00     0.211 HD
ENDBRANCH  18  30
ENDBRANCH   1  18
BRANCH  13  32
HETATM   32  N6  UNL     1     -48.005   8.023  -2.206  1.00  0.00    -0.093 N 
ATOM     33  H6  UNL     1     -47.136   8.503  -2.439  1.00  0.00     0.208 HD
BRANCH  32  34
HETATM   34  N7  UNL     1     -48.022   6.635  -2.248  1.00  0.00     0.008 N 
HETATM   35  N8  UNL     1     -48.217   5.840  -1.214  1.00  0.00    -0.189 N 
HETATM   36  N9  UNL     1     -48.175   4.566  -1.595  1.00  0.00     0.010 NA
ATOM     37  H8  UNL     1     -48.376   6.157  -0.257  1.00  0.00     0.208 HD
HETATM   38  N10 UNL     1     -47.950   4.532  -2.900  1.00  0.00    -0.112 N 
HETATM   39  C12 UNL     1     -47.858   5.824  -3.290  1.00  0.00     0.727 A 
ATOM     40  H10 UNL     1     -47.863   3.704  -3.489  1.00  0.00     0.203 HD
BRANCH  39  41
HETATM   41  N11 UNL     1     -47.638   6.149  -4.527  1.00  0.00    -0.230 N 
ATOM     42 2H11 UNL     1     -46.706   6.402  -4.858  1.00  0.00     0.174 HD
ATOM     43 1H11 UNL     1     -48.310   6.196  -5.293  1.00  0.00     0.174 HD
ENDBRANCH  39  41
ENDBRANCH  32  34
ENDBRANCH  13  32
TORSDOF 9
ENDMDL
