MODEL 1
REMARK VINA RESULT: -8.078090606      0.000      0.000
REMARK  11 active torsions:
REMARK  status: ('A' for Active; 'I' for Inactive)
REMARK    1  A    between atoms: N1_2  and  C2_4 
REMARK    2  A    between atoms: C3_9  and  C4_10 
REMARK    3  A    between atoms: C4_10  and  O1_11 
REMARK    4  A    between atoms: C4_10  and  C5_13 
REMARK    5  A    between atoms: C5_13  and  N4_14 
REMARK    6  A    between atoms: N4_14  and  C6_16 
REMARK    7  A    between atoms: N5_18  and  C8_19 
REMARK    8  A    between atoms: C9_22  and  N7_23 
REMARK    9  A    between atoms: C12_40  and  C13_41 
REMARK   10  A    between atoms: C13_41  and  O2_42 
REMARK   11  A    between atoms: C13_41  and  O3_44 
ROOT
HETATM    1  C6  UNL     1     -50.685  12.674   2.547  1.00  0.00     0.075 A 
HETATM    2  C7  UNL     1     -51.974  12.175   2.548  1.00  0.00     0.166 A 
HETATM    3  N5  UNL     1     -52.587  12.563   3.679  1.00  0.00    -0.092 N 
HETATM    4  N14 UNL     1     -51.732  13.285   4.383  1.00  0.00    -0.277 N 
ATOM      5  H14 UNL     1     -51.931  13.710   5.289  1.00  0.00     0.188 HD
HETATM    6  C12 UNL     1     -50.543  13.379   3.719  1.00  0.00     0.108 A 
ENDROOT
BRANCH   3   7
HETATM    7  C8  UNL     1     -53.931  12.256   4.069  1.00  0.00     0.755 A 
HETATM    8  N6  UNL     1     -54.937  12.348   3.184  1.00  0.00    -0.018 N 
HETATM    9  C9  UNL     1     -56.216  12.072   3.502  1.00  0.00     0.705 A 
ATOM     10  H6  UNL     1     -54.722  12.640   2.230  1.00  0.00     0.203 HD
HETATM   11  N8  UNL     1     -56.449  11.691   4.771  1.00  0.00    -0.019 N 
HETATM   12  C10 UNL     1     -55.489  11.579   5.704  1.00  0.00     0.737 A 
ATOM     13  H8  UNL     1     -57.408  11.474   5.040  1.00  0.00     0.203 HD
HETATM   14  N9  UNL     1     -55.774  11.193   6.964  1.00  0.00    -0.159 N 
HETATM   15  N13 UNL     1     -54.223  11.871   5.322  1.00  0.00     0.108 N 
HETATM   16  C11 UNL     1     -54.777  11.096   7.861  1.00  0.00     0.222 A 
ATOM     17  H9  UNL     1     -56.734  10.978   7.232  1.00  0.00     0.187 HD
HETATM   18  N10 UNL     1     -55.045  10.686   9.217  1.00  0.00    -0.061 NA
HETATM   19  N11 UNL     1     -53.523  11.390   7.469  1.00  0.00    -0.257 N 
HETATM   20  N12 UNL     1     -53.260  11.767   6.227  1.00  0.00    -0.204 N 
ATOM     21  H11 UNL     1     -52.759  11.321   8.142  1.00  0.00     0.191 HD
ATOM     22  H12 UNL     1     -52.298  11.980   5.962  1.00  0.00     0.210 HD
BRANCH   9  23
HETATM   23  N7  UNL     1     -57.196  12.154   2.668  1.00  0.00    -0.234 N 
ATOM     24  H72 UNL     1     -57.011  12.141   1.664  1.00  0.00     0.174 HD
ATOM     25  H71 UNL     1     -58.173  12.235   2.948  1.00  0.00     0.174 HD
ENDBRANCH   9  23
ENDBRANCH   3   7
BRANCH   1  26
HETATM   26  N4  UNL     1     -49.680  12.518   1.559  1.00  0.00    -0.384 N 
ATOM     27  H4  UNL     1     -48.774  12.963   1.704  1.00  0.00     0.159 HD
BRANCH  26  28
HETATM   28  C5  UNL     1     -49.896  11.746   0.346  1.00  0.00     0.159 C 
BRANCH  28  29
HETATM   29  C4  UNL     1     -48.640  11.746  -0.473  1.00  0.00     0.205 C 
BRANCH  29  30
HETATM   30  C3  UNL     1     -48.760  10.752  -1.576  1.00  0.00     0.143 A 
HETATM   31  N3  UNL     1     -49.038  10.973  -2.850  1.00  0.00    -0.272 N 
HETATM   32  N2  UNL     1     -49.051   9.829  -3.500  1.00  0.00    -0.131 N 
ATOM     33  H3  UNL     1     -49.215  11.887  -3.264  1.00  0.00     0.189 HD
HETATM   34  C2  UNL     1     -48.775   8.873  -2.607  1.00  0.00     0.693 A 
ATOM     35  H2  UNL     1     -49.237   9.697  -4.494  1.00  0.00     0.205 HD
HETATM   36  N15 UNL     1     -48.591   9.434  -1.404  1.00  0.00    -0.175 N 
ATOM     37  H15 UNL     1     -48.368   8.954  -0.531  1.00  0.00     0.185 HD
BRANCH  34  38
HETATM   38  N1  UNL     1     -48.706   7.626  -2.900  1.00  0.00    -0.229 N 
HETATM   39  C1  UNL     1     -47.744   6.727  -2.289  1.00  0.00     0.165 C 
ATOM     40  H1  UNL     1     -49.354   7.251  -3.593  1.00  0.00     0.177 HD
ENDBRANCH  34  38
ENDBRANCH  29  30
BRANCH  29  41
HETATM   41  O1  UNL     1     -47.528  11.466   0.304  1.00  0.00    -0.386 OA
ATOM     42  H1  UNL     1     -47.797  11.174   1.167  1.00  0.00     0.210 HD
ENDBRANCH  29  41
ENDBRANCH  28  29
ENDBRANCH  26  28
ENDBRANCH   1  26
BRANCH   6  43
HETATM   43  C13 UNL     1     -49.352  14.117   4.216  1.00  0.00     0.309 C 
BRANCH  43  44
HETATM   44  O2  UNL     1     -48.196  13.327   4.117  1.00  0.00    -0.366 OA
ATOM     45  H2  UNL     1     -47.484  13.817   3.721  1.00  0.00     0.213 HD
ENDBRANCH  43  44
BRANCH  43  46
HETATM   46  O3  UNL     1     -49.482  14.470   5.557  1.00  0.00    -0.366 OA
ATOM     47  H3  UNL     1     -49.350  15.401   5.693  1.00  0.00     0.213 HD
ENDBRANCH  43  46
ENDBRANCH   6  43
TORSDOF 11
ENDMDL
MODEL 2
REMARK VINA RESULT: -7.694349762     11.743     16.860
REMARK  11 active torsions:
REMARK  status: ('A' for Active; 'I' for Inactive)
REMARK    1  A    between atoms: N1_2  and  C2_4 
REMARK    2  A    between atoms: C3_9  and  C4_10 
REMARK    3  A    between atoms: C4_10  and  O1_11 
REMARK    4  A    between atoms: C4_10  and  C5_13 
REMARK    5  A    between atoms: C5_13  and  N4_14 
REMARK    6  A    between atoms: N4_14  and  C6_16 
REMARK    7  A    between atoms: N5_18  and  C8_19 
REMARK    8  A    between atoms: C9_22  and  N7_23 
REMARK    9  A    between atoms: C12_40  and  C13_41 
REMARK   10  A    between atoms: C13_41  and  O2_42 
REMARK   11  A    between atoms: C13_41  and  O3_44 
ROOT
HETATM    1  C6  UNL     1     -36.850   6.455  -2.310  1.00  0.00     0.075 A 
HETATM    2  C7  UNL     1     -37.517   5.304  -1.938  1.00  0.00     0.166 A 
HETATM    3  N5  UNL     1     -36.631   4.441  -1.413  1.00  0.00    -0.092 N 
HETATM    4  N14 UNL     1     -35.437   5.009  -1.443  1.00  0.00    -0.277 N 
ATOM      5  H14 UNL     1     -34.575   4.579  -1.107  1.00  0.00     0.188 HD
HETATM    6  C12 UNL     1     -35.527   6.256  -1.991  1.00  0.00     0.108 A 
ENDROOT
BRANCH   3   7
HETATM    7  C8  UNL     1     -36.913   3.131  -0.905  1.00  0.00     0.755 A 
HETATM    8  N6  UNL     1     -36.885   2.063  -1.719  1.00  0.00    -0.018 N 
HETATM    9  C9  UNL     1     -37.144   0.812  -1.290  1.00  0.00     0.705 A 
ATOM     10  H6  UNL     1     -36.658   2.205  -2.704  1.00  0.00     0.203 HD
HETATM   11  N8  UNL     1     -37.436   0.676   0.016  1.00  0.00    -0.019 N 
HETATM   12  C10 UNL     1     -37.481   1.702   0.881  1.00  0.00     0.737 A 
ATOM     13  H8  UNL     1     -37.635  -0.260   0.368  1.00  0.00     0.203 HD
HETATM   14  N9  UNL     1     -37.780   1.512   2.182  1.00  0.00    -0.159 N 
HETATM   15  N13 UNL     1     -37.212   2.934   0.389  1.00  0.00     0.108 N 
HETATM   16  C11 UNL     1     -37.812   2.572   3.009  1.00  0.00     0.222 A 
ATOM     17  H9  UNL     1     -37.981   0.576   2.534  1.00  0.00     0.187 HD
HETATM   18  N10 UNL     1     -38.127   2.406   4.405  1.00  0.00    -0.061 NA
HETATM   19  N11 UNL     1     -37.543   3.792   2.506  1.00  0.00    -0.257 N 
HETATM   20  N12 UNL     1     -37.250   3.961   1.226  1.00  0.00    -0.204 N 
ATOM     21  H11 UNL     1     -37.565   4.604   3.125  1.00  0.00     0.191 HD
ATOM     22  H12 UNL     1     -37.049   4.899   0.878  1.00  0.00     0.210 HD
BRANCH   9  23
HETATM   23  N7  UNL     1     -37.122  -0.226  -2.055  1.00  0.00    -0.234 N 
ATOM     24  H72 UNL     1     -36.980  -0.114  -3.059  1.00  0.00     0.174 HD
ATOM     25  H71 UNL     1     -37.242  -1.180  -1.717  1.00  0.00     0.174 HD
ENDBRANCH   9  23
ENDBRANCH   3   7
BRANCH   1  26
HETATM   26  N4  UNL     1     -37.380   7.629  -2.904  1.00  0.00    -0.384 N 
ATOM     27  H4  UNL     1     -36.957   7.980  -3.763  1.00  0.00     0.159 HD
BRANCH  26  28
HETATM   28  C5  UNL     1     -38.507   8.348  -2.332  1.00  0.00     0.159 C 
BRANCH  28  29
HETATM   29  C4  UNL     1     -38.200   8.701  -0.908  1.00  0.00     0.205 C 
BRANCH  29  30
HETATM   30  C3  UNL     1     -39.035   7.871   0.005  1.00  0.00     0.143 A 
HETATM   31  N3  UNL     1     -38.635   7.064   0.973  1.00  0.00    -0.272 N 
HETATM   32  N2  UNL     1     -39.683   6.514   1.547  1.00  0.00    -0.131 N 
ATOM     33  H3  UNL     1     -37.663   6.894   1.235  1.00  0.00     0.189 HD
HETATM   34  C2  UNL     1     -40.763   6.991   0.919  1.00  0.00     0.693 A 
ATOM     35  H2  UNL     1     -39.674   5.851   2.322  1.00  0.00     0.205 HD
HETATM   36  N15 UNL     1     -40.374   7.838  -0.044  1.00  0.00    -0.175 N 
ATOM     37  H15 UNL     1     -40.975   8.353  -0.687  1.00  0.00     0.185 HD
BRANCH  34  38
HETATM   38  N1  UNL     1     -41.964   6.662   1.224  1.00  0.00    -0.229 N 
HETATM   39  C1  UNL     1     -42.805   7.472   2.087  1.00  0.00     0.165 C 
ATOM     40  H1  UNL     1     -42.345   5.796   0.844  1.00  0.00     0.177 HD
ENDBRANCH  34  38
ENDBRANCH  29  30
BRANCH  29  41
HETATM   41  O1  UNL     1     -38.415  10.046  -0.661  1.00  0.00    -0.386 OA
ATOM     42  H1  UNL     1     -38.217  10.558  -1.437  1.00  0.00     0.210 HD
ENDBRANCH  29  41
ENDBRANCH  28  29
ENDBRANCH  26  28
ENDBRANCH   1  26
BRANCH   6  43
HETATM   43  C13 UNL     1     -34.380   7.182  -2.181  1.00  0.00     0.309 C 
BRANCH  43  44
HETATM   44  O2  UNL     1     -34.422   8.229  -1.248  1.00  0.00    -0.366 OA
ATOM     45  H2  UNL     1     -34.888   8.978  -1.601  1.00  0.00     0.213 HD
ENDBRANCH  43  44
BRANCH  43  46
HETATM   46  O3  UNL     1     -34.390   7.769  -3.444  1.00  0.00    -0.366 OA
ATOM     47  H3  UNL     1     -33.891   7.264  -4.075  1.00  0.00     0.213 HD
ENDBRANCH  43  46
ENDBRANCH   6  43
TORSDOF 11
ENDMDL
MODEL 3
REMARK VINA RESULT: -7.673968150     13.923     16.874
REMARK  11 active torsions:
REMARK  status: ('A' for Active; 'I' for Inactive)
REMARK    1  A    between atoms: N1_2  and  C2_4 
REMARK    2  A    between atoms: C3_9  and  C4_10 
REMARK    3  A    between atoms: C4_10  and  O1_11 
REMARK    4  A    between atoms: C4_10  and  C5_13 
REMARK    5  A    between atoms: C5_13  and  N4_14 
REMARK    6  A    between atoms: N4_14  and  C6_16 
REMARK    7  A    between atoms: N5_18  and  C8_19 
REMARK    8  A    between atoms: C9_22  and  N7_23 
REMARK    9  A    between atoms: C12_40  and  C13_41 
REMARK   10  A    between atoms: C13_41  and  O2_42 
REMARK   11  A    between atoms: C13_41  and  O3_44 
ROOT
HETATM    1  C6  UNL     1     -39.317   5.325  -0.545  1.00  0.00     0.075 A 
HETATM    2  C7  UNL     1     -38.516   4.222  -0.323  1.00  0.00     0.166 A 
HETATM    3  N5  UNL     1     -38.132   4.219   0.965  1.00  0.00    -0.092 N 
HETATM    4  N14 UNL     1     -38.663   5.277   1.554  1.00  0.00    -0.277 N 
ATOM      5  H14 UNL     1     -38.538   5.526   2.536  1.00  0.00     0.188 HD
HETATM    6  C12 UNL     1     -39.404   5.989   0.656  1.00  0.00     0.108 A 
ENDROOT
BRANCH   3   7
HETATM    7  C8  UNL     1     -37.294   3.248   1.604  1.00  0.00     0.755 A 
HETATM    8  N6  UNL     1     -37.336   1.959   1.230  1.00  0.00    -0.018 N 
HETATM    9  C9  UNL     1     -36.569   1.009   1.800  1.00  0.00     0.705 A 
ATOM     10  H6  UNL     1     -37.976   1.687   0.483  1.00  0.00     0.203 HD
HETATM   11  N8  UNL     1     -35.741   1.416   2.779  1.00  0.00    -0.019 N 
HETATM   12  C10 UNL     1     -35.651   2.688   3.199  1.00  0.00     0.737 A 
ATOM     13  H8  UNL     1     -35.148   0.718   3.228  1.00  0.00     0.203 HD
HETATM   14  N9  UNL     1     -34.805   3.045   4.186  1.00  0.00    -0.159 N 
HETATM   15  N13 UNL     1     -36.448   3.596   2.587  1.00  0.00     0.108 N 
HETATM   16  C11 UNL     1     -34.751   4.332   4.571  1.00  0.00     0.222 A 
ATOM     17  H9  UNL     1     -34.213   2.346   4.636  1.00  0.00     0.187 HD
HETATM   18  N10 UNL     1     -33.858   4.750   5.622  1.00  0.00    -0.061 NA
HETATM   19  N11 UNL     1     -35.549   5.225   3.954  1.00  0.00    -0.257 N 
HETATM   20  N12 UNL     1     -36.375   4.858   2.986  1.00  0.00    -0.204 N 
ATOM     21  H11 UNL     1     -35.518   6.204   4.239  1.00  0.00     0.191 HD
ATOM     22  H12 UNL     1     -36.965   5.560   2.538  1.00  0.00     0.210 HD
BRANCH   9  23
HETATM   23  N7  UNL     1     -36.595  -0.234   1.457  1.00  0.00    -0.234 N 
ATOM     24  H72 UNL     1     -37.490  -0.703   1.316  1.00  0.00     0.174 HD
ATOM     25  H71 UNL     1     -35.758  -0.798   1.313  1.00  0.00     0.174 HD
ENDBRANCH   9  23
ENDBRANCH   3   7
BRANCH   1  26
HETATM   26  N4  UNL     1     -39.945   5.729  -1.751  1.00  0.00    -0.384 N 
ATOM     27  H4  UNL     1     -40.942   5.947  -1.738  1.00  0.00     0.159 HD
BRANCH  26  28
HETATM   28  C5  UNL     1     -39.219   5.844  -3.005  1.00  0.00     0.159 C 
BRANCH  28  29
HETATM   29  C4  UNL     1     -38.643   7.223  -3.122  1.00  0.00     0.205 C 
BRANCH  29  30
HETATM   30  C3  UNL     1     -37.298   7.261  -2.483  1.00  0.00     0.143 A 
HETATM   31  N3  UNL     1     -36.923   7.926  -1.404  1.00  0.00    -0.272 N 
HETATM   32  N2  UNL     1     -35.650   7.694  -1.167  1.00  0.00    -0.131 N 
ATOM     33  H3  UNL     1     -37.527   8.526  -0.842  1.00  0.00     0.189 HD
HETATM   34  C2  UNL     1     -35.222   6.865  -2.124  1.00  0.00     0.693 A 
ATOM     35  H2  UNL     1     -35.095   8.075  -0.401  1.00  0.00     0.205 HD
HETATM   36  N15 UNL     1     -36.239   6.586  -2.952  1.00  0.00    -0.175 N 
ATOM     37  H15 UNL     1     -36.213   5.982  -3.774  1.00  0.00     0.185 HD
BRANCH  34  38
HETATM   38  N1  UNL     1     -34.019   6.428  -2.200  1.00  0.00    -0.229 N 
HETATM   39  C1  UNL     1     -33.332   6.234  -3.464  1.00  0.00     0.165 C 
ATOM     40  H1  UNL     1     -33.524   6.208  -1.335  1.00  0.00     0.177 HD
ENDBRANCH  34  38
ENDBRANCH  29  30
BRANCH  29  41
HETATM   41  O1  UNL     1     -39.474   8.169  -2.544  1.00  0.00    -0.386 OA
ATOM     42  H1  UNL     1     -40.371   7.856  -2.533  1.00  0.00     0.210 HD
ENDBRANCH  29  41
ENDBRANCH  28  29
ENDBRANCH  26  28
ENDBRANCH   1  26
BRANCH   6  43
HETATM   43  C13 UNL     1     -40.145   7.239   0.971  1.00  0.00     0.309 C 
BRANCH  43  44
HETATM   44  O2  UNL     1     -41.496   7.125   0.607  1.00  0.00    -0.366 OA
ATOM     45  H2  UNL     1     -41.885   7.982   0.481  1.00  0.00     0.213 HD
ENDBRANCH  43  44
BRANCH  43  46
HETATM   46  O3  UNL     1     -39.634   8.334   0.278  1.00  0.00    -0.366 OA
ATOM     47  H3  UNL     1     -40.317   8.946   0.029  1.00  0.00     0.213 HD
ENDBRANCH  43  46
ENDBRANCH   6  43
TORSDOF 11
ENDMDL
MODEL 4
REMARK VINA RESULT: -7.650667497      0.773      1.300
REMARK  11 active torsions:
REMARK  status: ('A' for Active; 'I' for Inactive)
REMARK    1  A    between atoms: N1_2  and  C2_4 
REMARK    2  A    between atoms: C3_9  and  C4_10 
REMARK    3  A    between atoms: C4_10  and  O1_11 
REMARK    4  A    between atoms: C4_10  and  C5_13 
REMARK    5  A    between atoms: C5_13  and  N4_14 
REMARK    6  A    between atoms: N4_14  and  C6_16 
REMARK    7  A    between atoms: N5_18  and  C8_19 
REMARK    8  A    between atoms: C9_22  and  N7_23 
REMARK    9  A    between atoms: C12_40  and  C13_41 
REMARK   10  A    between atoms: C13_41  and  O2_42 
REMARK   11  A    between atoms: C13_41  and  O3_44 
ROOT
HETATM    1  C6  UNL     1     -50.711  12.645   2.545  1.00  0.00     0.075 A 
HETATM    2  C7  UNL     1     -52.000  12.149   2.556  1.00  0.00     0.166 A 
HETATM    3  N5  UNL     1     -52.607  12.547   3.687  1.00  0.00    -0.092 N 
HETATM    4  N14 UNL     1     -51.746  13.272   4.382  1.00  0.00    -0.277 N 
ATOM      5  H14 UNL     1     -51.940  13.704   5.286  1.00  0.00     0.188 HD
HETATM    6  C12 UNL     1     -50.560  13.358   3.712  1.00  0.00     0.108 A 
ENDROOT
BRANCH   3   7
HETATM    7  C8  UNL     1     -53.951  12.247   4.086  1.00  0.00     0.755 A 
HETATM    8  N6  UNL     1     -54.961  12.341   3.206  1.00  0.00    -0.018 N 
HETATM    9  C9  UNL     1     -56.240  12.070   3.533  1.00  0.00     0.705 A 
ATOM     10  H6  UNL     1     -54.751  12.629   2.250  1.00  0.00     0.203 HD
HETATM   11  N8  UNL     1     -56.466  11.694   4.804  1.00  0.00    -0.019 N 
HETATM   12  C10 UNL     1     -55.501  11.581   5.732  1.00  0.00     0.737 A 
ATOM     13  H8  UNL     1     -57.425  11.482   5.079  1.00  0.00     0.203 HD
HETATM   14  N9  UNL     1     -55.781  11.201   6.995  1.00  0.00    -0.159 N 
HETATM   15  N13 UNL     1     -54.237  11.867   5.342  1.00  0.00     0.108 N 
HETATM   16  C11 UNL     1     -54.779  11.102   7.887  1.00  0.00     0.222 A 
ATOM     17  H9  UNL     1     -56.740  10.991   7.269  1.00  0.00     0.187 HD
HETATM   18  N10 UNL     1     -55.041  10.698   9.245  1.00  0.00    -0.061 NA
HETATM   19  N11 UNL     1     -53.526  11.390   7.486  1.00  0.00    -0.257 N 
HETATM   20  N12 UNL     1     -53.269  11.762   6.242  1.00  0.00    -0.204 N 
ATOM     21  H11 UNL     1     -52.759  11.320   8.155  1.00  0.00     0.191 HD
ATOM     22  H12 UNL     1     -52.308  11.971   5.970  1.00  0.00     0.210 HD
BRANCH   9  23
HETATM   23  N7  UNL     1     -57.224  12.154   2.704  1.00  0.00    -0.234 N 
ATOM     24  H72 UNL     1     -57.223  12.881   1.987  1.00  0.00     0.174 HD
ATOM     25  H71 UNL     1     -58.028  11.527   2.714  1.00  0.00     0.174 HD
ENDBRANCH   9  23
ENDBRANCH   3   7
BRANCH   1  26
HETATM   26  N4  UNL     1     -49.711  12.478   1.554  1.00  0.00    -0.384 N 
ATOM     27  H4  UNL     1     -48.796  12.904   1.701  1.00  0.00     0.159 HD
BRANCH  26  28
HETATM   28  C5  UNL     1     -49.944  11.722   0.334  1.00  0.00     0.159 C 
BRANCH  28  29
HETATM   29  C4  UNL     1     -48.670  11.645  -0.454  1.00  0.00     0.205 C 
BRANCH  29  30
HETATM   30  C3  UNL     1     -48.815  10.642  -1.545  1.00  0.00     0.143 A 
HETATM   31  N3  UNL     1     -48.656   9.331  -1.478  1.00  0.00    -0.272 N 
HETATM   32  N2  UNL     1     -48.875   8.801  -2.662  1.00  0.00    -0.131 N 
ATOM     33  H3  UNL     1     -48.403   8.810  -0.638  1.00  0.00     0.189 HD
HETATM   34  C2  UNL     1     -49.178   9.809  -3.487  1.00  0.00     0.693 A 
ATOM     35  H2  UNL     1     -48.824   7.812  -2.905  1.00  0.00     0.205 HD
HETATM   36  N15 UNL     1     -49.144  10.962  -2.804  1.00  0.00    -0.175 N 
ATOM     37  H15 UNL     1     -49.331  11.896  -3.170  1.00  0.00     0.185 HD
BRANCH  34  38
HETATM   38  N1  UNL     1     -49.452   9.651  -4.730  1.00  0.00    -0.229 N 
HETATM   39  C1  UNL     1     -50.289  10.574  -5.473  1.00  0.00     0.165 C 
ATOM     40  H1  UNL     1     -49.064   8.842  -5.216  1.00  0.00     0.177 HD
ENDBRANCH  34  38
ENDBRANCH  29  30
BRANCH  29  41
HETATM   41  O1  UNL     1     -47.594  11.321   0.354  1.00  0.00    -0.386 OA
ATOM     42  H1  UNL     1     -47.129  12.108   0.613  1.00  0.00     0.210 HD
ENDBRANCH  29  41
ENDBRANCH  28  29
ENDBRANCH  26  28
ENDBRANCH   1  26
BRANCH   6  43
HETATM   43  C13 UNL     1     -49.365  14.096   4.198  1.00  0.00     0.309 C 
BRANCH  43  44
HETATM   44  O2  UNL     1     -48.211  13.304   4.092  1.00  0.00    -0.366 OA
ATOM     45  H2  UNL     1     -48.326  12.624   3.439  1.00  0.00     0.213 HD
ENDBRANCH  43  44
BRANCH  43  46
HETATM   46  O3  UNL     1     -49.485  14.453   5.539  1.00  0.00    -0.366 OA
ATOM     47  H3  UNL     1     -49.918  15.292   5.645  1.00  0.00     0.213 HD
ENDBRANCH  43  46
ENDBRANCH   6  43
TORSDOF 11
ENDMDL
MODEL 5
REMARK VINA RESULT: -7.598180566     13.609     16.782
REMARK  11 active torsions:
REMARK  status: ('A' for Active; 'I' for Inactive)
REMARK    1  A    between atoms: N1_2  and  C2_4 
REMARK    2  A    between atoms: C3_9  and  C4_10 
REMARK    3  A    between atoms: C4_10  and  O1_11 
REMARK    4  A    between atoms: C4_10  and  C5_13 
REMARK    5  A    between atoms: C5_13  and  N4_14 
REMARK    6  A    between atoms: N4_14  and  C6_16 
REMARK    7  A    between atoms: N5_18  and  C8_19 
REMARK    8  A    between atoms: C9_22  and  N7_23 
REMARK    9  A    between atoms: C12_40  and  C13_41 
REMARK   10  A    between atoms: C13_41  and  O2_42 
REMARK   11  A    between atoms: C13_41  and  O3_44 
ROOT
HETATM    1  C6  UNL     1     -38.225   4.425  -0.201  1.00  0.00     0.075 A 
HETATM    2  C7  UNL     1     -37.288   3.504   0.226  1.00  0.00     0.166 A 
HETATM    3  N5  UNL     1     -37.177   3.589   1.563  1.00  0.00    -0.092 N 
HETATM    4  N14 UNL     1     -38.010   4.525   1.986  1.00  0.00    -0.277 N 
ATOM      5  H14 UNL     1     -38.134   4.802   2.960  1.00  0.00     0.188 HD
HETATM    6  C12 UNL     1     -38.678   5.069   0.926  1.00  0.00     0.108 A 
ENDROOT
BRANCH   3   7
HETATM    7  C8  UNL     1     -36.314   2.808   2.399  1.00  0.00     0.755 A 
HETATM    8  N6  UNL     1     -35.393   1.994   1.858  1.00  0.00    -0.018 N 
HETATM    9  C9  UNL     1     -34.559   1.240   2.602  1.00  0.00     0.705 A 
ATOM     10  H6  UNL     1     -35.322   1.944   0.842  1.00  0.00     0.203 HD
HETATM   11  N8  UNL     1     -34.690   1.342   3.936  1.00  0.00    -0.019 N 
HETATM   12  C10 UNL     1     -35.590   2.136   4.540  1.00  0.00     0.737 A 
ATOM     13  H8  UNL     1     -34.072   0.783   4.524  1.00  0.00     0.203 HD
HETATM   14  N9  UNL     1     -35.682   2.201   5.883  1.00  0.00    -0.159 N 
HETATM   15  N13 UNL     1     -36.399   2.868   3.738  1.00  0.00     0.108 N 
HETATM   16  C11 UNL     1     -36.598   3.013   6.439  1.00  0.00     0.222 A 
ATOM     17  H9  UNL     1     -35.063   1.641   6.470  1.00  0.00     0.187 HD
HETATM   18  N10 UNL     1     -36.724   3.108   7.871  1.00  0.00    -0.061 NA
HETATM   19  N11 UNL     1     -37.397   3.735   5.631  1.00  0.00    -0.257 N 
HETATM   20  N12 UNL     1     -37.294   3.660   4.313  1.00  0.00    -0.204 N 
ATOM     21  H11 UNL     1     -38.097   4.353   6.042  1.00  0.00     0.191 HD
ATOM     22  H12 UNL     1     -37.913   4.222   3.729  1.00  0.00     0.210 HD
BRANCH   9  23
HETATM   23  N7  UNL     1     -33.670   0.452   2.102  1.00  0.00    -0.234 N 
ATOM     24  H72 UNL     1     -32.695   0.537   2.394  1.00  0.00     0.174 HD
ATOM     25  H71 UNL     1     -33.877  -0.273   1.415  1.00  0.00     0.174 HD
ENDBRANCH   9  23
ENDBRANCH   3   7
BRANCH   1  26
HETATM   26  N4  UNL     1     -38.663   4.686  -1.524  1.00  0.00    -0.384 N 
ATOM     27  H4  UNL     1     -39.642   4.521  -1.760  1.00  0.00     0.159 HD
BRANCH  26  28
HETATM   28  C5  UNL     1     -37.767   5.182  -2.557  1.00  0.00     0.159 C 
BRANCH  28  29
HETATM   29  C4  UNL     1     -38.510   6.136  -3.443  1.00  0.00     0.205 C 
BRANCH  29  30
HETATM   30  C3  UNL     1     -38.963   7.311  -2.648  1.00  0.00     0.143 A 
HETATM   31  N3  UNL     1     -40.197   7.646  -2.313  1.00  0.00    -0.272 N 
HETATM   32  N2  UNL     1     -40.173   8.755  -1.605  1.00  0.00    -0.131 N 
ATOM     33  H3  UNL     1     -41.038   7.126  -2.564  1.00  0.00     0.189 HD
HETATM   34  C2  UNL     1     -38.892   9.119  -1.498  1.00  0.00     0.693 A 
ATOM     35  H2  UNL     1     -40.979   9.244  -1.214  1.00  0.00     0.205 HD
HETATM   36  N15 UNL     1     -38.125   8.228  -2.143  1.00  0.00    -0.175 N 
ATOM     37  H15 UNL     1     -37.109   8.245  -2.233  1.00  0.00     0.185 HD
BRANCH  34  38
HETATM   38  N1  UNL     1     -38.501  10.165  -0.867  1.00  0.00    -0.229 N 
HETATM   39  C1  UNL     1     -39.233  11.418  -0.895  1.00  0.00     0.165 C 
ATOM     40  H1  UNL     1     -37.640  10.113  -0.322  1.00  0.00     0.177 HD
ENDBRANCH  34  38
ENDBRANCH  29  30
BRANCH  29  41
HETATM   41  O1  UNL     1     -39.594   5.524  -4.051  1.00  0.00    -0.386 OA
ATOM     42  H1  UNL     1     -39.761   4.679  -3.649  1.00  0.00     0.210 HD
ENDBRANCH  29  41
ENDBRANCH  28  29
ENDBRANCH  26  28
ENDBRANCH   1  26
BRANCH   6  43
HETATM   43  C13 UNL     1     -39.693   6.149   1.030  1.00  0.00     0.309 C 
BRANCH  43  44
HETATM   44  O2  UNL     1     -40.688   5.996   0.053  1.00  0.00    -0.366 OA
ATOM     45  H2  UNL     1     -40.336   5.586  -0.728  1.00  0.00     0.213 HD
ENDBRANCH  43  44
BRANCH  43  46
HETATM   46  O3  UNL     1     -39.132   7.409   0.837  1.00  0.00    -0.366 OA
ATOM     47  H3  UNL     1     -38.359   7.540   1.374  1.00  0.00     0.213 HD
ENDBRANCH  43  46
ENDBRANCH   6  43
TORSDOF 11
ENDMDL
