MODEL 1
REMARK VINA RESULT: -7.276600113      0.000      0.000
REMARK  11 active torsions:
REMARK  status: ('A' for Active; 'I' for Inactive)
REMARK    1  A    between atoms: C2_2  and  N1_3 
REMARK    2  A    between atoms: N2_5  and  N3_7 
REMARK    3  A    between atoms: C4_12  and  N5_13 
REMARK    4  A    between atoms: C6_19  and  C7_20 
REMARK    5  A    between atoms: C7_20  and  O1_21 
REMARK    6  A    between atoms: C8_23  and  C9_24 
REMARK    7  A    between atoms: C9_24  and  N7_25 
REMARK    8  A    between atoms: C10_30  and  N10_31 
REMARK    9  A    between atoms: C11_32  and  N11_33 
REMARK   10  A    between atoms: N11_33  and  O2_35 
REMARK   11  A    between atoms: C12_37  and  O3_38 
ROOT
HETATM    1  N1  UNL     1     -38.193   6.676  -0.304  1.00  0.00    -0.179 N 
HETATM    2  C3  UNL     1     -38.039   7.906  -0.890  1.00  0.00     0.700 A 
HETATM    3  N2  UNL     1     -38.616   8.893  -0.328  1.00  0.00    -0.138 N 
ATOM      4  H2  UNL     1     -39.164   8.749   0.519  1.00  0.00     0.205 HD
HETATM    5  N4  UNL     1     -37.329   8.093  -1.992  1.00  0.00    -0.173 N 
ATOM      6  H4  UNL     1     -37.236   9.023  -2.400  1.00  0.00     0.186 HD
HETATM    7  C4  UNL     1     -36.739   7.040  -2.558  1.00  0.00     0.144 A 
HETATM    8  C5  UNL     1     -36.856   5.787  -2.017  1.00  0.00     0.106 A 
HETATM    9  N6  UNL     1     -36.368   4.588  -2.348  1.00  0.00    -0.352 N 
ATOM     10  H6  UNL     1     -35.777   4.397  -3.157  1.00  0.00     0.166 HD
HETATM   11  C6  UNL     1     -36.774   3.676  -1.453  1.00  0.00     0.047 A 
HETATM   12  C8  UNL     1     -37.577   4.277  -0.465  1.00  0.00     0.038 A 
HETATM   13  C14 UNL     1     -37.615   5.624  -0.849  1.00  0.00     0.096 A 
ENDROOT
BRANCH  12  14
HETATM   14  C9  UNL     1     -38.108   3.558   0.664  1.00  0.00     0.154 C 
BRANCH  14  15
HETATM   15  N7  UNL     1     -37.317   3.434   1.868  1.00  0.00    -0.178 N 
HETATM   16  N8  UNL     1     -36.029   3.151   1.960  1.00  0.00    -0.207 N 
HETATM   17  N9  UNL     1     -35.686   3.083   3.218  1.00  0.00    -0.114 N 
ATOM     18  H8  UNL     1     -35.400   3.009   1.170  1.00  0.00     0.211 HD
HETATM   19  C10 UNL     1     -36.766   3.324   3.974  1.00  0.00     0.726 A 
ATOM     20  H9  UNL     1     -34.750   2.879   3.567  1.00  0.00     0.207 HD
HETATM   21  N13 UNL     1     -37.761   3.538   3.110  1.00  0.00    -0.108 N 
ATOM     22  H13 UNL     1     -38.724   3.751   3.370  1.00  0.00     0.208 HD
BRANCH  19  23
HETATM   23  N10 UNL     1     -36.734   3.325   5.392  1.00  0.00    -0.072 N 
HETATM   24  C11 UNL     1     -37.305   2.385   6.187  1.00  0.00     0.204 A 
HETATM   25  C12 UNL     1     -37.046   2.753   7.514  1.00  0.00     0.192 A 
HETATM   26  N12 UNL     1     -36.335   3.888   7.486  1.00  0.00    -0.285 N 
HETATM   27  C13 UNL     1     -36.142   4.241   6.212  1.00  0.00     0.349 A 
ATOM     28  H12 UNL     1     -35.998   4.398   8.302  1.00  0.00     0.172 HD
HETATM   29  O4  UNL     1     -35.528   5.237   5.762  1.00  0.00    -0.245 OA
BRANCH  24  30
HETATM   30  N11 UNL     1     -38.032   1.239   5.779  1.00  0.00    -0.248 N 
ATOM     31  H11 UNL     1     -38.345   1.151   4.812  1.00  0.00     0.196 HD
BRANCH  30  32
HETATM   32  O2  UNL     1     -38.286   0.346   6.595  1.00  0.00    -0.288 OA
ATOM     33  H2  UNL     1     -38.920  -0.328   6.379  1.00  0.00     0.244 HD
ENDBRANCH  30  32
ENDBRANCH  24  30
BRANCH  25  34
HETATM   34  O3  UNL     1     -37.453   2.064   8.647  1.00  0.00    -0.343 OA
ATOM     35  H3  UNL     1     -38.145   2.326   9.243  1.00  0.00     0.219 HD
ENDBRANCH  25  34
ENDBRANCH  19  23
ENDBRANCH  14  15
ENDBRANCH  12  14
BRANCH  11  36
HETATM   36  C7  UNL     1     -36.391   2.245  -1.590  1.00  0.00     0.222 C 
BRANCH  36  37
HETATM   37  O1  UNL     1     -35.293   1.953  -0.744  1.00  0.00    -0.395 OA
ATOM     38  H1  UNL     1     -34.522   1.765  -1.266  1.00  0.00     0.209 HD
ENDBRANCH  36  37
ENDBRANCH  11  36
BRANCH   1  39
HETATM   39  C2  UNL     1     -38.984   6.626   0.893  1.00  0.00     0.143 C 
HETATM   40  C1  UNL     1     -40.434   6.307   0.481  1.00  0.00     0.027 C 
ENDBRANCH   1  39
BRANCH   7  41
HETATM   41  N5  UNL     1     -36.050   7.222  -3.628  1.00  0.00    -0.383 N 
ATOM     42  H52 UNL     1     -35.470   8.054  -3.731  1.00  0.00     0.157 HD
ATOM     43  H51 UNL     1     -36.101   6.520  -4.366  1.00  0.00     0.157 HD
ENDBRANCH   7  41
BRANCH   3  44
HETATM   44  N3  UNL     1     -38.498  10.164  -0.872  1.00  0.00    -0.331 N 
ATOM     45  H32 UNL     1     -38.307  10.261  -1.869  1.00  0.00     0.177 HD
ATOM     46  H31 UNL     1     -38.603  10.985  -0.275  1.00  0.00     0.177 HD
ENDBRANCH   3  44
TORSDOF 11
ENDMDL
MODEL 2
REMARK VINA RESULT: -7.127299510      1.481      1.811
REMARK  11 active torsions:
REMARK  status: ('A' for Active; 'I' for Inactive)
REMARK    1  A    between atoms: C2_2  and  N1_3 
REMARK    2  A    between atoms: N2_5  and  N3_7 
REMARK    3  A    between atoms: C4_12  and  N5_13 
REMARK    4  A    between atoms: C6_19  and  C7_20 
REMARK    5  A    between atoms: C7_20  and  O1_21 
REMARK    6  A    between atoms: C8_23  and  C9_24 
REMARK    7  A    between atoms: C9_24  and  N7_25 
REMARK    8  A    between atoms: C10_30  and  N10_31 
REMARK    9  A    between atoms: C11_32  and  N11_33 
REMARK   10  A    between atoms: N11_33  and  O2_35 
REMARK   11  A    between atoms: C12_37  and  O3_38 
ROOT
HETATM    1  N1  UNL     1     -38.173   6.544  -0.063  1.00  0.00    -0.179 N 
HETATM    2  C3  UNL     1     -37.893   7.802  -0.529  1.00  0.00     0.700 A 
HETATM    3  N2  UNL     1     -38.678   8.740  -0.176  1.00  0.00    -0.138 N 
ATOM      4  H2  UNL     1     -39.474   8.540   0.428  1.00  0.00     0.205 HD
HETATM    5  N4  UNL     1     -36.859   8.062  -1.315  1.00  0.00    -0.173 N 
ATOM      6  H4  UNL     1     -36.681   9.011  -1.643  1.00  0.00     0.186 HD
HETATM    7  C4  UNL     1     -36.057   7.058  -1.669  1.00  0.00     0.144 A 
HETATM    8  C5  UNL     1     -36.286   5.780  -1.233  1.00  0.00     0.106 A 
HETATM    9  N6  UNL     1     -35.653   4.617  -1.405  1.00  0.00    -0.352 N 
ATOM     10  H6  UNL     1     -34.812   4.483  -1.966  1.00  0.00     0.166 HD
HETATM   11  C6  UNL     1     -36.292   3.653  -0.727  1.00  0.00     0.047 A 
HETATM   12  C8  UNL     1     -37.415   4.180  -0.061  1.00  0.00     0.038 A 
HETATM   13  C14 UNL     1     -37.390   5.539  -0.401  1.00  0.00     0.096 A 
ENDROOT
BRANCH  12  14
HETATM   14  C9  UNL     1     -38.262   3.394   0.798  1.00  0.00     0.154 C 
BRANCH  14  15
HETATM   15  N7  UNL     1     -37.756   2.932   2.072  1.00  0.00    -0.178 N 
HETATM   16  N8  UNL     1     -38.168   1.890   2.772  1.00  0.00    -0.207 N 
HETATM   17  N9  UNL     1     -37.497   1.822   3.889  1.00  0.00    -0.114 N 
ATOM     18  H8  UNL     1     -38.899   1.239   2.483  1.00  0.00     0.211 HD
HETATM   19  C10 UNL     1     -36.623   2.837   3.931  1.00  0.00     0.726 A 
ATOM     20  H9  UNL     1     -37.618   1.112   4.611  1.00  0.00     0.207 HD
HETATM   21  N13 UNL     1     -36.807   3.507   2.791  1.00  0.00    -0.108 N 
ATOM     22  H13 UNL     1     -36.291   4.343   2.516  1.00  0.00     0.208 HD
BRANCH  19  23
HETATM   23  N10 UNL     1     -35.737   3.051   5.017  1.00  0.00    -0.072 N 
HETATM   24  C11 UNL     1     -36.057   3.679   6.177  1.00  0.00     0.204 A 
HETATM   25  C12 UNL     1     -34.909   3.682   6.978  1.00  0.00     0.192 A 
HETATM   26  N12 UNL     1     -33.938   3.065   6.292  1.00  0.00    -0.285 N 
HETATM   27  C13 UNL     1     -34.426   2.681   5.110  1.00  0.00     0.349 A 
ATOM     28  H12 UNL     1     -32.984   2.914   6.618  1.00  0.00     0.172 HD
HETATM   29  O4  UNL     1     -33.840   2.075   4.181  1.00  0.00    -0.245 OA
BRANCH  24  30
HETATM   30  N11 UNL     1     -37.311   4.235   6.535  1.00  0.00    -0.248 N 
ATOM     31  H11 UNL     1     -37.799   4.853   5.886  1.00  0.00     0.196 HD
BRANCH  30  32
HETATM   32  O2  UNL     1     -37.812   3.971   7.634  1.00  0.00    -0.288 OA
ATOM     33  H2  UNL     1     -38.684   3.594   7.679  1.00  0.00     0.244 HD
ENDBRANCH  30  32
ENDBRANCH  24  30
BRANCH  25  34
HETATM   34  O3  UNL     1     -34.801   4.226   8.249  1.00  0.00    -0.343 OA
ATOM     35  H3  UNL     1     -34.852   5.149   8.469  1.00  0.00     0.219 HD
ENDBRANCH  25  34
ENDBRANCH  19  23
ENDBRANCH  14  15
ENDBRANCH  12  14
BRANCH  11  36
HETATM   36  C7  UNL     1     -35.812   2.245  -0.760  1.00  0.00     0.222 C 
BRANCH  36  37
HETATM   37  O1  UNL     1     -35.124   1.939   0.440  1.00  0.00    -0.395 OA
ATOM     38  H1  UNL     1     -34.909   1.015   0.465  1.00  0.00     0.209 HD
ENDBRANCH  36  37
ENDBRANCH  11  36
BRANCH   1  39
HETATM   39  C2  UNL     1     -39.323   6.412   0.788  1.00  0.00     0.143 C 
HETATM   40  C1  UNL     1     -40.525   6.049  -0.105  1.00  0.00     0.027 C 
ENDBRANCH   1  39
BRANCH   7  41
HETATM   41  N5  UNL     1     -35.054   7.312  -2.433  1.00  0.00    -0.383 N 
ATOM     42  H52 UNL     1     -34.976   8.218  -2.896  1.00  0.00     0.157 HD
ATOM     43  H51 UNL     1     -34.346   6.590  -2.565  1.00  0.00     0.157 HD
ENDBRANCH   7  41
BRANCH   3  44
HETATM   44  N3  UNL     1     -38.447  10.037  -0.614  1.00  0.00    -0.331 N 
ATOM     45  H32 UNL     1     -39.245  10.647  -0.798  1.00  0.00     0.177 HD
ATOM     46  H31 UNL     1     -37.491  10.366  -0.748  1.00  0.00     0.177 HD
ENDBRANCH   3  44
TORSDOF 11
ENDMDL
MODEL 3
REMARK VINA RESULT: -7.042457064      1.422      1.519
REMARK  11 active torsions:
REMARK  status: ('A' for Active; 'I' for Inactive)
REMARK    1  A    between atoms: C2_2  and  N1_3 
REMARK    2  A    between atoms: N2_5  and  N3_7 
REMARK    3  A    between atoms: C4_12  and  N5_13 
REMARK    4  A    between atoms: C6_19  and  C7_20 
REMARK    5  A    between atoms: C7_20  and  O1_21 
REMARK    6  A    between atoms: C8_23  and  C9_24 
REMARK    7  A    between atoms: C9_24  and  N7_25 
REMARK    8  A    between atoms: C10_30  and  N10_31 
REMARK    9  A    between atoms: C11_32  and  N11_33 
REMARK   10  A    between atoms: N11_33  and  O2_35 
REMARK   11  A    between atoms: C12_37  and  O3_38 
ROOT
HETATM    1  N1  UNL     1     -38.140   6.834  -0.109  1.00  0.00    -0.179 N 
HETATM    2  C3  UNL     1     -38.036   7.971  -0.866  1.00  0.00     0.700 A 
HETATM    3  N2  UNL     1     -38.582   9.027  -0.409  1.00  0.00    -0.138 N 
ATOM      4  H2  UNL     1     -39.071   9.002   0.485  1.00  0.00     0.205 HD
HETATM    5  N4  UNL     1     -37.402   8.003  -2.029  1.00  0.00    -0.173 N 
ATOM      6  H4  UNL     1     -37.344   8.868  -2.567  1.00  0.00     0.186 HD
HETATM    7  C4  UNL     1     -36.842   6.882  -2.483  1.00  0.00     0.144 A 
HETATM    8  C5  UNL     1     -36.913   5.715  -1.769  1.00  0.00     0.106 A 
HETATM    9  N6  UNL     1     -36.439   4.482  -1.963  1.00  0.00    -0.352 N 
ATOM     10  H6  UNL     1     -35.902   4.180  -2.776  1.00  0.00     0.166 HD
HETATM   11  C6  UNL     1     -36.777   3.702  -0.926  1.00  0.00     0.047 A 
HETATM   12  C8  UNL     1     -37.517   4.435   0.021  1.00  0.00     0.038 A 
HETATM   13  C14 UNL     1     -37.592   5.716  -0.541  1.00  0.00     0.096 A 
ENDROOT
BRANCH  12  14
HETATM   14  C9  UNL     1     -37.966   3.879   1.271  1.00  0.00     0.154 C 
BRANCH  14  15
HETATM   15  N7  UNL     1     -37.107   3.945   2.432  1.00  0.00    -0.178 N 
HETATM   16  N8  UNL     1     -36.341   4.953   2.811  1.00  0.00    -0.207 N 
HETATM   17  N9  UNL     1     -35.680   4.619   3.886  1.00  0.00    -0.114 N 
ATOM     18  H8  UNL     1     -36.277   5.854   2.337  1.00  0.00     0.211 HD
HETATM   19  C10 UNL     1     -36.013   3.366   4.226  1.00  0.00     0.726 A 
ATOM     20  H9  UNL     1     -35.018   5.214   4.384  1.00  0.00     0.207 HD
HETATM   21  N13 UNL     1     -36.898   2.975   3.307  1.00  0.00    -0.108 N 
ATOM     22  H13 UNL     1     -37.349   2.060   3.283  1.00  0.00     0.208 HD
BRANCH  19  23
HETATM   23  N10 UNL     1     -35.469   2.699   5.353  1.00  0.00    -0.072 N 
HETATM   24  C11 UNL     1     -36.141   2.427   6.500  1.00  0.00     0.204 A 
HETATM   25  C12 UNL     1     -35.250   1.764   7.355  1.00  0.00     0.192 A 
HETATM   26  N12 UNL     1     -34.081   1.654   6.711  1.00  0.00    -0.285 N 
HETATM   27  C13 UNL     1     -34.202   2.214   5.505  1.00  0.00     0.349 A 
ATOM     28  H12 UNL     1     -33.238   1.216   7.081  1.00  0.00     0.172 HD
HETATM   29  O4  UNL     1     -33.339   2.319   4.601  1.00  0.00    -0.245 OA
BRANCH  24  30
HETATM   30  N11 UNL     1     -37.489   2.742   6.803  1.00  0.00    -0.248 N 
ATOM     31  H11 UNL     1     -38.215   2.612   6.098  1.00  0.00     0.196 HD
BRANCH  30  32
HETATM   32  O2  UNL     1     -37.785   3.177   7.922  1.00  0.00    -0.288 OA
ATOM     33  H2  UNL     1     -38.183   4.036   8.008  1.00  0.00     0.244 HD
ENDBRANCH  30  32
ENDBRANCH  24  30
BRANCH  25  34
HETATM   34  O3  UNL     1     -35.533   1.306   8.634  1.00  0.00    -0.343 OA
ATOM     35  H3  UNL     1     -35.699   1.846   9.398  1.00  0.00     0.219 HD
ENDBRANCH  25  34
ENDBRANCH  19  23
ENDBRANCH  14  15
ENDBRANCH  12  14
BRANCH  11  36
HETATM   36  C7  UNL     1     -36.393   2.265  -0.890  1.00  0.00     0.222 C 
BRANCH  36  37
HETATM   37  O1  UNL     1     -35.239   2.091  -0.089  1.00  0.00    -0.395 OA
ATOM     38  H1  UNL     1     -34.458   2.157  -0.625  1.00  0.00     0.209 HD
ENDBRANCH  36  37
ENDBRANCH  11  36
BRANCH   1  39
HETATM   39  C2  UNL     1     -38.849   6.951   1.134  1.00  0.00     0.143 C 
HETATM   40  C1  UNL     1     -40.319   6.567   0.871  1.00  0.00     0.027 C 
ENDBRANCH   1  39
BRANCH   7  41
HETATM   41  N5  UNL     1     -36.228   6.914  -3.612  1.00  0.00    -0.383 N 
ATOM     42  H52 UNL     1     -36.113   7.796  -4.110  1.00  0.00     0.157 HD
ATOM     43  H51 UNL     1     -35.864   6.041  -3.994  1.00  0.00     0.157 HD
ENDBRANCH   7  41
BRANCH   3  44
HETATM   44  N3  UNL     1     -38.510  10.211  -1.129  1.00  0.00    -0.331 N 
ATOM     45  H32 UNL     1     -38.377  10.169  -2.139  1.00  0.00     0.177 HD
ATOM     46  H31 UNL     1     -38.590  11.106  -0.645  1.00  0.00     0.177 HD
ENDBRANCH   3  44
TORSDOF 11
ENDMDL
MODEL 4
REMARK VINA RESULT: -6.975571277      2.020      3.489
REMARK  11 active torsions:
REMARK  status: ('A' for Active; 'I' for Inactive)
REMARK    1  A    between atoms: C2_2  and  N1_3 
REMARK    2  A    between atoms: N2_5  and  N3_7 
REMARK    3  A    between atoms: C4_12  and  N5_13 
REMARK    4  A    between atoms: C6_19  and  C7_20 
REMARK    5  A    between atoms: C7_20  and  O1_21 
REMARK    6  A    between atoms: C8_23  and  C9_24 
REMARK    7  A    between atoms: C9_24  and  N7_25 
REMARK    8  A    between atoms: C10_30  and  N10_31 
REMARK    9  A    between atoms: C11_32  and  N11_33 
REMARK   10  A    between atoms: N11_33  and  O2_35 
REMARK   11  A    between atoms: C12_37  and  O3_38 
ROOT
HETATM    1  N1  UNL     1     -36.006   5.667  -2.299  1.00  0.00    -0.179 N 
HETATM    2  C3  UNL     1     -35.591   6.458  -3.338  1.00  0.00     0.700 A 
HETATM    3  N2  UNL     1     -34.451   6.201  -3.845  1.00  0.00    -0.138 N 
ATOM      4  H2  UNL     1     -33.890   5.434  -3.476  1.00  0.00     0.205 HD
HETATM    5  N4  UNL     1     -36.320   7.455  -3.817  1.00  0.00    -0.173 N 
ATOM      6  H4  UNL     1     -35.979   8.023  -4.593  1.00  0.00     0.186 HD
HETATM    7  C4  UNL     1     -37.508   7.701  -3.264  1.00  0.00     0.144 A 
HETATM    8  C5  UNL     1     -37.976   6.943  -2.224  1.00  0.00     0.106 A 
HETATM    9  N6  UNL     1     -39.106   6.947  -1.512  1.00  0.00    -0.352 N 
ATOM     10  H6  UNL     1     -39.877   7.602  -1.638  1.00  0.00     0.166 HD
HETATM   11  C6  UNL     1     -39.070   5.958  -0.607  1.00  0.00     0.047 A 
HETATM   12  C8  UNL     1     -37.860   5.245  -0.703  1.00  0.00     0.038 A 
HETATM   13  C14 UNL     1     -37.179   5.894  -1.742  1.00  0.00     0.096 A 
ENDROOT
BRANCH  12  14
HETATM   14  C9  UNL     1     -37.561   4.088   0.100  1.00  0.00     0.154 C 
BRANCH  14  15
HETATM   15  N7  UNL     1     -37.034   4.262   1.435  1.00  0.00    -0.178 N 
HETATM   16  N8  UNL     1     -36.672   5.392   2.017  1.00  0.00    -0.207 N 
HETATM   17  N9  UNL     1     -36.204   5.139   3.209  1.00  0.00    -0.114 N 
ATOM     18  H8  UNL     1     -36.746   6.319   1.598  1.00  0.00     0.211 HD
HETATM   19  C10 UNL     1     -36.257   3.817   3.422  1.00  0.00     0.726 A 
ATOM     20  H9  UNL     1     -35.856   5.834   3.869  1.00  0.00     0.207 HD
HETATM   21  N13 UNL     1     -36.776   3.300   2.306  1.00  0.00    -0.108 N 
ATOM     22  H13 UNL     1     -36.947   2.308   2.147  1.00  0.00     0.208 HD
BRANCH  19  23
HETATM   23  N10 UNL     1     -35.822   3.209   4.627  1.00  0.00    -0.072 N 
HETATM   24  C11 UNL     1     -36.350   3.441   5.855  1.00  0.00     0.204 A 
HETATM   25  C12 UNL     1     -35.641   2.649   6.768  1.00  0.00     0.192 A 
HETATM   26  N12 UNL     1     -34.717   1.970   6.077  1.00  0.00    -0.285 N 
HETATM   27  C13 UNL     1     -34.817   2.299   4.787  1.00  0.00     0.349 A 
ATOM     28  H12 UNL     1     -34.047   1.310   6.472  1.00  0.00     0.172 HD
HETATM   29  O4  UNL     1     -34.136   1.885   3.819  1.00  0.00    -0.245 OA
BRANCH  24  30
HETATM   30  N11 UNL     1     -37.419   4.314   6.181  1.00  0.00    -0.248 N 
ATOM     31  H11 UNL     1     -37.772   4.970   5.485  1.00  0.00     0.196 HD
BRANCH  30  32
HETATM   32  O2  UNL     1     -37.921   4.280   7.310  1.00  0.00    -0.288 OA
ATOM     33  H2  UNL     1     -38.544   4.949   7.573  1.00  0.00     0.244 HD
ENDBRANCH  30  32
ENDBRANCH  24  30
BRANCH  25  34
HETATM   34  O3  UNL     1     -35.860   2.584   8.136  1.00  0.00    -0.343 OA
ATOM     35  H3  UNL     1     -35.583   1.883   8.715  1.00  0.00     0.219 HD
ENDBRANCH  25  34
ENDBRANCH  19  23
ENDBRANCH  14  15
ENDBRANCH  12  14
BRANCH  11  36
HETATM   36  C7  UNL     1     -40.198   5.744   0.340  1.00  0.00     0.222 C 
BRANCH  36  37
HETATM   37  O1  UNL     1     -39.814   6.128   1.647  1.00  0.00    -0.395 OA
ATOM     38  H1  UNL     1     -40.541   6.013   2.247  1.00  0.00     0.209 HD
ENDBRANCH  36  37
ENDBRANCH  11  36
BRANCH   1  39
HETATM   39  C2  UNL     1     -35.115   4.618  -1.891  1.00  0.00     0.143 C 
HETATM   40  C1  UNL     1     -35.463   3.362  -2.714  1.00  0.00     0.027 C 
ENDBRANCH   1  39
BRANCH   7  41
HETATM   41  N5  UNL     1     -38.214   8.669  -3.729  1.00  0.00    -0.383 N 
ATOM     42  H52 UNL     1     -38.154   8.923  -4.715  1.00  0.00     0.157 HD
ATOM     43  H51 UNL     1     -38.829   9.174  -3.091  1.00  0.00     0.157 HD
ENDBRANCH   7  41
BRANCH   3  44
HETATM   44  N3  UNL     1     -33.975   6.965  -4.901  1.00  0.00    -0.331 N 
ATOM     45  H32 UNL     1     -34.405   6.862  -5.820  1.00  0.00     0.177 HD
ATOM     46  H31 UNL     1     -33.206   7.618  -4.749  1.00  0.00     0.177 HD
ENDBRANCH   3  44
TORSDOF 11
ENDMDL
MODEL 5
REMARK VINA RESULT: -6.957281804      2.171      3.501
REMARK  11 active torsions:
REMARK  status: ('A' for Active; 'I' for Inactive)
REMARK    1  A    between atoms: C2_2  and  N1_3 
REMARK    2  A    between atoms: N2_5  and  N3_7 
REMARK    3  A    between atoms: C4_12  and  N5_13 
REMARK    4  A    between atoms: C6_19  and  C7_20 
REMARK    5  A    between atoms: C7_20  and  O1_21 
REMARK    6  A    between atoms: C8_23  and  C9_24 
REMARK    7  A    between atoms: C9_24  and  N7_25 
REMARK    8  A    between atoms: C10_30  and  N10_31 
REMARK    9  A    between atoms: C11_32  and  N11_33 
REMARK   10  A    between atoms: N11_33  and  O2_35 
REMARK   11  A    between atoms: C12_37  and  O3_38 
ROOT
HETATM    1  N1  UNL     1     -39.275   5.993  -0.654  1.00  0.00    -0.179 N 
HETATM    2  C3  UNL     1     -40.342   6.825  -0.432  1.00  0.00     0.700 A 
HETATM    3  N2  UNL     1     -41.473   6.277  -0.229  1.00  0.00    -0.138 N 
ATOM      4  H2  UNL     1     -41.557   5.261  -0.237  1.00  0.00     0.205 HD
HETATM    5  N4  UNL     1     -40.233   8.145  -0.423  1.00  0.00    -0.173 N 
ATOM      6  H4  UNL     1     -41.049   8.733  -0.254  1.00  0.00     0.186 HD
HETATM    7  C4  UNL     1     -39.036   8.689  -0.641  1.00  0.00     0.144 A 
HETATM    8  C5  UNL     1     -37.933   7.909  -0.868  1.00  0.00     0.106 A 
HETATM    9  N6  UNL     1     -36.643   8.173  -1.086  1.00  0.00    -0.352 N 
ATOM     10  H6  UNL     1     -36.235   9.106  -1.139  1.00  0.00     0.166 HD
HETATM   11  C6  UNL     1     -35.966   7.024  -1.224  1.00  0.00     0.047 A 
HETATM   12  C8  UNL     1     -36.833   5.922  -1.095  1.00  0.00     0.038 A 
HETATM   13  C14 UNL     1     -38.083   6.514  -0.869  1.00  0.00     0.096 A 
ENDROOT
BRANCH  12  14
HETATM   14  C9  UNL     1     -36.382   4.555  -1.135  1.00  0.00     0.154 C 
BRANCH  14  15
HETATM   15  N7  UNL     1     -36.360   3.774   0.082  1.00  0.00    -0.178 N 
HETATM   16  N8  UNL     1     -36.065   2.493   0.211  1.00  0.00    -0.207 N 
HETATM   17  N9  UNL     1     -36.199   2.138   1.460  1.00  0.00    -0.114 N 
ATOM     18  H8  UNL     1     -35.777   1.876  -0.548  1.00  0.00     0.211 HD
HETATM   19  C10 UNL     1     -36.589   3.204   2.173  1.00  0.00     0.726 A 
ATOM     20  H9  UNL     1     -36.032   1.203   1.832  1.00  0.00     0.207 HD
HETATM   21  N13 UNL     1     -36.681   4.202   1.292  1.00  0.00    -0.108 N 
ATOM     22  H13 UNL     1     -36.959   5.157   1.519  1.00  0.00     0.208 HD
BRANCH  19  23
HETATM   23  N10 UNL     1     -36.826   3.156   3.570  1.00  0.00    -0.072 N 
HETATM   24  C11 UNL     1     -36.026   3.708   4.518  1.00  0.00     0.204 A 
HETATM   25  C12 UNL     1     -36.610   3.438   5.762  1.00  0.00     0.192 A 
HETATM   26  N12 UNL     1     -37.731   2.741   5.537  1.00  0.00    -0.285 N 
HETATM   27  C13 UNL     1     -37.870   2.566   4.220  1.00  0.00     0.349 A 
ATOM     28  H12 UNL     1     -38.372   2.399   6.253  1.00  0.00     0.172 HD
HETATM   29  O4  UNL     1     -38.783   1.968   3.604  1.00  0.00    -0.245 OA
BRANCH  24  30
HETATM   30  N11 UNL     1     -34.821   4.428   4.314  1.00  0.00    -0.248 N 
ATOM     31  H11 UNL     1     -34.124   4.080   3.656  1.00  0.00     0.196 HD
BRANCH  30  32
HETATM   32  O2  UNL     1     -34.616   5.477   4.935  1.00  0.00    -0.288 OA
ATOM     33  H2  UNL     1     -35.180   5.716   5.662  1.00  0.00     0.244 HD
ENDBRANCH  30  32
ENDBRANCH  24  30
BRANCH  25  34
HETATM   34  O3  UNL     1     -36.114   3.824   6.999  1.00  0.00    -0.343 OA
ATOM     35  H3  UNL     1     -35.262   4.213   7.164  1.00  0.00     0.219 HD
ENDBRANCH  25  34
ENDBRANCH  19  23
ENDBRANCH  14  15
ENDBRANCH  12  14
BRANCH  11  36
HETATM   36  C7  UNL     1     -34.504   7.023  -1.498  1.00  0.00     0.222 C 
BRANCH  36  37
HETATM   37  O1  UNL     1     -33.989   8.338  -1.391  1.00  0.00    -0.395 OA
ATOM     38  H1  UNL     1     -34.588   8.883  -0.894  1.00  0.00     0.209 HD
ENDBRANCH  36  37
ENDBRANCH  11  36
BRANCH   1  39
HETATM   39  C2  UNL     1     -39.540   4.582  -0.626  1.00  0.00     0.143 C 
HETATM   40  C1  UNL     1     -39.786   4.125  -2.077  1.00  0.00     0.027 C 
ENDBRANCH   1  39
BRANCH   7  41
HETATM   41  N5  UNL     1     -38.932   9.971  -0.634  1.00  0.00    -0.383 N 
ATOM     42  H52 UNL     1     -39.266  10.518  -1.427  1.00  0.00     0.157 HD
ATOM     43  H51 UNL     1     -38.510  10.421   0.178  1.00  0.00     0.157 HD
ENDBRANCH   7  41
BRANCH   3  44
HETATM   44  N3  UNL     1     -42.592   7.064   0.003  1.00  0.00    -0.331 N 
ATOM     45  H32 UNL     1     -42.882   7.735  -0.709  1.00  0.00     0.177 HD
ATOM     46  H31 UNL     1     -43.111   6.966   0.876  1.00  0.00     0.177 HD
ENDBRANCH   3  44
TORSDOF 11
ENDMDL
