MODEL 1
REMARK VINA RESULT: -7.290890529      0.000      0.000
REMARK  10 active torsions:
REMARK  status: ('A' for Active; 'I' for Inactive)
REMARK    1  A    between atoms: O1_2  and  C2_3 
REMARK    2  A    between atoms: C5_6  and  N1_7 
REMARK    3  A    between atoms: C6_12  and  C7_13 
REMARK    4  A    between atoms: C7_13  and  N4_14 
REMARK    5  A    between atoms: C9_22  and  N8_23 
REMARK    6  A    between atoms: C10_24  and  N9_25 
REMARK    7  A    between atoms: C11_30  and  N11_31 
REMARK    8  A    between atoms: C13_38  and  O3_39 
REMARK    9  A    between atoms: C14_41  and  N13_42 
REMARK   10  A    between atoms: N13_42  and  N14_44 
ROOT
HETATM    1  N1  UNL     1     -36.316   7.185  -1.771  1.00  0.00    -0.220 N 
HETATM    2  N2  UNL     1     -35.154   7.707  -1.324  1.00  0.00    -0.234 N 
ATOM      3  H2  UNL     1     -34.989   7.990  -0.358  1.00  0.00     0.209 HD
HETATM    4  N3  UNL     1     -34.280   7.805  -2.263  1.00  0.00    -0.284 N 
ATOM      5  H3  UNL     1     -33.331   8.169  -2.170  1.00  0.00     0.188 HD
HETATM    6  C6  UNL     1     -34.857   7.330  -3.410  1.00  0.00     0.094 A 
HETATM    7  C9  UNL     1     -36.123   6.954  -3.064  1.00  0.00     0.182 A 
ENDROOT
BRANCH   1   8
HETATM    8  C5  UNL     1     -37.430   7.018  -0.900  1.00  0.00     0.095 A 
HETATM    9  C4  UNL     1     -38.497   7.877  -0.858  1.00  0.00     0.037 A 
HETATM   10  C3  UNL     1     -39.569   7.683  -0.015  1.00  0.00     0.041 A 
HETATM   11  C2  UNL     1     -39.641   6.610   0.846  1.00  0.00     0.099 A 
HETATM   12  C14 UNL     1     -38.567   5.729   0.816  1.00  0.00     0.116 A 
HETATM   13  C13 UNL     1     -37.496   5.920  -0.027  1.00  0.00     0.125 A 
BRANCH  11  14
HETATM   14  O1  UNL     1     -40.721   6.418   1.693  1.00  0.00    -0.353 OA
HETATM   15  C1  UNL     1     -41.896   7.184   1.605  1.00  0.00     0.210 C 
ENDBRANCH  11  14
BRANCH  12  16
HETATM   16  N13 UNL     1     -38.622   4.604   1.711  1.00  0.00    -0.302 N 
ATOM     17  H13 UNL     1     -39.484   4.059   1.729  1.00  0.00     0.186 HD
BRANCH  16  18
HETATM   18  N14 UNL     1     -37.605   4.208   2.541  1.00  0.00    -0.345 N 
ATOM     19 2H14 UNL     1     -37.597   4.618   3.475  1.00  0.00     0.176 HD
ATOM     20 1H14 UNL     1     -36.871   3.546   2.291  1.00  0.00     0.176 HD
ENDBRANCH  16  18
ENDBRANCH  12  16
BRANCH  13  21
HETATM   21  O3  UNL     1     -36.419   5.068  -0.085  1.00  0.00    -0.356 OA
ATOM     22  H3  UNL     1     -36.308   4.510   0.676  1.00  0.00     0.218 HD
ENDBRANCH  13  21
ENDBRANCH   1   8
BRANCH   7  23
HETATM   23  N8  UNL     1     -37.082   6.422  -3.942  1.00  0.00    -0.076 N 
HETATM   24  C10 UNL     1     -37.985   7.224  -4.525  1.00  0.00     0.702 A 
HETATM   25  N10 UNL     1     -38.908   6.713  -5.390  1.00  0.00    -0.022 N 
HETATM   26  C11 UNL     1     -38.884   5.396  -5.638  1.00  0.00     0.694 A 
ATOM     27  H10 UNL     1     -39.598   7.318  -5.837  1.00  0.00     0.203 HD
HETATM   28  N12 UNL     1     -37.980   4.600  -5.053  1.00  0.00    -0.140 N 
HETATM   29  C12 UNL     1     -37.070   5.088  -4.203  1.00  0.00     0.361 A 
ATOM     30  H12 UNL     1     -37.985   3.601  -5.260  1.00  0.00     0.189 HD
HETATM   31  O2  UNL     1     -36.229   4.326  -3.659  1.00  0.00    -0.245 OA
BRANCH  24  32
HETATM   32  N9  UNL     1     -38.076   8.485  -4.314  1.00  0.00    -0.233 N 
ATOM     33  H92 UNL     1     -37.187   8.984  -4.279  1.00  0.00     0.174 HD
ATOM     34  H91 UNL     1     -38.957   8.988  -4.204  1.00  0.00     0.174 HD
ENDBRANCH  24  32
BRANCH  26  35
HETATM   35  N11 UNL     1     -39.777   4.940  -6.470  1.00  0.00    -0.234 N 
ATOM     36 2H11 UNL     1     -40.675   4.571  -6.156  1.00  0.00     0.174 HD
ATOM     37 1H11 UNL     1     -39.536   4.967  -7.460  1.00  0.00     0.174 HD
ENDBRANCH  26  35
ENDBRANCH   7  23
BRANCH   6  38
HETATM   38  C7  UNL     1     -34.102   7.313  -4.673  1.00  0.00     0.214 C 
BRANCH  38  39
HETATM   39  N4  UNL     1     -33.728   5.989  -5.097  1.00  0.00    -0.265 N 
HETATM   40  C8  UNL     1     -33.989   5.483  -6.343  1.00  0.00     0.220 A 
HETATM   41  N5  UNL     1     -33.524   4.209  -6.378  1.00  0.00    -0.279 N 
HETATM   42  N6  UNL     1     -33.000   3.937  -5.211  1.00  0.00    -0.227 N 
ATOM     43  H5  UNL     1     -33.575   3.575  -7.175  1.00  0.00     0.189 HD
HETATM   44  N7  UNL     1     -33.135   5.014  -4.465  1.00  0.00    -0.225 N 
ATOM     45  H6  UNL     1     -32.569   3.056  -4.931  1.00  0.00     0.210 HD
ATOM     46  H7  UNL     1     -32.812   5.078  -3.501  1.00  0.00     0.210 HD
ENDBRANCH  38  39
ENDBRANCH   6  38
TORSDOF 10
ENDMDL
MODEL 2
REMARK VINA RESULT: -6.666959910      2.370      3.475
REMARK  10 active torsions:
REMARK  status: ('A' for Active; 'I' for Inactive)
REMARK    1  A    between atoms: O1_2  and  C2_3 
REMARK    2  A    between atoms: C5_6  and  N1_7 
REMARK    3  A    between atoms: C6_12  and  C7_13 
REMARK    4  A    between atoms: C7_13  and  N4_14 
REMARK    5  A    between atoms: C9_22  and  N8_23 
REMARK    6  A    between atoms: C10_24  and  N9_25 
REMARK    7  A    between atoms: C11_30  and  N11_31 
REMARK    8  A    between atoms: C13_38  and  O3_39 
REMARK    9  A    between atoms: C14_41  and  N13_42 
REMARK   10  A    between atoms: N13_42  and  N14_44 
ROOT
HETATM    1  N1  UNL     1     -38.408   7.349  -2.531  1.00  0.00    -0.220 N 
HETATM    2  N2  UNL     1     -38.548   8.406  -3.358  1.00  0.00    -0.234 N 
ATOM      3  H2  UNL     1     -39.207   9.170  -3.204  1.00  0.00     0.209 HD
HETATM    4  N3  UNL     1     -37.750   8.336  -4.366  1.00  0.00    -0.284 N 
ATOM      5  H3  UNL     1     -37.673   9.014  -5.123  1.00  0.00     0.188 HD
HETATM    6  C6  UNL     1     -37.024   7.183  -4.232  1.00  0.00     0.094 A 
HETATM    7  C9  UNL     1     -37.462   6.597  -3.079  1.00  0.00     0.182 A 
ENDROOT
BRANCH   1   8
HETATM    8  C5  UNL     1     -39.218   7.214  -1.367  1.00  0.00     0.095 A 
HETATM    9  C4  UNL     1     -38.858   7.689  -0.133  1.00  0.00     0.037 A 
HETATM   10  C3  UNL     1     -39.668   7.555   0.974  1.00  0.00     0.041 A 
HETATM   11  C2  UNL     1     -40.896   6.934   0.915  1.00  0.00     0.099 A 
HETATM   12  C14 UNL     1     -41.276   6.447  -0.329  1.00  0.00     0.116 A 
HETATM   13  C13 UNL     1     -40.469   6.580  -1.437  1.00  0.00     0.125 A 
BRANCH  11  14
HETATM   14  O1  UNL     1     -41.707   6.803   2.030  1.00  0.00    -0.353 OA
HETATM   15  C1  UNL     1     -42.635   7.788   2.411  1.00  0.00     0.210 C 
ENDBRANCH  11  14
BRANCH  12  16
HETATM   16  N13 UNL     1     -42.553   5.791  -0.410  1.00  0.00    -0.302 N 
ATOM     17  H13 UNL     1     -43.320   6.187   0.133  1.00  0.00     0.186 HD
BRANCH  16  18
HETATM   18  N14 UNL     1     -42.818   4.674  -1.160  1.00  0.00    -0.345 N 
ATOM     19 2H14 UNL     1     -42.169   4.475  -1.921  1.00  0.00     0.176 HD
ATOM     20 1H14 UNL     1     -43.605   4.043  -1.011  1.00  0.00     0.176 HD
ENDBRANCH  16  18
ENDBRANCH  12  16
BRANCH  13  21
HETATM   21  O3  UNL     1     -40.813   6.112  -2.683  1.00  0.00    -0.356 OA
ATOM     22  H3  UNL     1     -40.250   5.427  -3.023  1.00  0.00     0.218 HD
ENDBRANCH  13  21
ENDBRANCH   1   8
BRANCH   7  23
HETATM   23  N8  UNL     1     -36.998   5.376  -2.560  1.00  0.00    -0.076 N 
HETATM   24  C10 UNL     1     -37.557   4.220  -2.947  1.00  0.00     0.702 A 
HETATM   25  N10 UNL     1     -37.098   3.032  -2.458  1.00  0.00    -0.022 N 
HETATM   26  C11 UNL     1     -36.080   3.056  -1.586  1.00  0.00     0.694 A 
ATOM     27  H10 UNL     1     -37.519   2.149  -2.747  1.00  0.00     0.203 HD
HETATM   28  N12 UNL     1     -35.525   4.214  -1.204  1.00  0.00    -0.140 N 
HETATM   29  C12 UNL     1     -35.966   5.385  -1.676  1.00  0.00     0.361 A 
ATOM     30  H12 UNL     1     -34.752   4.202  -0.539  1.00  0.00     0.189 HD
HETATM   31  O2  UNL     1     -35.435   6.465  -1.305  1.00  0.00    -0.245 OA
BRANCH  24  32
HETATM   32  N9  UNL     1     -38.546   4.130  -3.757  1.00  0.00    -0.233 N 
ATOM     33  H92 UNL     1     -38.942   5.020  -4.058  1.00  0.00     0.174 HD
ATOM     34  H91 UNL     1     -38.921   3.250  -4.111  1.00  0.00     0.174 HD
ENDBRANCH  24  32
BRANCH  26  35
HETATM   35  N11 UNL     1     -35.664   1.905  -1.139  1.00  0.00    -0.234 N 
ATOM     36 2H11 UNL     1     -36.288   1.246  -0.673  1.00  0.00     0.174 HD
ATOM     37 1H11 UNL     1     -34.677   1.690  -1.275  1.00  0.00     0.174 HD
ENDBRANCH  26  35
ENDBRANCH   7  23
BRANCH   6  38
HETATM   38  C7  UNL     1     -36.017   6.815  -5.241  1.00  0.00     0.214 C 
BRANCH  38  39
HETATM   39  N4  UNL     1     -34.773   6.370  -4.668  1.00  0.00    -0.265 N 
HETATM   40  C8  UNL     1     -34.214   5.144  -4.915  1.00  0.00     0.220 A 
HETATM   41  N5  UNL     1     -33.070   5.058  -4.192  1.00  0.00    -0.279 N 
HETATM   42  N6  UNL     1     -32.925   6.176  -3.529  1.00  0.00    -0.227 N 
ATOM     43  H5  UNL     1     -32.434   4.261  -4.169  1.00  0.00     0.189 HD
HETATM   44  N7  UNL     1     -33.953   6.941  -3.830  1.00  0.00    -0.225 N 
ATOM     45  H6  UNL     1     -32.159   6.411  -2.898  1.00  0.00     0.210 HD
ATOM     46  H7  UNL     1     -34.094   7.876  -3.449  1.00  0.00     0.210 HD
ENDBRANCH  38  39
ENDBRANCH   6  38
TORSDOF 10
ENDMDL
MODEL 3
REMARK VINA RESULT: -6.629961156      1.542      2.242
REMARK  10 active torsions:
REMARK  status: ('A' for Active; 'I' for Inactive)
REMARK    1  A    between atoms: O1_2  and  C2_3 
REMARK    2  A    between atoms: C5_6  and  N1_7 
REMARK    3  A    between atoms: C6_12  and  C7_13 
REMARK    4  A    between atoms: C7_13  and  N4_14 
REMARK    5  A    between atoms: C9_22  and  N8_23 
REMARK    6  A    between atoms: C10_24  and  N9_25 
REMARK    7  A    between atoms: C11_30  and  N11_31 
REMARK    8  A    between atoms: C13_38  and  O3_39 
REMARK    9  A    between atoms: C14_41  and  N13_42 
REMARK   10  A    between atoms: N13_42  and  N14_44 
ROOT
HETATM    1  N1  UNL     1     -35.958   6.880  -1.425  1.00  0.00    -0.220 N 
HETATM    2  N2  UNL     1     -35.077   7.856  -1.120  1.00  0.00    -0.234 N 
ATOM      3  H2  UNL     1     -35.210   8.532  -0.368  1.00  0.00     0.209 HD
HETATM    4  N3  UNL     1     -34.047   7.831  -1.892  1.00  0.00    -0.284 N 
ATOM      5  H3  UNL     1     -33.250   8.466  -1.856  1.00  0.00     0.188 HD
HETATM    6  C6  UNL     1     -34.219   6.793  -2.769  1.00  0.00     0.094 A 
HETATM    7  C9  UNL     1     -35.418   6.226  -2.447  1.00  0.00     0.182 A 
ENDROOT
BRANCH   1   8
HETATM    8  C5  UNL     1     -37.183   6.746  -0.712  1.00  0.00     0.095 A 
HETATM    9  C4  UNL     1     -38.259   7.576  -0.888  1.00  0.00     0.037 A 
HETATM   10  C3  UNL     1     -39.438   7.415  -0.194  1.00  0.00     0.041 A 
HETATM   11  C2  UNL     1     -39.615   6.407   0.728  1.00  0.00     0.099 A 
HETATM   12  C14 UNL     1     -38.534   5.556   0.919  1.00  0.00     0.116 A 
HETATM   13  C13 UNL     1     -37.356   5.714   0.225  1.00  0.00     0.125 A 
BRANCH  11  14
HETATM   14  O1  UNL     1     -40.803   6.248   1.424  1.00  0.00    -0.353 OA
HETATM   15  C1  UNL     1     -41.773   7.262   1.506  1.00  0.00     0.210 C 
ENDBRANCH  11  14
BRANCH  12  16
HETATM   16  N13 UNL     1     -38.699   4.499   1.881  1.00  0.00    -0.302 N 
ATOM     17  H13 UNL     1     -39.620   4.068   1.952  1.00  0.00     0.186 HD
BRANCH  16  18
HETATM   18  N14 UNL     1     -37.713   4.028   2.708  1.00  0.00    -0.345 N 
ATOM     19 2H14 UNL     1     -36.983   4.692   2.969  1.00  0.00     0.176 HD
ATOM     20 1H14 UNL     1     -37.661   3.077   3.073  1.00  0.00     0.176 HD
ENDBRANCH  16  18
ENDBRANCH  12  16
BRANCH  13  21
HETATM   21  O3  UNL     1     -36.267   4.891   0.387  1.00  0.00    -0.356 OA
ATOM     22  H3  UNL     1     -36.282   4.358   1.173  1.00  0.00     0.218 HD
ENDBRANCH  13  21
ENDBRANCH   1   8
BRANCH   7  23
HETATM   23  N8  UNL     1     -36.004   5.132  -3.106  1.00  0.00    -0.076 N 
HETATM   24  C10 UNL     1     -35.675   3.878  -2.759  1.00  0.00     0.702 A 
HETATM   25  N10 UNL     1     -36.253   2.813  -3.384  1.00  0.00    -0.022 N 
HETATM   26  C11 UNL     1     -37.153   3.056  -4.349  1.00  0.00     0.694 A 
ATOM     27  H10 UNL     1     -36.008   1.857  -3.126  1.00  0.00     0.203 HD
HETATM   28  N12 UNL     1     -37.477   4.309  -4.691  1.00  0.00    -0.140 N 
HETATM   29  C12 UNL     1     -36.917   5.362  -4.085  1.00  0.00     0.361 A 
ATOM     30  H12 UNL     1     -38.165   4.464  -5.428  1.00  0.00     0.189 HD
HETATM   31  O2  UNL     1     -37.231   6.534  -4.420  1.00  0.00    -0.245 OA
BRANCH  24  32
HETATM   32  N9  UNL     1     -34.808   3.579  -1.864  1.00  0.00    -0.233 N 
ATOM     33  H92 UNL     1     -34.943   4.033  -0.960  1.00  0.00     0.174 HD
ATOM     34  H91 UNL     1     -34.039   2.924  -2.004  1.00  0.00     0.174 HD
ENDBRANCH  24  32
BRANCH  26  35
HETATM   35  N11 UNL     1     -37.688   2.017  -4.925  1.00  0.00    -0.234 N 
ATOM     36 2H11 UNL     1     -37.921   1.169  -4.410  1.00  0.00     0.174 HD
ATOM     37 1H11 UNL     1     -37.864   2.090  -5.927  1.00  0.00     0.174 HD
ENDBRANCH  26  35
ENDBRANCH   7  23
BRANCH   6  38
HETATM   38  C7  UNL     1     -33.201   6.505  -3.792  1.00  0.00     0.214 C 
BRANCH  38  39
HETATM   39  N4  UNL     1     -33.740   6.417  -5.124  1.00  0.00    -0.265 N 
HETATM   40  C8  UNL     1     -33.593   5.323  -5.936  1.00  0.00     0.220 A 
HETATM   41  N5  UNL     1     -34.199   5.601  -7.117  1.00  0.00    -0.279 N 
HETATM   42  N6  UNL     1     -34.697   6.808  -7.043  1.00  0.00    -0.227 N 
ATOM     43  H5  UNL     1     -34.255   4.978  -7.923  1.00  0.00     0.189 HD
HETATM   44  N7  UNL     1     -34.410   7.272  -5.845  1.00  0.00    -0.225 N 
ATOM     45  H6  UNL     1     -35.213   7.297  -7.775  1.00  0.00     0.210 HD
ATOM     46  H7  UNL     1     -34.680   8.199  -5.518  1.00  0.00     0.210 HD
ENDBRANCH  38  39
ENDBRANCH   6  38
TORSDOF 10
ENDMDL
MODEL 4
REMARK VINA RESULT: -6.623753206      2.179      3.044
REMARK  10 active torsions:
REMARK  status: ('A' for Active; 'I' for Inactive)
REMARK    1  A    between atoms: O1_2  and  C2_3 
REMARK    2  A    between atoms: C5_6  and  N1_7 
REMARK    3  A    between atoms: C6_12  and  C7_13 
REMARK    4  A    between atoms: C7_13  and  N4_14 
REMARK    5  A    between atoms: C9_22  and  N8_23 
REMARK    6  A    between atoms: C10_24  and  N9_25 
REMARK    7  A    between atoms: C11_30  and  N11_31 
REMARK    8  A    between atoms: C13_38  and  O3_39 
REMARK    9  A    between atoms: C14_41  and  N13_42 
REMARK   10  A    between atoms: N13_42  and  N14_44 
ROOT
HETATM    1  N1  UNL     1     -35.816   6.588  -1.416  1.00  0.00    -0.220 N 
HETATM    2  N2  UNL     1     -34.965   7.592  -1.117  1.00  0.00    -0.234 N 
ATOM      3  H2  UNL     1     -35.141   8.295  -0.399  1.00  0.00     0.209 HD
HETATM    4  N3  UNL     1     -33.906   7.557  -1.847  1.00  0.00    -0.284 N 
ATOM      5  H3  UNL     1     -33.123   8.209  -1.807  1.00  0.00     0.188 HD
HETATM    6  C6  UNL     1     -34.025   6.482  -2.687  1.00  0.00     0.094 A 
HETATM    7  C9  UNL     1     -35.225   5.905  -2.390  1.00  0.00     0.182 A 
ENDROOT
BRANCH   1   8
HETATM    8  C5  UNL     1     -37.066   6.458  -0.746  1.00  0.00     0.095 A 
HETATM    9  C4  UNL     1     -37.229   5.773   0.430  1.00  0.00     0.037 A 
HETATM   10  C3  UNL     1     -38.448   5.675   1.065  1.00  0.00     0.041 A 
HETATM   11  C2  UNL     1     -39.588   6.259   0.559  1.00  0.00     0.099 A 
HETATM   12  C14 UNL     1     -39.440   6.958  -0.633  1.00  0.00     0.116 A 
HETATM   13  C13 UNL     1     -38.223   7.059  -1.268  1.00  0.00     0.125 A 
BRANCH  11  14
HETATM   14  O1  UNL     1     -40.812   6.159   1.200  1.00  0.00    -0.353 OA
HETATM   15  C1  UNL     1     -41.532   7.285   1.636  1.00  0.00     0.210 C 
ENDBRANCH  11  14
BRANCH  12  16
HETATM   16  N13 UNL     1     -40.621   7.572  -1.179  1.00  0.00    -0.302 N 
ATOM     17  H13 UNL     1     -41.311   7.932  -0.520  1.00  0.00     0.186 HD
BRANCH  16  18
HETATM   18  N14 UNL     1     -40.889   7.710  -2.516  1.00  0.00    -0.345 N 
ATOM     19 2H14 UNL     1     -41.202   8.631  -2.823  1.00  0.00     0.176 HD
ATOM     20 1H14 UNL     1     -40.798   6.968  -3.210  1.00  0.00     0.176 HD
ENDBRANCH  16  18
ENDBRANCH  12  16
BRANCH  13  21
HETATM   21  O3  UNL     1     -38.039   7.743  -2.446  1.00  0.00    -0.356 OA
ATOM     22  H3  UNL     1     -38.596   8.505  -2.557  1.00  0.00     0.218 HD
ENDBRANCH  13  21
ENDBRANCH   1   8
BRANCH   7  23
HETATM   23  N8  UNL     1     -35.764   4.774  -3.025  1.00  0.00    -0.076 N 
HETATM   24  C10 UNL     1     -35.538   3.548  -2.530  1.00  0.00     0.702 A 
HETATM   25  N10 UNL     1     -36.073   2.448  -3.135  1.00  0.00    -0.022 N 
HETATM   26  C11 UNL     1     -36.825   2.630  -4.230  1.00  0.00     0.694 A 
ATOM     27  H10 UNL     1     -35.904   1.513  -2.765  1.00  0.00     0.203 HD
HETATM   28  N12 UNL     1     -37.048   3.856  -4.719  1.00  0.00    -0.140 N 
HETATM   29  C12 UNL     1     -36.529   4.942  -4.136  1.00  0.00     0.361 A 
ATOM     30  H12 UNL     1     -37.624   3.965  -5.554  1.00  0.00     0.189 HD
HETATM   31  O2  UNL     1     -36.745   6.088  -4.610  1.00  0.00    -0.245 OA
BRANCH  24  32
HETATM   32  N9  UNL     1     -34.810   3.304  -1.504  1.00  0.00    -0.233 N 
ATOM     33  H92 UNL     1     -35.178   3.655  -0.619  1.00  0.00     0.174 HD
ATOM     34  H91 UNL     1     -33.934   2.784  -1.530  1.00  0.00     0.174 HD
ENDBRANCH  24  32
BRANCH  26  35
HETATM   35  N11 UNL     1     -37.322   1.560  -4.783  1.00  0.00    -0.234 N 
ATOM     36 2H11 UNL     1     -36.756   0.734  -4.975  1.00  0.00     0.174 HD
ATOM     37 1H11 UNL     1     -38.314   1.585  -5.018  1.00  0.00     0.174 HD
ENDBRANCH  26  35
ENDBRANCH   7  23
BRANCH   6  38
HETATM   38  C7  UNL     1     -32.962   6.174  -3.658  1.00  0.00     0.214 C 
BRANCH  38  39
HETATM   39  N4  UNL     1     -33.397   6.262  -5.027  1.00  0.00    -0.265 N 
HETATM   40  C8  UNL     1     -33.300   5.233  -5.927  1.00  0.00     0.220 A 
HETATM   41  N5  UNL     1     -33.776   5.677  -7.117  1.00  0.00    -0.279 N 
HETATM   42  N6  UNL     1     -34.150   6.921  -6.964  1.00  0.00    -0.227 N 
ATOM     43  H5  UNL     1     -33.831   5.136  -7.980  1.00  0.00     0.189 HD
HETATM   44  N7  UNL     1     -33.914   7.245  -5.710  1.00  0.00    -0.225 N 
ATOM     45  H6  UNL     1     -34.551   7.526  -7.681  1.00  0.00     0.210 HD
ATOM     46  H7  UNL     1     -34.112   8.165  -5.317  1.00  0.00     0.210 HD
ENDBRANCH  38  39
ENDBRANCH   6  38
TORSDOF 10
ENDMDL
MODEL 5
REMARK VINA RESULT: -6.609309685      3.378      5.536
REMARK  10 active torsions:
REMARK  status: ('A' for Active; 'I' for Inactive)
REMARK    1  A    between atoms: O1_2  and  C2_3 
REMARK    2  A    between atoms: C5_6  and  N1_7 
REMARK    3  A    between atoms: C6_12  and  C7_13 
REMARK    4  A    between atoms: C7_13  and  N4_14 
REMARK    5  A    between atoms: C9_22  and  N8_23 
REMARK    6  A    between atoms: C10_24  and  N9_25 
REMARK    7  A    between atoms: C11_30  and  N11_31 
REMARK    8  A    between atoms: C13_38  and  O3_39 
REMARK    9  A    between atoms: C14_41  and  N13_42 
REMARK   10  A    between atoms: N13_42  and  N14_44 
ROOT
HETATM    1  N1  UNL     1     -37.145   3.891   0.200  1.00  0.00    -0.220 N 
HETATM    2  N2  UNL     1     -35.903   3.773  -0.317  1.00  0.00    -0.234 N 
ATOM      3  H2  UNL     1     -35.205   3.109   0.018  1.00  0.00     0.209 HD
HETATM    4  N3  UNL     1     -35.706   4.600  -1.283  1.00  0.00    -0.284 N 
ATOM      5  H3  UNL     1     -34.849   4.699  -1.828  1.00  0.00     0.188 HD
HETATM    6  C6  UNL     1     -36.859   5.321  -1.446  1.00  0.00     0.094 A 
HETATM    7  C9  UNL     1     -37.730   4.851  -0.506  1.00  0.00     0.182 A 
ENDROOT
BRANCH   1   8
HETATM    8  C5  UNL     1     -37.562   3.089   1.300  1.00  0.00     0.095 A 
HETATM    9  C4  UNL     1     -38.150   1.859   1.163  1.00  0.00     0.037 A 
HETATM   10  C3  UNL     1     -38.532   1.097   2.246  1.00  0.00     0.041 A 
HETATM   11  C2  UNL     1     -38.350   1.523   3.543  1.00  0.00     0.099 A 
HETATM   12  C14 UNL     1     -37.755   2.768   3.700  1.00  0.00     0.116 A 
HETATM   13  C13 UNL     1     -37.371   3.530   2.620  1.00  0.00     0.125 A 
BRANCH  11  14
HETATM   14  O1  UNL     1     -38.735   0.754   4.629  1.00  0.00    -0.353 OA
HETATM   15  C1  UNL     1     -39.767  -0.198   4.554  1.00  0.00     0.210 C 
ENDBRANCH  11  14
BRANCH  12  16
HETATM   16  N13 UNL     1     -37.559   3.231   5.048  1.00  0.00    -0.302 N 
ATOM     17  H13 UNL     1     -38.207   2.894   5.760  1.00  0.00     0.186 HD
BRANCH  16  18
HETATM   18  N14 UNL     1     -36.569   4.090   5.449  1.00  0.00    -0.345 N 
ATOM     19 2H14 UNL     1     -36.392   4.142   6.452  1.00  0.00     0.176 HD
ATOM     20 1H14 UNL     1     -36.009   4.669   4.823  1.00  0.00     0.176 HD
ENDBRANCH  16  18
ENDBRANCH  12  16
BRANCH  13  21
HETATM   21  O3  UNL     1     -36.778   4.764   2.738  1.00  0.00    -0.356 OA
ATOM     22  H3  UNL     1     -37.375   5.477   2.932  1.00  0.00     0.218 HD
ENDBRANCH  13  21
ENDBRANCH   1   8
BRANCH   7  23
HETATM   23  N8  UNL     1     -39.038   5.322  -0.301  1.00  0.00    -0.076 N 
HETATM   24  C10 UNL     1     -39.293   6.211   0.670  1.00  0.00     0.702 A 
HETATM   25  N10 UNL     1     -40.559   6.683   0.861  1.00  0.00    -0.022 N 
HETATM   26  C11 UNL     1     -41.531   6.234   0.055  1.00  0.00     0.694 A 
ATOM     27  H10 UNL     1     -40.760   7.359   1.598  1.00  0.00     0.203 HD
HETATM   28  N12 UNL     1     -41.270   5.345  -0.913  1.00  0.00    -0.140 N 
HETATM   29  C12 UNL     1     -40.034   4.875  -1.111  1.00  0.00     0.361 A 
ATOM     30  H12 UNL     1     -42.030   5.021  -1.512  1.00  0.00     0.189 HD
HETATM   31  O2  UNL     1     -39.806   4.039  -2.023  1.00  0.00    -0.245 OA
BRANCH  24  32
HETATM   32  N9  UNL     1     -38.415   6.662   1.487  1.00  0.00    -0.233 N 
ATOM     33  H92 UNL     1     -37.878   5.950   1.983  1.00  0.00     0.174 HD
ATOM     34  H91 UNL     1     -38.226   7.652   1.641  1.00  0.00     0.174 HD
ENDBRANCH  24  32
BRANCH  26  35
HETATM   35  N11 UNL     1     -42.728   6.704   0.262  1.00  0.00    -0.234 N 
ATOM     36 2H11 UNL     1     -43.367   6.923  -0.502  1.00  0.00     0.174 HD
ATOM     37 1H11 UNL     1     -43.002   6.848   1.234  1.00  0.00     0.174 HD
ENDBRANCH  26  35
ENDBRANCH   7  23
BRANCH   6  38
HETATM   38  C7  UNL     1     -36.947   6.361  -2.484  1.00  0.00     0.214 C 
BRANCH  38  39
HETATM   39  N4  UNL     1     -37.558   7.579  -2.020  1.00  0.00    -0.265 N 
HETATM   40  C8  UNL     1     -38.695   8.118  -2.563  1.00  0.00     0.220 A 
HETATM   41  N5  UNL     1     -38.963   9.271  -1.901  1.00  0.00    -0.279 N 
HETATM   42  N6  UNL     1     -38.039   9.440  -0.992  1.00  0.00    -0.227 N 
ATOM     43  H5  UNL     1     -39.748   9.898  -2.082  1.00  0.00     0.189 HD
HETATM   44  N7  UNL     1     -37.214   8.418  -1.083  1.00  0.00    -0.225 N 
ATOM     45  H6  UNL     1     -37.970  10.217  -0.334  1.00  0.00     0.210 HD
ATOM     46  H7  UNL     1     -36.395   8.297  -0.488  1.00  0.00     0.210 HD
ENDBRANCH  38  39
ENDBRANCH   6  38
TORSDOF 10
ENDMDL
