MODEL 1
REMARK VINA RESULT: -9.238089190      0.000      0.000
REMARK  14 active torsions:
REMARK  status: ('A' for Active; 'I' for Inactive)
REMARK    1  A    between atoms: C2_2  and  O2_4 
REMARK    2  A    between atoms: O2_4  and  C3_5 
REMARK    3  A    between atoms: N1_12  and  C10_13 
REMARK    4  A    between atoms: C10_13  and  C11_14 
REMARK    5  A    between atoms: C11_14  and  N2_15 
REMARK    6  A    between atoms: N2_15  and  C12_16 
REMARK       I    between atoms: N2_15  and  C22_32 
REMARK    7  A    between atoms: C12_16  and  C13_17 
REMARK    8  A    between atoms: C13_17  and  C14_18 
REMARK    9  A    between atoms: C14_18  and  N3_19 
REMARK       I    between atoms: N3_19  and  C15_21 
REMARK       I    between atoms: C15_21  and  N4_23 
REMARK   10  A    between atoms: N4_23  and  C16_25 
REMARK   11  A    between atoms: C22_32  and  C23_34 
REMARK   12  A    between atoms: C23_34  and  O5_35 
REMARK   13  A    between atoms: O5_35  and  C24_36 
REMARK   14  A    between atoms: C24_36  and  C25_38 
ROOT
HETATM    1  C16 UNL     1       1.928   2.443  10.572  1.00  0.00     0.123 C 
HETATM    2  C17 UNL     1       2.419   3.669   9.899  1.00  0.00     0.091 C 
HETATM    3  N5  UNL     1       2.820   4.617   9.366  1.00  0.00    -0.195 NA
HETATM    4  C18 UNL     1       1.356   2.816  11.925  1.00  0.00     0.046 C 
HETATM    5  C19 UNL     1       0.205   1.847  12.106  1.00  0.00     0.004 C 
HETATM    6  C20 UNL     1      -0.265   1.502  10.727  1.00  0.00     0.004 C 
HETATM    7  C21 UNL     1       0.844   1.788   9.777  1.00  0.00     0.046 C 
ENDROOT
BRANCH   1   8
HETATM    8  N4  UNL     1       3.044   1.533  10.714  1.00  0.00    -0.321 N 
HETATM    9  C15 UNL     1       4.207   1.840  11.449  1.00  0.00     0.317 C 
HETATM   10  N3  UNL     1       5.296   0.948  11.587  1.00  0.00    -0.343 N 
HETATM   11  O3  UNL     1       4.261   2.963  11.999  1.00  0.00    -0.247 OA
ATOM     12  H3  UNL     1       5.209   0.040  11.130  1.00  0.00     0.164 HD
ATOM     13  H4  UNL     1       2.986   0.621  10.259  1.00  0.00     0.166 HD
BRANCH  10  14
HETATM   14  C14 UNL     1       6.511   1.196  12.310  1.00  0.00     0.126 C 
BRANCH  14  15
HETATM   15  C13 UNL     1       7.160  -0.068  12.769  1.00  0.00     0.039 C 
BRANCH  15  16
HETATM   16  C12 UNL     1       6.606  -0.425  14.142  1.00  0.00     0.128 C 
BRANCH  16  17
HETATM   17  N2  UNL     1       5.505  -1.379  14.036  1.00  0.00    -0.346 N 
HETATM   18  C22 UNL     1       4.183  -0.937  14.267  1.00  0.00     0.244 C 
HETATM   19  O4  UNL     1       3.971   0.271  14.580  1.00  0.00    -0.271 OA
BRANCH  17  20
HETATM   20  C11 UNL     1       5.718  -2.762  13.706  1.00  0.00     0.170 C 
BRANCH  20  21
HETATM   21  C10 UNL     1       6.202  -3.592  14.852  1.00  0.00     0.079 C 
BRANCH  21  22
HETATM   22  N1  UNL     1       7.521  -3.501  15.208  1.00  0.00    -0.382 N 
HETATM   23  C5  UNL     1       7.937  -3.328  16.544  1.00  0.00     0.086 C 
HETATM   24  C4  UNL     1       7.694  -4.666  17.236  1.00  0.00     0.057 C 
HETATM   25  C6  UNL     1       9.432  -3.060  16.419  1.00  0.00     0.027 C 
HETATM   26  C3  UNL     1       8.185  -5.844  16.505  1.00  0.00     0.135 C 
HETATM   27  C9  UNL     1       8.322  -5.711  15.023  1.00  0.00     0.057 C 
HETATM   28  C8  UNL     1       8.525  -4.251  14.589  1.00  0.00     0.086 C 
HETATM   29  C7  UNL     1       9.862  -3.842  15.199  1.00  0.00     0.027 C 
BRANCH  26  30
HETATM   30  O2  UNL     1       9.402  -6.283  17.084  1.00  0.00    -0.316 OA
BRANCH  30  31
HETATM   31  C2  UNL     1       9.554  -6.598  18.413  1.00  0.00     0.255 C 
HETATM   32  C1  UNL     1       8.931  -7.822  18.941  1.00  0.00     0.126 C 
HETATM   33  O1  UNL     1      10.235  -5.801  19.117  1.00  0.00    -0.266 OA
ENDBRANCH  30  31
ENDBRANCH  26  30
ENDBRANCH  21  22
ENDBRANCH  20  21
ENDBRANCH  17  20
BRANCH  18  34
HETATM   34  C23 UNL     1       3.048  -1.868  14.144  1.00  0.00     0.281 C 
BRANCH  34  35
HETATM   35  O5  UNL     1       2.828  -2.662  15.273  1.00  0.00    -0.312 OA
BRANCH  35  36
HETATM   36  C24 UNL     1       2.511  -3.998  15.213  1.00  0.00     0.263 C 
HETATM   37  O6  UNL     1       2.441  -4.580  14.125  1.00  0.00    -0.265 OA
BRANCH  36  38
HETATM   38  C25 UNL     1       2.263  -4.693  16.521  1.00  0.00     0.085 C 
HETATM   39  C26 UNL     1       2.762  -3.825  17.649  1.00  0.00     0.014 C 
HETATM   40  C27 UNL     1       3.327  -4.845  18.626  1.00  0.00     0.001 C 
HETATM   41  C28 UNL     1       4.094  -5.766  17.692  1.00  0.00     0.001 C 
HETATM   42  C29 UNL     1       3.083  -5.980  16.590  1.00  0.00     0.014 C 
ENDBRANCH  36  38
ENDBRANCH  35  36
ENDBRANCH  34  35
ENDBRANCH  18  34
ENDBRANCH  16  17
ENDBRANCH  15  16
ENDBRANCH  14  15
ENDBRANCH  10  14
ENDBRANCH   1   8
TORSDOF 14
ENDMDL
MODEL 2
REMARK VINA RESULT: -9.042392617      1.503      2.108
REMARK  14 active torsions:
REMARK  status: ('A' for Active; 'I' for Inactive)
REMARK    1  A    between atoms: C2_2  and  O2_4 
REMARK    2  A    between atoms: O2_4  and  C3_5 
REMARK    3  A    between atoms: N1_12  and  C10_13 
REMARK    4  A    between atoms: C10_13  and  C11_14 
REMARK    5  A    between atoms: C11_14  and  N2_15 
REMARK    6  A    between atoms: N2_15  and  C12_16 
REMARK       I    between atoms: N2_15  and  C22_32 
REMARK    7  A    between atoms: C12_16  and  C13_17 
REMARK    8  A    between atoms: C13_17  and  C14_18 
REMARK    9  A    between atoms: C14_18  and  N3_19 
REMARK       I    between atoms: N3_19  and  C15_21 
REMARK       I    between atoms: C15_21  and  N4_23 
REMARK   10  A    between atoms: N4_23  and  C16_25 
REMARK   11  A    between atoms: C22_32  and  C23_34 
REMARK   12  A    between atoms: C23_34  and  O5_35 
REMARK   13  A    between atoms: O5_35  and  C24_36 
REMARK   14  A    between atoms: C24_36  and  C25_38 
ROOT
HETATM    1  C16 UNL     1       2.146   3.429   9.709  1.00  0.00     0.123 C 
HETATM    2  C17 UNL     1       1.433   3.382  11.008  1.00  0.00     0.091 C 
HETATM    3  N5  UNL     1       0.895   3.339  12.034  1.00  0.00    -0.195 NA
HETATM    4  C18 UNL     1       1.233   2.891   8.625  1.00  0.00     0.046 C 
HETATM    5  C19 UNL     1       1.593   3.721   7.409  1.00  0.00     0.004 C 
HETATM    6  C20 UNL     1       2.084   5.034   7.937  1.00  0.00     0.004 C 
HETATM    7  C21 UNL     1       2.515   4.831   9.347  1.00  0.00     0.046 C 
ENDROOT
BRANCH   1   8
HETATM    8  N4  UNL     1       3.343   2.626   9.825  1.00  0.00    -0.321 N 
HETATM    9  C15 UNL     1       4.478   3.026  10.559  1.00  0.00     0.317 C 
HETATM   10  N3  UNL     1       5.647   2.237  10.671  1.00  0.00    -0.343 N 
HETATM   11  O3  UNL     1       4.431   4.138  11.132  1.00  0.00    -0.247 OA
ATOM     12  H3  UNL     1       5.643   1.336  10.196  1.00  0.00     0.164 HD
ATOM     13  H4  UNL     1       3.367   1.723   9.351  1.00  0.00     0.166 HD
BRANCH  10  14
HETATM   14  C14 UNL     1       6.839   2.584  11.392  1.00  0.00     0.126 C 
BRANCH  14  15
HETATM   15  C13 UNL     1       7.387   1.428  12.162  1.00  0.00     0.039 C 
BRANCH  15  16
HETATM   16  C12 UNL     1       6.505   1.199  13.382  1.00  0.00     0.128 C 
BRANCH  16  17
HETATM   17  N2  UNL     1       5.718  -0.024  13.245  1.00  0.00    -0.346 N 
HETATM   18  C22 UNL     1       4.334   0.071  12.976  1.00  0.00     0.244 C 
HETATM   19  O4  UNL     1       3.791   1.209  12.877  1.00  0.00    -0.271 OA
BRANCH  17  20
HETATM   20  C11 UNL     1       6.304  -1.330  13.376  1.00  0.00     0.170 C 
BRANCH  20  21
HETATM   21  C10 UNL     1       6.590  -1.729  14.788  1.00  0.00     0.079 C 
BRANCH  21  22
HETATM   22  N1  UNL     1       7.702  -2.490  15.036  1.00  0.00    -0.382 N 
HETATM   23  C5  UNL     1       8.277  -2.597  16.318  1.00  0.00     0.086 C 
HETATM   24  C4  UNL     1       7.325  -3.467  17.135  1.00  0.00     0.057 C 
HETATM   25  C6  UNL     1       9.583  -3.341  16.060  1.00  0.00     0.027 C 
HETATM   26  C3  UNL     1       6.882  -4.701  16.469  1.00  0.00     0.135 C 
HETATM   27  C9  UNL     1       6.907  -4.709  14.974  1.00  0.00     0.057 C 
HETATM   28  C8  UNL     1       7.933  -3.716  14.407  1.00  0.00     0.086 C 
HETATM   29  C7  UNL     1       9.287  -4.238  14.880  1.00  0.00     0.027 C 
BRANCH  26  30
HETATM   30  O2  UNL     1       7.605  -5.803  16.988  1.00  0.00    -0.316 OA
BRANCH  30  31
HETATM   31  C2  UNL     1       8.061  -5.885  18.282  1.00  0.00     0.255 C 
HETATM   32  C1  UNL     1       9.503  -6.044  18.531  1.00  0.00     0.126 C 
HETATM   33  O1  UNL     1       7.197  -5.817  19.201  1.00  0.00    -0.266 OA
ENDBRANCH  30  31
ENDBRANCH  26  30
ENDBRANCH  21  22
ENDBRANCH  20  21
ENDBRANCH  17  20
BRANCH  18  34
HETATM   34  C23 UNL     1       3.518  -1.144  12.807  1.00  0.00     0.281 C 
BRANCH  34  35
HETATM   35  O5  UNL     1       2.898  -1.591  13.977  1.00  0.00    -0.312 OA
BRANCH  35  36
HETATM   36  C24 UNL     1       2.997  -2.878  14.447  1.00  0.00     0.263 C 
HETATM   37  O6  UNL     1       3.519  -3.762  13.757  1.00  0.00    -0.265 OA
BRANCH  36  38
HETATM   38  C25 UNL     1       2.448  -3.142  15.820  1.00  0.00     0.085 C 
HETATM   39  C26 UNL     1       3.568  -3.071  16.827  1.00  0.00     0.014 C 
HETATM   40  C27 UNL     1       3.197  -4.168  17.812  1.00  0.00     0.001 C 
HETATM   41  C28 UNL     1       2.799  -5.296  16.875  1.00  0.00     0.001 C 
HETATM   42  C29 UNL     1       1.906  -4.568  15.898  1.00  0.00     0.014 C 
ENDBRANCH  36  38
ENDBRANCH  35  36
ENDBRANCH  34  35
ENDBRANCH  18  34
ENDBRANCH  16  17
ENDBRANCH  15  16
ENDBRANCH  14  15
ENDBRANCH  10  14
ENDBRANCH   1   8
TORSDOF 14
ENDMDL
MODEL 3
REMARK VINA RESULT: -8.978328935      1.451      2.343
REMARK  14 active torsions:
REMARK  status: ('A' for Active; 'I' for Inactive)
REMARK    1  A    between atoms: C2_2  and  O2_4 
REMARK    2  A    between atoms: O2_4  and  C3_5 
REMARK    3  A    between atoms: N1_12  and  C10_13 
REMARK    4  A    between atoms: C10_13  and  C11_14 
REMARK    5  A    between atoms: C11_14  and  N2_15 
REMARK    6  A    between atoms: N2_15  and  C12_16 
REMARK       I    between atoms: N2_15  and  C22_32 
REMARK    7  A    between atoms: C12_16  and  C13_17 
REMARK    8  A    between atoms: C13_17  and  C14_18 
REMARK    9  A    between atoms: C14_18  and  N3_19 
REMARK       I    between atoms: N3_19  and  C15_21 
REMARK       I    between atoms: C15_21  and  N4_23 
REMARK   10  A    between atoms: N4_23  and  C16_25 
REMARK   11  A    between atoms: C22_32  and  C23_34 
REMARK   12  A    between atoms: C23_34  and  O5_35 
REMARK   13  A    between atoms: O5_35  and  C24_36 
REMARK   14  A    between atoms: C24_36  and  C25_38 
ROOT
HETATM    1  C16 UNL     1       1.985   2.813  10.258  1.00  0.00     0.123 C 
HETATM    2  C17 UNL     1       2.401   4.034   9.529  1.00  0.00     0.091 C 
HETATM    3  N5  UNL     1       2.742   4.977   8.948  1.00  0.00    -0.195 NA
HETATM    4  C18 UNL     1       1.637   3.185  11.686  1.00  0.00     0.046 C 
HETATM    5  C19 UNL     1       0.501   2.244  12.034  1.00  0.00     0.004 C 
HETATM    6  C20 UNL     1      -0.184   1.928  10.740  1.00  0.00     0.004 C 
HETATM    7  C21 UNL     1       0.775   2.196   9.634  1.00  0.00     0.046 C 
ENDROOT
BRANCH   1   8
HETATM    8  N4  UNL     1       3.083   1.872  10.221  1.00  0.00    -0.321 N 
HETATM    9  C15 UNL     1       4.397   2.197  10.617  1.00  0.00     0.317 C 
HETATM   10  N3  UNL     1       5.469   1.275  10.580  1.00  0.00    -0.343 N 
HETATM   11  O3  UNL     1       4.606   3.365  11.016  1.00  0.00    -0.247 OA
ATOM     12  H3  UNL     1       5.256   0.332  10.255  1.00  0.00     0.164 HD
ATOM     13  H4  UNL     1       2.898   0.924   9.892  1.00  0.00     0.166 HD
BRANCH  10  14
HETATM   14  C14 UNL     1       6.829   1.538  10.957  1.00  0.00     0.126 C 
BRANCH  14  15
HETATM   15  C13 UNL     1       7.620   0.282  11.120  1.00  0.00     0.039 C 
BRANCH  15  16
HETATM   16  C12 UNL     1       8.154   0.228  12.545  1.00  0.00     0.128 C 
BRANCH  16  17
HETATM   17  N2  UNL     1       7.179  -0.366  13.455  1.00  0.00    -0.346 N 
HETATM   18  C22 UNL     1       6.563   0.445  14.434  1.00  0.00     0.244 C 
HETATM   19  O4  UNL     1       6.877   1.668  14.524  1.00  0.00    -0.271 OA
BRANCH  17  20
HETATM   20  C11 UNL     1       6.821  -1.757  13.392  1.00  0.00     0.170 C 
BRANCH  20  21
HETATM   21  C10 UNL     1       7.749  -2.658  14.141  1.00  0.00     0.079 C 
BRANCH  21  22
HETATM   22  N1  UNL     1       7.234  -3.426  15.151  1.00  0.00    -0.382 N 
HETATM   23  C5  UNL     1       6.939  -4.795  14.989  1.00  0.00     0.086 C 
HETATM   24  C4  UNL     1       8.286  -5.512  14.937  1.00  0.00     0.057 C 
HETATM   25  C6  UNL     1       6.199  -5.153  16.273  1.00  0.00     0.027 C 
HETATM   26  C3  UNL     1       9.237  -5.128  15.992  1.00  0.00     0.135 C 
HETATM   27  C9  UNL     1       9.063  -3.774  16.599  1.00  0.00     0.057 C 
HETATM   28  C8  UNL     1       7.615  -3.271  16.488  1.00  0.00     0.086 C 
HETATM   29  C7  UNL     1       6.794  -4.247  17.326  1.00  0.00     0.027 C 
BRANCH  26  30
HETATM   30  O2  UNL     1       9.258  -6.130  16.994  1.00  0.00    -0.316 OA
BRANCH  30  31
HETATM   31  C2  UNL     1      10.077  -6.099  18.097  1.00  0.00     0.255 C 
HETATM   32  C1  UNL     1      11.460  -6.590  17.983  1.00  0.00     0.126 C 
HETATM   33  O1  UNL     1       9.585  -5.642  19.166  1.00  0.00    -0.266 OA
ENDBRANCH  30  31
ENDBRANCH  26  30
ENDBRANCH  21  22
ENDBRANCH  20  21
ENDBRANCH  17  20
BRANCH  18  34
HETATM   34  C23 UNL     1       5.556  -0.118  15.350  1.00  0.00     0.281 C 
BRANCH  34  35
HETATM   35  O5  UNL     1       4.233   0.115  14.968  1.00  0.00    -0.312 OA
BRANCH  35  36
HETATM   36  C24 UNL     1       3.350  -0.884  14.634  1.00  0.00     0.263 C 
HETATM   37  O6  UNL     1       2.277  -0.618  14.081  1.00  0.00    -0.265 OA
BRANCH  36  38
HETATM   38  C25 UNL     1       3.759  -2.289  14.974  1.00  0.00     0.085 C 
HETATM   39  C26 UNL     1       3.329  -3.215  13.864  1.00  0.00     0.014 C 
HETATM   40  C27 UNL     1       2.914  -4.467  14.621  1.00  0.00     0.001 C 
HETATM   41  C28 UNL     1       2.107  -3.877  15.765  1.00  0.00     0.001 C 
HETATM   42  C29 UNL     1       3.015  -2.760  16.222  1.00  0.00     0.014 C 
ENDBRANCH  36  38
ENDBRANCH  35  36
ENDBRANCH  34  35
ENDBRANCH  18  34
ENDBRANCH  16  17
ENDBRANCH  15  16
ENDBRANCH  14  15
ENDBRANCH  10  14
ENDBRANCH   1   8
TORSDOF 14
ENDMDL
MODEL 4
REMARK VINA RESULT: -8.953033526      2.488      8.735
REMARK  14 active torsions:
REMARK  status: ('A' for Active; 'I' for Inactive)
REMARK    1  A    between atoms: C2_2  and  O2_4 
REMARK    2  A    between atoms: O2_4  and  C3_5 
REMARK    3  A    between atoms: N1_12  and  C10_13 
REMARK    4  A    between atoms: C10_13  and  C11_14 
REMARK    5  A    between atoms: C11_14  and  N2_15 
REMARK    6  A    between atoms: N2_15  and  C12_16 
REMARK       I    between atoms: N2_15  and  C22_32 
REMARK    7  A    between atoms: C12_16  and  C13_17 
REMARK    8  A    between atoms: C13_17  and  C14_18 
REMARK    9  A    between atoms: C14_18  and  N3_19 
REMARK       I    between atoms: N3_19  and  C15_21 
REMARK       I    between atoms: C15_21  and  N4_23 
REMARK   10  A    between atoms: N4_23  and  C16_25 
REMARK   11  A    between atoms: C22_32  and  C23_34 
REMARK   12  A    between atoms: C23_34  and  O5_35 
REMARK   13  A    between atoms: O5_35  and  C24_36 
REMARK   14  A    between atoms: C24_36  and  C25_38 
ROOT
HETATM    1  C16 UNL     1       8.267  -7.602  18.121  1.00  0.00     0.123 C 
HETATM    2  C17 UNL     1       7.069  -7.035  18.784  1.00  0.00     0.091 C 
HETATM    3  N5  UNL     1       6.127  -6.582  19.284  1.00  0.00    -0.195 NA
HETATM    4  C18 UNL     1       9.446  -7.512  19.070  1.00  0.00     0.046 C 
HETATM    5  C19 UNL     1      10.250  -8.759  18.761  1.00  0.00     0.004 C 
HETATM    6  C20 UNL     1       9.266  -9.771  18.260  1.00  0.00     0.004 C 
HETATM    7  C21 UNL     1       8.062  -9.042  17.776  1.00  0.00     0.046 C 
ENDROOT
BRANCH   1   8
HETATM    8  N4  UNL     1       8.514  -6.843  16.915  1.00  0.00    -0.321 N 
HETATM    9  C15 UNL     1       8.915  -5.492  16.916  1.00  0.00     0.317 C 
HETATM   10  N3  UNL     1       9.156  -4.752  15.735  1.00  0.00    -0.343 N 
HETATM   11  O3  UNL     1       9.059  -4.935  18.029  1.00  0.00    -0.247 OA
ATOM     12  H3  UNL     1       9.035  -5.244  14.850  1.00  0.00     0.164 HD
ATOM     13  H4  UNL     1       8.391  -7.310  16.016  1.00  0.00     0.166 HD
BRANCH  10  14
HETATM   14  C14 UNL     1       9.556  -3.376  15.662  1.00  0.00     0.126 C 
BRANCH  14  15
HETATM   15  C13 UNL     1       8.398  -2.445  15.810  1.00  0.00     0.039 C 
BRANCH  15  16
HETATM   16  C12 UNL     1       7.394  -2.742  14.705  1.00  0.00     0.128 C 
BRANCH  16  17
HETATM   17  N2  UNL     1       6.343  -1.729  14.656  1.00  0.00    -0.346 N 
HETATM   18  C22 UNL     1       5.964  -1.186  13.408  1.00  0.00     0.244 C 
HETATM   19  O4  UNL     1       6.549  -1.568  12.354  1.00  0.00    -0.271 OA
BRANCH  17  20
HETATM   20  C11 UNL     1       5.677  -1.259  15.841  1.00  0.00     0.170 C 
BRANCH  20  21
HETATM   21  C10 UNL     1       4.988  -2.335  16.617  1.00  0.00     0.079 C 
BRANCH  21  22
HETATM   22  N1  UNL     1       3.949  -3.001  16.022  1.00  0.00    -0.382 N 
HETATM   23  C5  UNL     1       4.142  -4.123  15.192  1.00  0.00     0.086 C 
HETATM   24  C4  UNL     1       4.533  -5.270  16.120  1.00  0.00     0.057 C 
HETATM   25  C6  UNL     1       2.760  -4.370  14.600  1.00  0.00     0.027 C 
HETATM   26  C3  UNL     1       3.682  -5.426  17.309  1.00  0.00     0.135 C 
HETATM   27  C9  UNL     1       2.955  -4.211  17.785  1.00  0.00     0.057 C 
HETATM   28  C8  UNL     1       2.717  -3.198  16.654  1.00  0.00     0.086 C 
HETATM   29  C7  UNL     1       1.796  -3.916  15.671  1.00  0.00     0.027 C 
BRANCH  26  30
HETATM   30  O2  UNL     1       2.782  -6.502  17.107  1.00  0.00    -0.316 OA
BRANCH  30  31
HETATM   31  C2  UNL     1       2.889  -7.723  17.728  1.00  0.00     0.255 C 
HETATM   32  C1  UNL     1       3.741  -8.765  17.131  1.00  0.00     0.126 C 
HETATM   33  O1  UNL     1       2.236  -7.884  18.796  1.00  0.00    -0.266 OA
ENDBRANCH  30  31
ENDBRANCH  26  30
ENDBRANCH  21  22
ENDBRANCH  20  21
ENDBRANCH  17  20
BRANCH  18  34
HETATM   34  C23 UNL     1       4.890  -0.181  13.323  1.00  0.00     0.281 C 
BRANCH  34  35
HETATM   35  O5  UNL     1       3.636  -0.703  12.993  1.00  0.00    -0.312 OA
BRANCH  35  36
HETATM   36  C24 UNL     1       2.448  -0.141  13.396  1.00  0.00     0.263 C 
HETATM   37  O6  UNL     1       1.806  -0.630  14.332  1.00  0.00    -0.265 OA
BRANCH  36  38
HETATM   38  C25 UNL     1       1.989   1.078  12.648  1.00  0.00     0.085 C 
HETATM   39  C26 UNL     1       0.495   1.223  12.801  1.00  0.00     0.014 C 
HETATM   40  C27 UNL     1       0.072   1.739  11.434  1.00  0.00     0.001 C 
HETATM   41  C28 UNL     1       0.874   0.840  10.508  1.00  0.00     0.001 C 
HETATM   42  C29 UNL     1       2.239   0.895  11.152  1.00  0.00     0.014 C 
ENDBRANCH  36  38
ENDBRANCH  35  36
ENDBRANCH  34  35
ENDBRANCH  18  34
ENDBRANCH  16  17
ENDBRANCH  15  16
ENDBRANCH  14  15
ENDBRANCH  10  14
ENDBRANCH   1   8
TORSDOF 14
ENDMDL
MODEL 5
REMARK VINA RESULT: -8.928719352      1.436      1.717
REMARK  14 active torsions:
REMARK  status: ('A' for Active; 'I' for Inactive)
REMARK    1  A    between atoms: C2_2  and  O2_4 
REMARK    2  A    between atoms: O2_4  and  C3_5 
REMARK    3  A    between atoms: N1_12  and  C10_13 
REMARK    4  A    between atoms: C10_13  and  C11_14 
REMARK    5  A    between atoms: C11_14  and  N2_15 
REMARK    6  A    between atoms: N2_15  and  C12_16 
REMARK       I    between atoms: N2_15  and  C22_32 
REMARK    7  A    between atoms: C12_16  and  C13_17 
REMARK    8  A    between atoms: C13_17  and  C14_18 
REMARK    9  A    between atoms: C14_18  and  N3_19 
REMARK       I    between atoms: N3_19  and  C15_21 
REMARK       I    between atoms: C15_21  and  N4_23 
REMARK   10  A    between atoms: N4_23  and  C16_25 
REMARK   11  A    between atoms: C22_32  and  C23_34 
REMARK   12  A    between atoms: C23_34  and  O5_35 
REMARK   13  A    between atoms: O5_35  and  C24_36 
REMARK   14  A    between atoms: C24_36  and  C25_38 
ROOT
HETATM    1  C16 UNL     1       1.805   2.918  10.177  1.00  0.00     0.123 C 
HETATM    2  C17 UNL     1       1.922   4.149   9.359  1.00  0.00     0.091 C 
HETATM    3  N5  UNL     1       2.031   5.103   8.710  1.00  0.00    -0.195 NA
HETATM    4  C18 UNL     1       1.396   3.298  11.586  1.00  0.00     0.046 C 
HETATM    5  C19 UNL     1       0.510   2.148  12.023  1.00  0.00     0.004 C 
HETATM    6  C20 UNL     1      -0.097   1.596  10.770  1.00  0.00     0.004 C 
HETATM    7  C21 UNL     1       0.763   2.000   9.625  1.00  0.00     0.046 C 
ENDROOT
BRANCH   1   8
HETATM    8  N4  UNL     1       3.090   2.253  10.172  1.00  0.00    -0.321 N 
HETATM    9  C15 UNL     1       4.264   2.828  10.701  1.00  0.00     0.317 C 
HETATM   10  N3  UNL     1       5.518   2.175  10.696  1.00  0.00    -0.343 N 
HETATM   11  O3  UNL     1       4.171   3.975  11.196  1.00  0.00    -0.247 OA
ATOM     12  H3  UNL     1       5.550   1.240  10.291  1.00  0.00     0.164 HD
ATOM     13  H4  UNL     1       3.150   1.320   9.764  1.00  0.00     0.166 HD
BRANCH  10  14
HETATM   14  C14 UNL     1       6.752   2.702  11.207  1.00  0.00     0.126 C 
BRANCH  14  15
HETATM   15  C13 UNL     1       7.295   1.876  12.326  1.00  0.00     0.039 C 
BRANCH  15  16
HETATM   16  C12 UNL     1       6.819   0.441  12.143  1.00  0.00     0.128 C 
BRANCH  16  17
HETATM   17  N2  UNL     1       6.341  -0.123  13.402  1.00  0.00    -0.346 N 
HETATM   18  C22 UNL     1       4.960  -0.084  13.698  1.00  0.00     0.244 C 
HETATM   19  O4  UNL     1       4.159   0.456  12.880  1.00  0.00    -0.271 OA
BRANCH  17  20
HETATM   20  C11 UNL     1       7.231  -0.721  14.360  1.00  0.00     0.170 C 
BRANCH  20  21
HETATM   21  C10 UNL     1       7.460  -2.183  14.148  1.00  0.00     0.079 C 
BRANCH  21  22
HETATM   22  N1  UNL     1       8.394  -2.814  14.926  1.00  0.00    -0.382 N 
HETATM   23  C5  UNL     1       8.453  -2.649  16.324  1.00  0.00     0.086 C 
HETATM   24  C4  UNL     1       7.258  -3.413  16.888  1.00  0.00     0.057 C 
HETATM   25  C6  UNL     1       9.754  -3.344  16.709  1.00  0.00     0.027 C 
HETATM   26  C3  UNL     1       7.081  -4.773  16.358  1.00  0.00     0.135 C 
HETATM   27  C9  UNL     1       7.657  -5.053  15.008  1.00  0.00     0.057 C 
HETATM   28  C8  UNL     1       8.830  -4.118  14.674  1.00  0.00     0.086 C 
HETATM   29  C7  UNL     1       9.908  -4.458  15.700  1.00  0.00     0.027 C 
BRANCH  26  30
HETATM   30  O2  UNL     1       7.550  -5.715  17.308  1.00  0.00    -0.316 OA
BRANCH  30  31
HETATM   31  C2  UNL     1       6.777  -6.249  18.310  1.00  0.00     0.255 C 
HETATM   32  C1  UNL     1       5.832  -7.332  17.994  1.00  0.00     0.126 C 
HETATM   33  O1  UNL     1       6.926  -5.769  19.468  1.00  0.00    -0.266 OA
ENDBRANCH  30  31
ENDBRANCH  26  30
ENDBRANCH  21  22
ENDBRANCH  20  21
ENDBRANCH  17  20
BRANCH  18  34
HETATM   34  C23 UNL     1       4.443  -0.668  14.948  1.00  0.00     0.281 C 
BRANCH  34  35
HETATM   35  O5  UNL     1       3.811  -1.904  14.789  1.00  0.00    -0.312 OA
BRANCH  35  36
HETATM   36  C24 UNL     1       2.467  -2.103  14.996  1.00  0.00     0.263 C 
HETATM   37  O6  UNL     1       1.640  -1.271  14.608  1.00  0.00    -0.265 OA
BRANCH  36  38
HETATM   38  C25 UNL     1       2.072  -3.366  15.706  1.00  0.00     0.085 C 
HETATM   39  C26 UNL     1       2.821  -3.459  17.013  1.00  0.00     0.014 C 
HETATM   40  C27 UNL     1       3.110  -4.948  17.123  1.00  0.00     0.001 C 
HETATM   41  C28 UNL     1       3.569  -5.274  15.712  1.00  0.00     0.001 C 
HETATM   42  C29 UNL     1       2.509  -4.581  14.888  1.00  0.00     0.014 C 
ENDBRANCH  36  38
ENDBRANCH  35  36
ENDBRANCH  34  35
ENDBRANCH  18  34
ENDBRANCH  16  17
ENDBRANCH  15  16
ENDBRANCH  14  15
ENDBRANCH  10  14
ENDBRANCH   1   8
TORSDOF 14
ENDMDL
