MODEL 1
REMARK VINA RESULT: -9.219220128      0.000      0.000
REMARK  13 active torsions:
REMARK  status: ('A' for Active; 'I' for Inactive)
REMARK       I    between atoms: C2_2  and  N1_4 
REMARK    1  A    between atoms: N2_7  and  C5_8 
REMARK    2  A    between atoms: C5_8  and  C6_9 
REMARK    3  A    between atoms: C6_9  and  C7_10 
REMARK    4  A    between atoms: C7_10  and  C8_11 
REMARK    5  A    between atoms: C8_11  and  C9_12 
REMARK    6  A    between atoms: C9_12  and  N3_13 
REMARK    7  A    between atoms: N3_13  and  C10_15 
REMARK    8  A    between atoms: C12_17  and  N4_18 
REMARK    9  A    between atoms: C13_19  and  C14_20 
REMARK   10  A    between atoms: C14_20  and  C15_21 
REMARK   11  A    between atoms: C15_21  and  C16_22 
REMARK   12  A    between atoms: C16_22  and  N5_23 
REMARK   13  A    between atoms: C23_35  and  N8_36 
ROOT
HETATM    1  C10 UNL     1       4.329  -1.498  15.085  1.00  0.00     0.120 A 
HETATM    2  C11 UNL     1       4.751  -0.385  14.401  1.00  0.00     0.098 A 
HETATM    3  C12 UNL     1       6.082  -0.143  14.117  1.00  0.00     0.135 A 
HETATM    4  N7  UNL     1       6.969  -1.054  14.542  1.00  0.00    -0.176 N 
ATOM      5  H7  UNL     1       7.957  -0.897  14.343  1.00  0.00     0.186 HD
HETATM    6  C23 UNL     1       6.622  -2.157  15.215  1.00  0.00     0.683 A 
HETATM    7  N9  UNL     1       5.329  -2.365  15.475  1.00  0.00    -0.177 N 
ATOM      8  H9  UNL     1       5.067  -3.207  15.987  1.00  0.00     0.185 HD
ENDROOT
BRANCH   1   9
HETATM    9  N3  UNL     1       3.127  -1.788  15.396  1.00  0.00    -0.376 N 
ATOM     10  H3  UNL     1       2.714  -1.273  16.174  1.00  0.00     0.161 HD
BRANCH   9  11
HETATM   11  C9  UNL     1       2.311  -2.756  14.764  1.00  0.00     0.121 C 
BRANCH  11  12
HETATM   12  C8  UNL     1       2.001  -3.854  15.751  1.00  0.00     0.020 C 
BRANCH  12  13
HETATM   13  C7  UNL     1       3.017  -4.992  15.700  1.00  0.00     0.003 C 
BRANCH  13  14
HETATM   14  C6  UNL     1       3.179  -5.624  17.040  1.00  0.00     0.020 C 
BRANCH  14  15
HETATM   15  C5  UNL     1       3.994  -6.916  16.879  1.00  0.00     0.127 C 
BRANCH  15  16
HETATM   16  N2  UNL     1       4.985  -6.977  17.880  1.00  0.00    -0.371 N 
HETATM   17  C4  UNL     1       5.477  -5.772  18.369  1.00  0.00     0.083 C 
HETATM   18  C3  UNL     1       6.822  -5.883  19.063  1.00  0.00     0.170 C 
HETATM   19  N1  UNL     1       7.677  -6.836  18.371  1.00  0.00    -0.343 N 
HETATM   20  C2  UNL     1       9.074  -6.618  18.470  1.00  0.00     0.216 C 
HETATM   21  C30 UNL     1       7.170  -7.941  17.627  1.00  0.00     0.170 C 
HETATM   22  C1  UNL     1       9.999  -7.547  17.782  1.00  0.00     0.117 C 
HETATM   23  O1  UNL     1       9.536  -5.631  19.144  1.00  0.00    -0.274 OA
HETATM   24  C29 UNL     1       5.705  -8.167  17.937  1.00  0.00     0.083 C 
ENDBRANCH  15  16
ENDBRANCH  14  15
ENDBRANCH  13  14
ENDBRANCH  12  13
ENDBRANCH  11  12
ENDBRANCH   9  11
ENDBRANCH   1   9
BRANCH   3  25
HETATM   25  N4  UNL     1       6.504   1.037  13.407  1.00  0.00    -0.251 N 
HETATM   26  C13 UNL     1       5.991   1.464  12.219  1.00  0.00     0.038 A 
HETATM   27  C21 UNL     1       6.609   2.621  11.814  1.00  0.00     0.118 A 
HETATM   28  N6  UNL     1       7.521   2.887  12.801  1.00  0.00    -0.316 N 
HETATM   29  C22 UNL     1       7.438   1.929  13.737  1.00  0.00     0.332 A 
ATOM     30  H6  UNL     1       8.159   3.683  12.821  1.00  0.00     0.170 HD
HETATM   31  O2  UNL     1       8.150   1.893  14.778  1.00  0.00    -0.246 OA
BRANCH  26  32
HETATM   32  C14 UNL     1       4.903   0.746  11.545  1.00  0.00     0.061 C 
BRANCH  32  33
HETATM   33  C15 UNL     1       3.725   1.535  11.132  1.00  0.00     0.036 C 
BRANCH  33  34
HETATM   34  C16 UNL     1       2.861   2.060  12.240  1.00  0.00     0.272 C 
BRANCH  34  35
HETATM   35  N5  UNL     1       1.590   2.545  11.702  1.00  0.00     0.088 N 
HETATM   36  C17 UNL     1       1.590   2.580  10.253  1.00  0.00     0.272 C 
HETATM   37  C18 UNL     1       0.184   2.369   9.808  1.00  0.00     0.032 C 
HETATM   38  C19 UNL     1      -0.537   1.812  10.985  1.00  0.00     0.032 C 
HETATM   39  C20 UNL     1       0.492   1.661  12.056  1.00  0.00     0.272 C 
ENDBRANCH  34  35
ENDBRANCH  33  34
ENDBRANCH  32  33
ENDBRANCH  26  32
ENDBRANCH   3  25
BRANCH   6  40
HETATM   40  N8  UNL     1       7.625  -3.078  15.641  1.00  0.00    -0.217 N 
HETATM   41  C24 UNL     1       8.839  -2.570  16.186  1.00  0.00     0.141 C 
HETATM   42  C25 UNL     1       9.872  -3.661  16.305  1.00  0.00     0.020 C 
HETATM   43  C26 UNL     1       9.848  -4.515  15.058  1.00  0.00     0.003 C 
HETATM   44  C27 UNL     1       8.549  -5.252  15.028  1.00  0.00     0.020 C 
HETATM   45  C28 UNL     1       7.368  -4.477  15.526  1.00  0.00     0.141 C 
ENDBRANCH   6  40
TORSDOF 13
ENDMDL
MODEL 2
REMARK VINA RESULT: -9.131865974      2.767      7.141
REMARK  13 active torsions:
REMARK  status: ('A' for Active; 'I' for Inactive)
REMARK       I    between atoms: C2_2  and  N1_4 
REMARK    1  A    between atoms: N2_7  and  C5_8 
REMARK    2  A    between atoms: C5_8  and  C6_9 
REMARK    3  A    between atoms: C6_9  and  C7_10 
REMARK    4  A    between atoms: C7_10  and  C8_11 
REMARK    5  A    between atoms: C8_11  and  C9_12 
REMARK    6  A    between atoms: C9_12  and  N3_13 
REMARK    7  A    between atoms: N3_13  and  C10_15 
REMARK    8  A    between atoms: C12_17  and  N4_18 
REMARK    9  A    between atoms: C13_19  and  C14_20 
REMARK   10  A    between atoms: C14_20  and  C15_21 
REMARK   11  A    between atoms: C15_21  and  C16_22 
REMARK   12  A    between atoms: C16_22  and  N5_23 
REMARK   13  A    between atoms: C23_35  and  N8_36 
ROOT
HETATM    1  C10 UNL     1       6.065   2.800  11.615  1.00  0.00     0.120 A 
HETATM    2  C11 UNL     1       4.795   2.508  12.044  1.00  0.00     0.098 A 
HETATM    3  C12 UNL     1       3.718   2.416  11.182  1.00  0.00     0.135 A 
HETATM    4  N7  UNL     1       3.962   2.627   9.881  1.00  0.00    -0.176 N 
ATOM      5  H7  UNL     1       3.183   2.563   9.226  1.00  0.00     0.186 HD
HETATM    6  C23 UNL     1       5.176   2.917   9.400  1.00  0.00     0.683 A 
HETATM    7  N9  UNL     1       6.198   2.999  10.256  1.00  0.00    -0.177 N 
ATOM      8  H9  UNL     1       7.123   3.220   9.887  1.00  0.00     0.185 HD
ENDROOT
BRANCH   1   9
HETATM    9  N3  UNL     1       7.106   2.915  12.343  1.00  0.00    -0.376 N 
ATOM     10  H3  UNL     1       7.649   3.772  12.240  1.00  0.00     0.161 HD
BRANCH   9  11
HETATM   11  C9  UNL     1       7.577   1.966  13.281  1.00  0.00     0.121 C 
BRANCH  11  12
HETATM   12  C8  UNL     1       7.732   0.632  12.592  1.00  0.00     0.020 C 
BRANCH  12  13
HETATM   13  C7  UNL     1       6.806  -0.436  13.167  1.00  0.00     0.003 C 
BRANCH  13  14
HETATM   14  C6  UNL     1       7.589  -1.547  13.779  1.00  0.00     0.020 C 
BRANCH  14  15
HETATM   15  C5  UNL     1       7.212  -1.651  15.265  1.00  0.00     0.127 C 
BRANCH  15  16
HETATM   16  N2  UNL     1       7.301  -2.996  15.682  1.00  0.00    -0.371 N 
HETATM   17  C4  UNL     1       6.769  -3.318  16.926  1.00  0.00     0.083 C 
HETATM   18  C3  UNL     1       7.293  -4.614  17.512  1.00  0.00     0.170 C 
HETATM   19  N1  UNL     1       8.711  -4.770  17.222  1.00  0.00    -0.343 N 
HETATM   20  C2  UNL     1       9.467  -5.525  18.153  1.00  0.00     0.216 C 
HETATM   21  C30 UNL     1       9.337  -4.208  16.071  1.00  0.00     0.170 C 
HETATM   22  C1  UNL     1      10.917  -5.714  17.919  1.00  0.00     0.117 C 
HETATM   23  O1  UNL     1       8.908  -6.040  19.185  1.00  0.00    -0.274 OA
HETATM   24  C29 UNL     1       8.299  -3.747  15.068  1.00  0.00     0.083 C 
ENDBRANCH  15  16
ENDBRANCH  14  15
ENDBRANCH  13  14
ENDBRANCH  12  13
ENDBRANCH  11  12
ENDBRANCH   9  11
ENDBRANCH   1   9
BRANCH   3  25
HETATM   25  N4  UNL     1       2.391   2.119  11.656  1.00  0.00    -0.251 N 
HETATM   26  C13 UNL     1       1.996   0.929  12.188  1.00  0.00     0.038 A 
HETATM   27  C21 UNL     1       0.670   0.974  12.542  1.00  0.00     0.118 A 
HETATM   28  N6  UNL     1       0.267   2.240  12.206  1.00  0.00    -0.316 N 
HETATM   29  C22 UNL     1       1.311   2.900  11.680  1.00  0.00     0.332 A 
ATOM     30  H6  UNL     1      -0.671   2.619  12.334  1.00  0.00     0.170 HD
HETATM   31  O2  UNL     1       1.261   4.093  11.272  1.00  0.00    -0.246 OA
BRANCH  26  32
HETATM   32  C14 UNL     1       2.930  -0.190  12.358  1.00  0.00     0.061 C 
BRANCH  32  33
HETATM   33  C15 UNL     1       3.139  -0.695  13.729  1.00  0.00     0.036 C 
BRANCH  33  34
HETATM   34  C16 UNL     1       3.343  -2.176  13.864  1.00  0.00     0.272 C 
BRANCH  34  35
HETATM   35  N5  UNL     1       2.549  -2.695  14.978  1.00  0.00     0.088 N 
HETATM   36  C17 UNL     1       2.102  -4.053  14.743  1.00  0.00     0.272 C 
HETATM   37  C18 UNL     1       1.976  -4.711  16.073  1.00  0.00     0.032 C 
HETATM   38  C19 UNL     1       2.738  -3.858  17.025  1.00  0.00     0.032 C 
HETATM   39  C20 UNL     1       3.334  -2.764  16.201  1.00  0.00     0.272 C 
ENDBRANCH  34  35
ENDBRANCH  33  34
ENDBRANCH  32  33
ENDBRANCH  26  32
ENDBRANCH   3  25
BRANCH   6  40
HETATM   40  N8  UNL     1       5.356   3.135   8.002  1.00  0.00    -0.217 N 
HETATM   41  C24 UNL     1       4.602   4.160   7.361  1.00  0.00     0.141 C 
HETATM   42  C25 UNL     1       4.708   4.047   5.863  1.00  0.00     0.020 C 
HETATM   43  C26 UNL     1       4.596   2.596   5.457  1.00  0.00     0.003 C 
HETATM   44  C27 UNL     1       5.809   1.882   5.957  1.00  0.00     0.020 C 
HETATM   45  C28 UNL     1       6.303   2.332   7.297  1.00  0.00     0.141 C 
ENDBRANCH   6  40
TORSDOF 13
ENDMDL
MODEL 3
REMARK VINA RESULT: -8.976210692      2.665      7.034
REMARK  13 active torsions:
REMARK  status: ('A' for Active; 'I' for Inactive)
REMARK       I    between atoms: C2_2  and  N1_4 
REMARK    1  A    between atoms: N2_7  and  C5_8 
REMARK    2  A    between atoms: C5_8  and  C6_9 
REMARK    3  A    between atoms: C6_9  and  C7_10 
REMARK    4  A    between atoms: C7_10  and  C8_11 
REMARK    5  A    between atoms: C8_11  and  C9_12 
REMARK    6  A    between atoms: C9_12  and  N3_13 
REMARK    7  A    between atoms: N3_13  and  C10_15 
REMARK    8  A    between atoms: C12_17  and  N4_18 
REMARK    9  A    between atoms: C13_19  and  C14_20 
REMARK   10  A    between atoms: C14_20  and  C15_21 
REMARK   11  A    between atoms: C15_21  and  C16_22 
REMARK   12  A    between atoms: C16_22  and  N5_23 
REMARK   13  A    between atoms: C23_35  and  N8_36 
ROOT
HETATM    1  C10 UNL     1       6.018   2.255  11.969  1.00  0.00     0.120 A 
HETATM    2  C11 UNL     1       4.717   2.059  12.357  1.00  0.00     0.098 A 
HETATM    3  C12 UNL     1       3.653   2.152  11.480  1.00  0.00     0.135 A 
HETATM    4  N7  UNL     1       3.941   2.447  10.205  1.00  0.00    -0.176 N 
ATOM      5  H7  UNL     1       3.172   2.519   9.538  1.00  0.00     0.186 HD
HETATM    6  C23 UNL     1       5.188   2.651   9.763  1.00  0.00     0.683 A 
HETATM    7  N9  UNL     1       6.196   2.554  10.633  1.00  0.00    -0.177 N 
ATOM      8  H9  UNL     1       7.145   2.710  10.294  1.00  0.00     0.185 HD
ENDROOT
BRANCH   1   9
HETATM    9  N3  UNL     1       7.051   2.199  12.715  1.00  0.00    -0.376 N 
ATOM     10  H3  UNL     1       7.642   3.030  12.748  1.00  0.00     0.161 HD
BRANCH   9  11
HETATM   11  C9  UNL     1       7.454   1.094  13.501  1.00  0.00     0.121 C 
BRANCH  11  12
HETATM   12  C8  UNL     1       7.758  -0.070  12.590  1.00  0.00     0.020 C 
BRANCH  12  13
HETATM   13  C7  UNL     1       6.770  -1.221  12.760  1.00  0.00     0.003 C 
BRANCH  13  14
HETATM   14  C6  UNL     1       6.415  -1.412  14.196  1.00  0.00     0.020 C 
BRANCH  14  15
HETATM   15  C5  UNL     1       6.655  -2.883  14.569  1.00  0.00     0.127 C 
BRANCH  15  16
HETATM   16  N2  UNL     1       7.555  -2.953  15.654  1.00  0.00    -0.371 N 
HETATM   17  C4  UNL     1       8.896  -3.173  15.360  1.00  0.00     0.083 C 
HETATM   18  C3  UNL     1       9.712  -3.699  16.525  1.00  0.00     0.170 C 
HETATM   19  N1  UNL     1       8.933  -4.649  17.306  1.00  0.00    -0.343 N 
HETATM   20  C2  UNL     1       9.663  -5.653  17.991  1.00  0.00     0.216 C 
HETATM   21  C30 UNL     1       7.511  -4.601  17.400  1.00  0.00     0.170 C 
HETATM   22  C1  UNL     1       8.929  -6.655  18.797  1.00  0.00     0.117 C 
HETATM   23  O1  UNL     1      10.942  -5.697  17.917  1.00  0.00    -0.274 OA
HETATM   24  C29 UNL     1       6.986  -3.278  16.881  1.00  0.00     0.083 C 
ENDBRANCH  15  16
ENDBRANCH  14  15
ENDBRANCH  13  14
ENDBRANCH  12  13
ENDBRANCH  11  12
ENDBRANCH   9  11
ENDBRANCH   1   9
BRANCH   3  25
HETATM   25  N4  UNL     1       2.293   1.954  11.913  1.00  0.00    -0.251 N 
HETATM   26  C13 UNL     1       1.824   0.838  12.539  1.00  0.00     0.038 A 
HETATM   27  C21 UNL     1       0.486   0.969  12.819  1.00  0.00     0.118 A 
HETATM   28  N6  UNL     1       0.153   2.209  12.340  1.00  0.00    -0.316 N 
HETATM   29  C22 UNL     1       1.248   2.774  11.806  1.00  0.00     0.332 A 
ATOM     30  H6  UNL     1      -0.773   2.633  12.383  1.00  0.00     0.170 HD
HETATM   31  O2  UNL     1       1.267   3.921  11.282  1.00  0.00    -0.246 OA
BRANCH  26  32
HETATM   32  C14 UNL     1       2.700  -0.293  12.864  1.00  0.00     0.061 C 
BRANCH  32  33
HETATM   33  C15 UNL     1       2.831  -0.660  14.288  1.00  0.00     0.036 C 
BRANCH  33  34
HETATM   34  C16 UNL     1       2.133  -1.920  14.711  1.00  0.00     0.272 C 
BRANCH  34  35
HETATM   35  N5  UNL     1       3.105  -2.886  15.223  1.00  0.00     0.088 N 
HETATM   36  C17 UNL     1       2.995  -3.063  16.657  1.00  0.00     0.272 C 
HETATM   37  C18 UNL     1       3.430  -4.454  16.964  1.00  0.00     0.032 C 
HETATM   38  C19 UNL     1       3.395  -5.187  15.668  1.00  0.00     0.032 C 
HETATM   39  C20 UNL     1       2.881  -4.210  14.663  1.00  0.00     0.272 C 
ENDBRANCH  34  35
ENDBRANCH  33  34
ENDBRANCH  32  33
ENDBRANCH  26  32
ENDBRANCH   3  25
BRANCH   6  40
HETATM   40  N8  UNL     1       5.415   2.967   8.391  1.00  0.00    -0.217 N 
HETATM   41  C24 UNL     1       4.654   4.010   7.789  1.00  0.00     0.141 C 
HETATM   42  C25 UNL     1       4.822   4.002   6.292  1.00  0.00     0.020 C 
HETATM   43  C26 UNL     1       4.773   2.578   5.787  1.00  0.00     0.003 C 
HETATM   44  C27 UNL     1       5.988   1.868   6.288  1.00  0.00     0.020 C 
HETATM   45  C28 UNL     1       6.414   2.242   7.675  1.00  0.00     0.141 C 
ENDBRANCH   6  40
TORSDOF 13
ENDMDL
MODEL 4
REMARK VINA RESULT: -8.972635199      2.734      6.984
REMARK  13 active torsions:
REMARK  status: ('A' for Active; 'I' for Inactive)
REMARK       I    between atoms: C2_2  and  N1_4 
REMARK    1  A    between atoms: N2_7  and  C5_8 
REMARK    2  A    between atoms: C5_8  and  C6_9 
REMARK    3  A    between atoms: C6_9  and  C7_10 
REMARK    4  A    between atoms: C7_10  and  C8_11 
REMARK    5  A    between atoms: C8_11  and  C9_12 
REMARK    6  A    between atoms: C9_12  and  N3_13 
REMARK    7  A    between atoms: N3_13  and  C10_15 
REMARK    8  A    between atoms: C12_17  and  N4_18 
REMARK    9  A    between atoms: C13_19  and  C14_20 
REMARK   10  A    between atoms: C14_20  and  C15_21 
REMARK   11  A    between atoms: C15_21  and  C16_22 
REMARK   12  A    between atoms: C16_22  and  N5_23 
REMARK   13  A    between atoms: C23_35  and  N8_36 
ROOT
HETATM    1  C10 UNL     1       6.143   2.408  11.840  1.00  0.00     0.120 A 
HETATM    2  C11 UNL     1       4.832   2.252  12.213  1.00  0.00     0.098 A 
HETATM    3  C12 UNL     1       3.796   2.203  11.300  1.00  0.00     0.135 A 
HETATM    4  N7  UNL     1       4.122   2.316  10.005  1.00  0.00    -0.176 N 
ATOM      5  H7  UNL     1       3.373   2.281   9.312  1.00  0.00     0.186 HD
HETATM    6  C23 UNL     1       5.380   2.473   9.576  1.00  0.00     0.683 A 
HETATM    7  N9  UNL     1       6.360   2.516  10.481  1.00  0.00    -0.177 N 
ATOM      8  H9  UNL     1       7.318   2.635  10.152  1.00  0.00     0.185 HD
ENDROOT
BRANCH   1   9
HETATM    9  N3  UNL     1       7.152   2.475  12.617  1.00  0.00    -0.376 N 
ATOM     10  H3  UNL     1       7.741   3.304  12.539  1.00  0.00     0.161 HD
BRANCH   9  11
HETATM   11  C9  UNL     1       7.532   1.508  13.577  1.00  0.00     0.121 C 
BRANCH  11  12
HETATM   12  C8  UNL     1       7.851   0.214  12.868  1.00  0.00     0.020 C 
BRANCH  12  13
HETATM   13  C7  UNL     1       6.798  -0.864  13.113  1.00  0.00     0.003 C 
BRANCH  13  14
HETATM   14  C6  UNL     1       6.562  -1.058  14.572  1.00  0.00     0.020 C 
BRANCH  14  15
HETATM   15  C5  UNL     1       7.881  -1.495  15.228  1.00  0.00     0.127 C 
BRANCH  15  16
HETATM   16  N2  UNL     1       7.790  -2.849  15.615  1.00  0.00    -0.371 N 
HETATM   17  C4  UNL     1       7.140  -3.131  16.812  1.00  0.00     0.083 C 
HETATM   18  C3  UNL     1       7.475  -4.489  17.399  1.00  0.00     0.170 C 
HETATM   19  N1  UNL     1       8.884  -4.797  17.200  1.00  0.00    -0.343 N 
HETATM   20  C2  UNL     1       9.485  -5.650  18.160  1.00  0.00     0.216 C 
HETATM   21  C30 UNL     1       9.647  -4.289  16.109  1.00  0.00     0.170 C 
HETATM   22  C1  UNL     1      10.918  -5.996  18.020  1.00  0.00     0.117 C 
HETATM   23  O1  UNL     1       8.802  -6.117  19.139  1.00  0.00    -0.274 OA
HETATM   24  C29 UNL     1       8.739  -3.696  15.051  1.00  0.00     0.083 C 
ENDBRANCH  15  16
ENDBRANCH  14  15
ENDBRANCH  13  14
ENDBRANCH  12  13
ENDBRANCH  11  12
ENDBRANCH   9  11
ENDBRANCH   1   9
BRANCH   3  25
HETATM   25  N4  UNL     1       2.425   2.050  11.715  1.00  0.00    -0.251 N 
HETATM   26  C13 UNL     1       1.892   0.920  12.262  1.00  0.00     0.038 A 
HETATM   27  C21 UNL     1       0.562   1.104  12.548  1.00  0.00     0.118 A 
HETATM   28  N6  UNL     1       0.300   2.390  12.155  1.00  0.00    -0.316 N 
HETATM   29  C22 UNL     1       1.426   2.930  11.663  1.00  0.00     0.332 A 
ATOM     30  H6  UNL     1      -0.603   2.860  12.225  1.00  0.00     0.170 HD
HETATM   31  O2  UNL     1       1.510   4.108  11.219  1.00  0.00    -0.246 OA
BRANCH  26  32
HETATM   32  C14 UNL     1       2.705  -0.276  12.511  1.00  0.00     0.061 C 
BRANCH  32  33
HETATM   33  C15 UNL     1       2.790  -0.759  13.903  1.00  0.00     0.036 C 
BRANCH  33  34
HETATM   34  C16 UNL     1       3.152  -2.205  14.079  1.00  0.00     0.272 C 
BRANCH  34  35
HETATM   35  N5  UNL     1       2.508  -2.743  15.277  1.00  0.00     0.088 N 
HETATM   36  C17 UNL     1       1.870  -4.020  15.026  1.00  0.00     0.272 C 
HETATM   37  C18 UNL     1       1.899  -4.786  16.304  1.00  0.00     0.032 C 
HETATM   38  C19 UNL     1       2.910  -4.109  17.162  1.00  0.00     0.032 C 
HETATM   39  C20 UNL     1       3.478  -3.009  16.327  1.00  0.00     0.272 C 
ENDBRANCH  34  35
ENDBRANCH  33  34
ENDBRANCH  32  33
ENDBRANCH  26  32
ENDBRANCH   3  25
BRANCH   6  40
HETATM   40  N8  UNL     1       5.648   2.592   8.180  1.00  0.00    -0.217 N 
HETATM   41  C24 UNL     1       6.470   1.613   7.551  1.00  0.00     0.141 C 
HETATM   42  C25 UNL     1       6.871   2.058   6.169  1.00  0.00     0.020 C 
HETATM   43  C26 UNL     1       7.247   3.522   6.200  1.00  0.00     0.003 C 
HETATM   44  C27 UNL     1       6.010   4.310   6.485  1.00  0.00     0.020 C 
HETATM   45  C28 UNL     1       5.064   3.676   7.458  1.00  0.00     0.141 C 
ENDBRANCH   6  40
TORSDOF 13
ENDMDL
MODEL 5
REMARK VINA RESULT: -8.967067244      2.387      9.241
REMARK  13 active torsions:
REMARK  status: ('A' for Active; 'I' for Inactive)
REMARK       I    between atoms: C2_2  and  N1_4 
REMARK    1  A    between atoms: N2_7  and  C5_8 
REMARK    2  A    between atoms: C5_8  and  C6_9 
REMARK    3  A    between atoms: C6_9  and  C7_10 
REMARK    4  A    between atoms: C7_10  and  C8_11 
REMARK    5  A    between atoms: C8_11  and  C9_12 
REMARK    6  A    between atoms: C9_12  and  N3_13 
REMARK    7  A    between atoms: N3_13  and  C10_15 
REMARK    8  A    between atoms: C12_17  and  N4_18 
REMARK    9  A    between atoms: C13_19  and  C14_20 
REMARK   10  A    between atoms: C14_20  and  C15_21 
REMARK   11  A    between atoms: C15_21  and  C16_22 
REMARK   12  A    between atoms: C16_22  and  N5_23 
REMARK   13  A    between atoms: C23_35  and  N8_36 
ROOT
HETATM    1  C10 UNL     1       6.898  -1.454  15.538  1.00  0.00     0.120 A 
HETATM    2  C11 UNL     1       5.608  -1.898  15.397  1.00  0.00     0.098 A 
HETATM    3  C12 UNL     1       5.249  -3.220  15.579  1.00  0.00     0.135 A 
HETATM    4  N7  UNL     1       6.227  -4.076  15.907  1.00  0.00    -0.176 N 
ATOM      5  H7  UNL     1       5.986  -5.057  16.049  1.00  0.00     0.186 HD
HETATM    6  C23 UNL     1       7.504  -3.706  16.058  1.00  0.00     0.683 A 
HETATM    7  N9  UNL     1       7.822  -2.422  15.876  1.00  0.00    -0.177 N 
ATOM      8  H9  UNL     1       8.795  -2.143  15.992  1.00  0.00     0.185 HD
ENDROOT
BRANCH   1   9
HETATM    9  N3  UNL     1       7.313  -0.259  15.376  1.00  0.00    -0.376 N 
ATOM     10  H3  UNL     1       8.194  -0.011  15.825  1.00  0.00     0.161 HD
BRANCH   9  11
HETATM   11  C9  UNL     1       6.665   0.756  14.632  1.00  0.00     0.121 C 
BRANCH  11  12
HETATM   12  C8  UNL     1       7.670   1.403  13.711  1.00  0.00     0.020 C 
BRANCH  12  13
HETATM   13  C7  UNL     1       7.989   0.541  12.492  1.00  0.00     0.003 C 
BRANCH  13  14
HETATM   14  C6  UNL     1       7.565   1.218  11.233  1.00  0.00     0.020 C 
BRANCH  14  15
HETATM   15  C5  UNL     1       6.988   2.597  11.588  1.00  0.00     0.127 C 
BRANCH  15  16
HETATM   16  N2  UNL     1       5.701   2.730  11.025  1.00  0.00    -0.371 N 
HETATM   17  C4  UNL     1       4.999   3.898  11.301  1.00  0.00     0.083 C 
HETATM   18  C3  UNL     1       3.502   3.791  11.084  1.00  0.00     0.170 C 
HETATM   19  N1  UNL     1       3.015   2.487  11.508  1.00  0.00    -0.343 N 
HETATM   20  C2  UNL     1       1.671   2.428  11.955  1.00  0.00     0.216 C 
HETATM   21  C30 UNL     1       3.820   1.310  11.487  1.00  0.00     0.170 C 
HETATM   22  C1  UNL     1       1.118   1.131  12.408  1.00  0.00     0.117 C 
HETATM   23  O1  UNL     1       0.940   3.481  11.968  1.00  0.00    -0.274 OA
HETATM   24  C29 UNL     1       5.078   1.537  10.673  1.00  0.00     0.083 C 
ENDBRANCH  15  16
ENDBRANCH  14  15
ENDBRANCH  13  14
ENDBRANCH  12  13
ENDBRANCH  11  12
ENDBRANCH   9  11
ENDBRANCH   1   9
BRANCH   3  25
HETATM   25  N4  UNL     1       3.889  -3.667  15.414  1.00  0.00    -0.251 N 
HETATM   26  C13 UNL     1       3.107  -4.182  16.404  1.00  0.00     0.038 A 
HETATM   27  C21 UNL     1       1.865  -4.508  15.917  1.00  0.00     0.118 A 
HETATM   28  N6  UNL     1       1.916  -4.172  14.590  1.00  0.00    -0.316 N 
HETATM   29  C22 UNL     1       3.132  -3.674  14.317  1.00  0.00     0.332 A 
ATOM     30  H6  UNL     1       1.155  -4.282  13.920  1.00  0.00     0.170 HD
HETATM   31  O2  UNL     1       3.492  -3.272  13.177  1.00  0.00    -0.246 OA
BRANCH  26  32
HETATM   32  C14 UNL     1       3.589  -4.308  17.784  1.00  0.00     0.061 C 
BRANCH  32  33
HETATM   33  C15 UNL     1       3.677  -5.669  18.349  1.00  0.00     0.036 C 
BRANCH  33  34
HETATM   34  C16 UNL     1       4.455  -6.669  17.545  1.00  0.00     0.272 C 
BRANCH  34  35
HETATM   35  N5  UNL     1       3.627  -7.843  17.264  1.00  0.00     0.088 N 
HETATM   36  C17 UNL     1       4.286  -9.077  17.641  1.00  0.00     0.272 C 
HETATM   37  C18 UNL     1       3.220 -10.052  18.004  1.00  0.00     0.032 C 
HETATM   38  C19 UNL     1       1.987  -9.245  18.222  1.00  0.00     0.032 C 
HETATM   39  C20 UNL     1       2.397  -7.822  18.038  1.00  0.00     0.272 C 
ENDBRANCH  34  35
ENDBRANCH  33  34
ENDBRANCH  32  33
ENDBRANCH  26  32
ENDBRANCH   3  25
BRANCH   6  40
HETATM   40  N8  UNL     1       8.491  -4.676  16.403  1.00  0.00    -0.217 N 
HETATM   41  C24 UNL     1       8.183  -6.058  16.245  1.00  0.00     0.141 C 
HETATM   42  C25 UNL     1       9.218  -6.919  16.921  1.00  0.00     0.020 C 
HETATM   43  C26 UNL     1       9.568  -6.324  18.266  1.00  0.00     0.003 C 
HETATM   44  C27 UNL     1      10.278  -5.031  18.028  1.00  0.00     0.020 C 
HETATM   45  C28 UNL     1       9.762  -4.228  16.874  1.00  0.00     0.141 C 
ENDBRANCH   6  40
TORSDOF 13
ENDMDL
