MODEL 1
REMARK VINA RESULT: -9.776640039      0.000      0.000
REMARK  12 active torsions:
REMARK  status: ('A' for Active; 'I' for Inactive)
REMARK    1  A    between atoms: C7_7  and  C8_8 
REMARK    2  A    between atoms: C8_8  and  S1_9 
REMARK    3  A    between atoms: S1_9  and  N1_12 
REMARK    4  A    between atoms: N1_12  and  C9_14 
REMARK    5  A    between atoms: N4_21  and  C11_22 
REMARK    6  A    between atoms: C11_22  and  C12_23 
REMARK    7  A    between atoms: C12_23  and  C13_24 
REMARK    8  A    between atoms: C13_24  and  C14_25 
REMARK    9  A    between atoms: C14_25  and  C15_26 
REMARK   10  A    between atoms: C15_26  and  C16_27 
REMARK   11  A    between atoms: C16_27  and  N5_28 
REMARK   12  A    between atoms: N6_31  and  C19_32 
ROOT
HETATM    1  C9  UNL     1       4.715  -2.757  16.758  1.00  0.00     0.199 A 
HETATM    2  N2  UNL     1       4.974  -1.684  17.534  1.00  0.00    -0.276 N 
ATOM      3  H2  UNL     1       4.897  -1.774  18.548  1.00  0.00     0.189 HD
HETATM    4  N3  UNL     1       5.323  -0.524  17.016  1.00  0.00    -0.249 N 
ATOM      5  H3  UNL     1       5.512   0.271  17.627  1.00  0.00     0.192 HD
HETATM    6  C10 UNL     1       5.432  -0.385  15.666  1.00  0.00     0.344 A 
HETATM    7  O3  UNL     1       5.764   0.724  15.200  1.00  0.00    -0.245 OA
HETATM    8  N4  UNL     1       5.189  -1.413  14.835  1.00  0.00    -0.262 N 
HETATM    9  C25 UNL     1       4.834  -2.582  15.395  1.00  0.00     0.297 A 
HETATM   10  O4  UNL     1       4.603  -3.555  14.636  1.00  0.00    -0.264 OA
ENDROOT
BRANCH   1  11
HETATM   11  N1  UNL     1       4.340  -4.014  17.302  1.00  0.00    -0.264 N 
ATOM     12  H1  UNL     1       3.367  -4.168  17.564  1.00  0.00     0.180 HD
BRANCH  11  13
HETATM   13  S1  UNL     1       5.499  -5.304  17.535  1.00  0.00     0.233 S 
HETATM   14  O1  UNL     1       5.254  -6.301  16.469  1.00  0.00    -0.206 OA
HETATM   15  O2  UNL     1       5.043  -5.974  18.826  1.00  0.00    -0.206 OA
BRANCH  13  16
HETATM   16  C8  UNL     1       7.089  -4.665  17.637  1.00  0.00     0.178 C 
BRANCH  16  17
HETATM   17  C7  UNL     1       7.983  -4.562  16.509  1.00  0.00     0.004 C 
HETATM   18  C2  UNL     1       8.530  -3.284  16.041  1.00  0.00    -0.079 C 
HETATM   19  C1  UNL     1       8.442  -2.024  16.358  1.00  0.00     0.015 C 
HETATM   20  C3  UNL     1       9.466  -3.743  14.899  1.00  0.00     0.039 C 
HETATM   21  C4  UNL     1       9.728  -5.178  15.175  1.00  0.00    -0.002 C 
HETATM   22  C5  UNL     1       8.541  -5.941  14.577  1.00  0.00     0.007 C 
HETATM   23  C26 UNL     1       9.296  -5.330  16.643  1.00  0.00    -0.031 C 
HETATM   24  C6  UNL     1       7.395  -5.231  15.251  1.00  0.00     0.016 C 
HETATM   25  C27 UNL     1       9.046  -6.751  17.023  1.00  0.00     0.016 C 
HETATM   26  C28 UNL     1      10.258  -4.627  17.560  1.00  0.00     0.016 C 
ENDBRANCH  16  17
ENDBRANCH  13  16
ENDBRANCH  11  13
ENDBRANCH   1  11
BRANCH   8  27
HETATM   27  C11 UNL     1       5.306  -1.276  13.390  1.00  0.00     0.137 C 
BRANCH  27  28
HETATM   28  C12 UNL     1       6.712  -1.430  12.917  1.00  0.00     0.020 C 
BRANCH  28  29
HETATM   29  C13 UNL     1       7.126  -0.395  11.909  1.00  0.00     0.002 C 
BRANCH  29  30
HETATM   30  C14 UNL     1       7.902   0.724  12.523  1.00  0.00     0.002 C 
BRANCH  30  31
HETATM   31  C15 UNL     1       7.305   2.090  12.282  1.00  0.00     0.030 C 
BRANCH  31  32
HETATM   32  C16 UNL     1       6.311   2.038  11.174  1.00  0.00     0.273 C 
BRANCH  32  33
HETATM   33  N5  UNL     1       5.044   2.656  11.529  1.00  0.00     0.097 N 
HETATM   34  C17 UNL     1       4.430   3.056  10.253  1.00  0.00     0.317 C 
HETATM   35  C18 UNL     1       3.180   3.815  10.622  1.00  0.00     0.093 C 
HETATM   36  N6  UNL     1       2.285   3.116  11.449  1.00  0.00    -0.366 N 
HETATM   37  C23 UNL     1       2.754   2.052  12.222  1.00  0.00     0.093 C 
HETATM   38  C24 UNL     1       4.160   1.641  12.069  1.00  0.00     0.317 C 
BRANCH  36  39
HETATM   39  C19 UNL     1       0.934   3.104  11.015  1.00  0.00     0.088 C 
HETATM   40  C20 UNL     1       0.044   2.020  11.638  1.00  0.00     0.026 C 
HETATM   41  C21 UNL     1      -0.686   1.996  10.288  1.00  0.00     0.004 C 
HETATM   42  C22 UNL     1       0.627   2.511   9.680  1.00  0.00     0.026 C 
ENDBRANCH  36  39
ENDBRANCH  32  33
ENDBRANCH  31  32
ENDBRANCH  30  31
ENDBRANCH  29  30
ENDBRANCH  28  29
ENDBRANCH  27  28
ENDBRANCH   8  27
TORSDOF 12
ENDMDL
MODEL 2
REMARK VINA RESULT: -9.352876190      1.676      2.740
REMARK  12 active torsions:
REMARK  status: ('A' for Active; 'I' for Inactive)
REMARK    1  A    between atoms: C7_7  and  C8_8 
REMARK    2  A    between atoms: C8_8  and  S1_9 
REMARK    3  A    between atoms: S1_9  and  N1_12 
REMARK    4  A    between atoms: N1_12  and  C9_14 
REMARK    5  A    between atoms: N4_21  and  C11_22 
REMARK    6  A    between atoms: C11_22  and  C12_23 
REMARK    7  A    between atoms: C12_23  and  C13_24 
REMARK    8  A    between atoms: C13_24  and  C14_25 
REMARK    9  A    between atoms: C14_25  and  C15_26 
REMARK   10  A    between atoms: C15_26  and  C16_27 
REMARK   11  A    between atoms: C16_27  and  N5_28 
REMARK   12  A    between atoms: N6_31  and  C19_32 
ROOT
HETATM    1  C9  UNL     1       5.726  -1.030  14.419  1.00  0.00     0.199 A 
HETATM    2  N2  UNL     1       5.769  -0.053  15.349  1.00  0.00    -0.276 N 
ATOM      3  H2  UNL     1       5.157  -0.114  16.163  1.00  0.00     0.189 HD
HETATM    4  N3  UNL     1       6.581   0.978  15.231  1.00  0.00    -0.249 N 
ATOM      5  H3  UNL     1       6.592   1.703  15.949  1.00  0.00     0.192 HD
HETATM    6  C10 UNL     1       7.405   1.077  14.153  1.00  0.00     0.344 A 
HETATM    7  O3  UNL     1       8.166   2.063  14.064  1.00  0.00    -0.245 OA
HETATM    8  N4  UNL     1       7.414   0.139  13.190  1.00  0.00    -0.262 N 
HETATM    9  C25 UNL     1       6.574  -0.899  13.339  1.00  0.00     0.297 A 
HETATM   10  O4  UNL     1       6.567  -1.787  12.451  1.00  0.00    -0.264 OA
ENDROOT
BRANCH   1  11
HETATM   11  N1  UNL     1       4.858  -2.148  14.534  1.00  0.00    -0.264 N 
ATOM     12  H1  UNL     1       4.044  -2.207  13.922  1.00  0.00     0.180 HD
BRANCH  11  13
HETATM   13  S1  UNL     1       5.144  -3.426  15.694  1.00  0.00     0.233 S 
HETATM   14  O1  UNL     1       3.906  -4.233  15.761  1.00  0.00    -0.206 OA
HETATM   15  O2  UNL     1       5.221  -2.695  17.030  1.00  0.00    -0.206 OA
BRANCH  13  16
HETATM   16  C8  UNL     1       6.589  -4.269  15.308  1.00  0.00     0.178 C 
BRANCH  16  17
HETATM   17  C7  UNL     1       7.714  -4.380  16.205  1.00  0.00     0.004 C 
HETATM   18  C2  UNL     1       7.624  -5.030  17.517  1.00  0.00    -0.079 C 
HETATM   19  C1  UNL     1       6.714  -5.615  18.243  1.00  0.00     0.015 C 
HETATM   20  C3  UNL     1       9.088  -4.950  18.006  1.00  0.00     0.039 C 
HETATM   21  C4  UNL     1       9.891  -4.747  16.775  1.00  0.00    -0.002 C 
HETATM   22  C5  UNL     1       9.850  -3.242  16.494  1.00  0.00     0.007 C 
HETATM   23  C26 UNL     1       8.913  -5.148  15.657  1.00  0.00    -0.031 C 
HETATM   24  C6  UNL     1       8.361  -3.008  16.481  1.00  0.00     0.016 C 
HETATM   25  C27 UNL     1       9.321  -4.620  14.322  1.00  0.00     0.016 C 
HETATM   26  C28 UNL     1       8.672  -6.631  15.664  1.00  0.00     0.016 C 
ENDBRANCH  16  17
ENDBRANCH  13  16
ENDBRANCH  11  13
ENDBRANCH   1  11
BRANCH   8  27
HETATM   27  C11 UNL     1       8.295   0.233  12.034  1.00  0.00     0.137 C 
BRANCH  27  28
HETATM   28  C12 UNL     1       7.576   0.677  10.806  1.00  0.00     0.020 C 
BRANCH  28  29
HETATM   29  C13 UNL     1       8.263   1.795  10.076  1.00  0.00     0.002 C 
BRANCH  29  30
HETATM   30  C14 UNL     1       7.419   3.024   9.985  1.00  0.00     0.002 C 
BRANCH  30  31
HETATM   31  C15 UNL     1       7.450   3.884  11.226  1.00  0.00     0.030 C 
BRANCH  31  32
HETATM   32  C16 UNL     1       6.084   4.017  11.804  1.00  0.00     0.273 C 
BRANCH  32  33
HETATM   33  N5  UNL     1       5.097   3.216  11.096  1.00  0.00     0.097 N 
HETATM   34  C17 UNL     1       4.556   2.284  12.098  1.00  0.00     0.317 C 
HETATM   35  C18 UNL     1       3.630   1.364  11.341  1.00  0.00     0.093 C 
HETATM   36  N6  UNL     1       2.618   2.012  10.613  1.00  0.00    -0.366 N 
HETATM   37  C23 UNL     1       2.783   3.350  10.250  1.00  0.00     0.093 C 
HETATM   38  C24 UNL     1       3.979   4.064  10.730  1.00  0.00     0.317 C 
BRANCH  36  39
HETATM   39  C19 UNL     1       1.305   1.514  10.816  1.00  0.00     0.088 C 
HETATM   40  C20 UNL     1       0.215   2.130   9.929  1.00  0.00     0.026 C 
HETATM   41  C21 UNL     1      -0.721   1.931  11.130  1.00  0.00     0.004 C 
HETATM   42  C22 UNL     1       0.541   2.003  12.001  1.00  0.00     0.026 C 
ENDBRANCH  36  39
ENDBRANCH  32  33
ENDBRANCH  31  32
ENDBRANCH  30  31
ENDBRANCH  29  30
ENDBRANCH  28  29
ENDBRANCH  27  28
ENDBRANCH   8  27
TORSDOF 12
ENDMDL
MODEL 3
REMARK VINA RESULT: -9.300338276      2.944      9.507
REMARK  12 active torsions:
REMARK  status: ('A' for Active; 'I' for Inactive)
REMARK    1  A    between atoms: C7_7  and  C8_8 
REMARK    2  A    between atoms: C8_8  and  S1_9 
REMARK    3  A    between atoms: S1_9  and  N1_12 
REMARK    4  A    between atoms: N1_12  and  C9_14 
REMARK    5  A    between atoms: N4_21  and  C11_22 
REMARK    6  A    between atoms: C11_22  and  C12_23 
REMARK    7  A    between atoms: C12_23  and  C13_24 
REMARK    8  A    between atoms: C13_24  and  C14_25 
REMARK    9  A    between atoms: C14_25  and  C15_26 
REMARK   10  A    between atoms: C15_26  and  C16_27 
REMARK   11  A    between atoms: C16_27  and  N5_28 
REMARK   12  A    between atoms: N6_31  and  C19_32 
ROOT
HETATM    1  C9  UNL     1       3.802  -0.108  14.615  1.00  0.00     0.199 A 
HETATM    2  N2  UNL     1       4.491   0.572  15.555  1.00  0.00    -0.276 N 
ATOM      3  H2  UNL     1       4.359   1.580  15.637  1.00  0.00     0.189 HD
HETATM    4  N3  UNL     1       5.332  -0.034  16.369  1.00  0.00    -0.249 N 
ATOM      5  H3  UNL     1       5.841   0.505  17.070  1.00  0.00     0.192 HD
HETATM    6  C10 UNL     1       5.522  -1.378  16.275  1.00  0.00     0.344 A 
HETATM    7  O3  UNL     1       6.324  -1.929  17.058  1.00  0.00    -0.245 OA
HETATM    8  N4  UNL     1       4.867  -2.116  15.363  1.00  0.00    -0.262 N 
HETATM    9  C25 UNL     1       4.018  -1.469  14.547  1.00  0.00     0.297 A 
HETATM   10  O4  UNL     1       3.396  -2.140  13.688  1.00  0.00    -0.264 OA
ENDROOT
BRANCH   1  11
HETATM   11  N1  UNL     1       2.891   0.530  13.732  1.00  0.00    -0.264 N 
ATOM     12  H1  UNL     1       1.904   0.571  13.984  1.00  0.00     0.180 HD
BRANCH  11  13
HETATM   13  S1  UNL     1       3.415   1.249  12.225  1.00  0.00     0.233 S 
HETATM   14  O1  UNL     1       2.369   2.215  11.821  1.00  0.00    -0.206 OA
HETATM   15  O2  UNL     1       3.316   0.106  11.222  1.00  0.00    -0.206 OA
BRANCH  13  16
HETATM   16  C8  UNL     1       5.009   1.866  12.382  1.00  0.00     0.178 C 
BRANCH  16  17
HETATM   17  C7  UNL     1       6.166   1.257  11.770  1.00  0.00     0.004 C 
HETATM   18  C2  UNL     1       6.426   1.315  10.328  1.00  0.00    -0.079 C 
HETATM   19  C1  UNL     1       5.855   1.802   9.263  1.00  0.00     0.015 C 
HETATM   20  C3  UNL     1       7.795   0.603  10.228  1.00  0.00     0.039 C 
HETATM   21  C4  UNL     1       8.366   0.681  11.595  1.00  0.00    -0.002 C 
HETATM   22  C5  UNL     1       7.755  -0.491  12.370  1.00  0.00     0.007 C 
HETATM   23  C26 UNL     1       7.515   1.776  12.261  1.00  0.00    -0.031 C 
HETATM   24  C6  UNL     1       6.288  -0.234  12.140  1.00  0.00     0.016 C 
HETATM   25  C27 UNL     1       7.591   1.736  13.750  1.00  0.00     0.016 C 
HETATM   26  C28 UNL     1       7.833   3.126  11.683  1.00  0.00     0.016 C 
ENDBRANCH  16  17
ENDBRANCH  13  16
ENDBRANCH  11  13
ENDBRANCH   1  11
BRANCH   8  27
HETATM   27  C11 UNL     1       5.061  -3.556  15.258  1.00  0.00     0.137 C 
BRANCH  27  28
HETATM   28  C12 UNL     1       6.143  -3.915  14.297  1.00  0.00     0.020 C 
BRANCH  28  29
HETATM   29  C13 UNL     1       7.292  -4.648  14.928  1.00  0.00     0.002 C 
BRANCH  29  30
HETATM   30  C14 UNL     1       8.536  -3.824  14.983  1.00  0.00     0.002 C 
BRANCH  30  31
HETATM   31  C15 UNL     1       9.678  -4.484  15.720  1.00  0.00     0.030 C 
BRANCH  31  32
HETATM   32  C16 UNL     1       9.745  -3.995  17.125  1.00  0.00     0.273 C 
BRANCH  32  33
HETATM   33  N5  UNL     1       9.782  -5.080  18.094  1.00  0.00     0.097 N 
HETATM   34  C17 UNL     1       8.505  -5.793  17.935  1.00  0.00     0.317 C 
HETATM   35  C18 UNL     1       8.481  -6.834  19.026  1.00  0.00     0.093 C 
HETATM   36  N6  UNL     1       9.582  -7.707  19.034  1.00  0.00    -0.366 N 
HETATM   37  C23 UNL     1      10.771  -7.317  18.416  1.00  0.00     0.093 C 
HETATM   38  C24 UNL     1      10.797  -6.034  17.691  1.00  0.00     0.317 C 
BRANCH  36  39
HETATM   39  C19 UNL     1       9.266  -9.089  19.100  1.00  0.00     0.088 C 
HETATM   40  C20 UNL     1      10.460 -10.038  19.268  1.00  0.00     0.026 C 
HETATM   41  C21 UNL     1       9.650 -11.031  18.422  1.00  0.00     0.004 C 
HETATM   42  C22 UNL     1       8.948  -9.802  17.828  1.00  0.00     0.026 C 
ENDBRANCH  36  39
ENDBRANCH  32  33
ENDBRANCH  31  32
ENDBRANCH  30  31
ENDBRANCH  29  30
ENDBRANCH  28  29
ENDBRANCH  27  28
ENDBRANCH   8  27
TORSDOF 12
ENDMDL
MODEL 4
REMARK VINA RESULT: -9.282244755      1.152      1.576
REMARK  12 active torsions:
REMARK  status: ('A' for Active; 'I' for Inactive)
REMARK    1  A    between atoms: C7_7  and  C8_8 
REMARK    2  A    between atoms: C8_8  and  S1_9 
REMARK    3  A    between atoms: S1_9  and  N1_12 
REMARK    4  A    between atoms: N1_12  and  C9_14 
REMARK    5  A    between atoms: N4_21  and  C11_22 
REMARK    6  A    between atoms: C11_22  and  C12_23 
REMARK    7  A    between atoms: C12_23  and  C13_24 
REMARK    8  A    between atoms: C13_24  and  C14_25 
REMARK    9  A    between atoms: C14_25  and  C15_26 
REMARK   10  A    between atoms: C15_26  and  C16_27 
REMARK   11  A    between atoms: C16_27  and  N5_28 
REMARK   12  A    between atoms: N6_31  and  C19_32 
ROOT
HETATM    1  C9  UNL     1       4.171  -3.627  16.371  1.00  0.00     0.199 A 
HETATM    2  N2  UNL     1       3.484  -4.271  15.404  1.00  0.00    -0.276 N 
ATOM      3  H2  UNL     1       3.140  -5.215  15.582  1.00  0.00     0.189 HD
HETATM    4  N3  UNL     1       3.247  -3.711  14.235  1.00  0.00    -0.249 N 
ATOM      5  H3  UNL     1       2.726  -4.221  13.521  1.00  0.00     0.192 HD
HETATM    6  C10 UNL     1       3.698  -2.452  13.978  1.00  0.00     0.344 A 
HETATM    7  O3  UNL     1       3.461  -1.943  12.863  1.00  0.00    -0.245 OA
HETATM    8  N4  UNL     1       4.388  -1.755  14.896  1.00  0.00    -0.262 N 
HETATM    9  C25 UNL     1       4.614  -2.354  16.077  1.00  0.00     0.297 A 
HETATM   10  O4  UNL     1       5.256  -1.719  16.950  1.00  0.00    -0.264 OA
ENDROOT
BRANCH   1  11
HETATM   11  N1  UNL     1       4.432  -4.217  17.636  1.00  0.00    -0.264 N 
ATOM     12  H1  UNL     1       3.888  -3.916  18.444  1.00  0.00     0.180 HD
BRANCH  11  13
HETATM   13  S1  UNL     1       5.661  -5.445  17.848  1.00  0.00     0.233 S 
HETATM   14  O1  UNL     1       5.398  -6.497  16.841  1.00  0.00    -0.206 OA
HETATM   15  O2  UNL     1       5.316  -6.077  19.191  1.00  0.00    -0.206 OA
BRANCH  13  16
HETATM   16  C8  UNL     1       7.224  -4.734  17.824  1.00  0.00     0.178 C 
BRANCH  16  17
HETATM   17  C7  UNL     1       8.008  -4.569  16.624  1.00  0.00     0.004 C 
HETATM   18  C2  UNL     1       8.513  -3.267  16.176  1.00  0.00    -0.079 C 
HETATM   19  C1  UNL     1       8.460  -2.025  16.567  1.00  0.00     0.015 C 
HETATM   20  C3  UNL     1       9.336  -3.662  14.929  1.00  0.00     0.039 C 
HETATM   21  C4  UNL     1       9.618  -5.109  15.101  1.00  0.00    -0.002 C 
HETATM   22  C5  UNL     1       8.378  -5.841  14.578  1.00  0.00     0.007 C 
HETATM   23  C26 UNL     1       9.325  -5.341  16.594  1.00  0.00    -0.031 C 
HETATM   24  C6  UNL     1       7.302  -5.170  15.393  1.00  0.00     0.016 C 
HETATM   25  C27 UNL     1       9.107  -6.781  16.918  1.00  0.00     0.016 C 
HETATM   26  C28 UNL     1      10.371  -4.687  17.452  1.00  0.00     0.016 C 
ENDBRANCH  16  17
ENDBRANCH  13  16
ENDBRANCH  11  13
ENDBRANCH   1  11
BRANCH   8  27
HETATM   27  C11 UNL     1       4.871  -0.406  14.633  1.00  0.00     0.137 C 
BRANCH  27  28
HETATM   28  C12 UNL     1       6.222  -0.399  14.002  1.00  0.00     0.020 C 
BRANCH  28  29
HETATM   29  C13 UNL     1       7.110   0.710  14.489  1.00  0.00     0.002 C 
BRANCH  29  30
HETATM   30  C14 UNL     1       7.573   1.601  13.383  1.00  0.00     0.002 C 
BRANCH  30  31
HETATM   31  C15 UNL     1       7.357   1.029  12.002  1.00  0.00     0.030 C 
BRANCH  31  32
HETATM   32  C16 UNL     1       6.560   1.969  11.166  1.00  0.00     0.273 C 
BRANCH  32  33
HETATM   33  N5  UNL     1       5.213   2.170  11.679  1.00  0.00     0.097 N 
HETATM   34  C17 UNL     1       4.685   3.335  10.951  1.00  0.00     0.317 C 
HETATM   35  C18 UNL     1       3.342   3.629  11.572  1.00  0.00     0.093 C 
HETATM   36  N6  UNL     1       2.443   2.550  11.576  1.00  0.00    -0.366 N 
HETATM   37  C23 UNL     1       2.935   1.247  11.470  1.00  0.00     0.093 C 
HETATM   38  C24 UNL     1       4.381   1.058  11.262  1.00  0.00     0.317 C 
BRANCH  36  39
HETATM   39  C19 UNL     1       1.144   2.834  11.080  1.00  0.00     0.088 C 
HETATM   40  C20 UNL     1       0.002   2.017  11.697  1.00  0.00     0.026 C 
HETATM   41  C21 UNL     1      -0.662   2.104  10.315  1.00  0.00     0.004 C 
HETATM   42  C22 UNL     1       0.758   2.270   9.753  1.00  0.00     0.026 C 
ENDBRANCH  36  39
ENDBRANCH  32  33
ENDBRANCH  31  32
ENDBRANCH  30  31
ENDBRANCH  29  30
ENDBRANCH  28  29
ENDBRANCH  27  28
ENDBRANCH   8  27
TORSDOF 12
ENDMDL
MODEL 5
REMARK VINA RESULT: -9.184131787      3.045      9.150
REMARK  12 active torsions:
REMARK  status: ('A' for Active; 'I' for Inactive)
REMARK    1  A    between atoms: C7_7  and  C8_8 
REMARK    2  A    between atoms: C8_8  and  S1_9 
REMARK    3  A    between atoms: S1_9  and  N1_12 
REMARK    4  A    between atoms: N1_12  and  C9_14 
REMARK    5  A    between atoms: N4_21  and  C11_22 
REMARK    6  A    between atoms: C11_22  and  C12_23 
REMARK    7  A    between atoms: C12_23  and  C13_24 
REMARK    8  A    between atoms: C13_24  and  C14_25 
REMARK    9  A    between atoms: C14_25  and  C15_26 
REMARK   10  A    between atoms: C15_26  and  C16_27 
REMARK   11  A    between atoms: C16_27  and  N5_28 
REMARK   12  A    between atoms: N6_31  and  C19_32 
ROOT
HETATM    1  C9  UNL     1       3.721   0.077  14.465  1.00  0.00     0.199 A 
HETATM    2  N2  UNL     1       4.457   0.713  15.400  1.00  0.00    -0.276 N 
ATOM      3  H2  UNL     1       4.406   1.730  15.466  1.00  0.00     0.189 HD
HETATM    4  N3  UNL     1       5.241   0.054  16.230  1.00  0.00    -0.249 N 
ATOM      5  H3  UNL     1       5.787   0.560  16.926  1.00  0.00     0.192 HD
HETATM    6  C10 UNL     1       5.322  -1.303  16.157  1.00  0.00     0.344 A 
HETATM    7  O3  UNL     1       6.071  -1.905  16.954  1.00  0.00    -0.245 OA
HETATM    8  N4  UNL     1       4.616  -1.999  15.251  1.00  0.00    -0.262 N 
HETATM    9  C25 UNL     1       3.827  -1.298  14.419  1.00  0.00     0.297 A 
HETATM   10  O4  UNL     1       3.159  -1.930  13.564  1.00  0.00    -0.264 OA
ENDROOT
BRANCH   1  11
HETATM   11  N1  UNL     1       2.872   0.773  13.566  1.00  0.00    -0.264 N 
ATOM     12  H1  UNL     1       1.892   0.909  13.815  1.00  0.00     0.180 HD
BRANCH  11  13
HETATM   13  S1  UNL     1       3.457   1.406  12.042  1.00  0.00     0.233 S 
HETATM   14  O1  UNL     1       2.451   2.379  11.564  1.00  0.00    -0.206 OA
HETATM   15  O2  UNL     1       3.353   0.219  11.091  1.00  0.00    -0.206 OA
BRANCH  13  16
HETATM   16  C8  UNL     1       5.063   1.985  12.216  1.00  0.00     0.178 C 
BRANCH  16  17
HETATM   17  C7  UNL     1       6.214   1.338  11.632  1.00  0.00     0.004 C 
HETATM   18  C2  UNL     1       6.480   1.340  10.190  1.00  0.00    -0.079 C 
HETATM   19  C1  UNL     1       5.919   1.794   9.105  1.00  0.00     0.015 C 
HETATM   20  C3  UNL     1       7.840   0.606  10.122  1.00  0.00     0.039 C 
HETATM   21  C4  UNL     1       8.407   0.728  11.488  1.00  0.00    -0.002 C 
HETATM   22  C5  UNL     1       7.778  -0.406  12.304  1.00  0.00     0.007 C 
HETATM   23  C26 UNL     1       7.568   1.859  12.109  1.00  0.00    -0.031 C 
HETATM   24  C6  UNL     1       6.315  -0.139  12.058  1.00  0.00     0.016 C 
HETATM   25  C27 UNL     1       7.639   1.873  13.599  1.00  0.00     0.016 C 
HETATM   26  C28 UNL     1       7.905   3.182  11.482  1.00  0.00     0.016 C 
ENDBRANCH  16  17
ENDBRANCH  13  16
ENDBRANCH  11  13
ENDBRANCH   1  11
BRANCH   8  27
HETATM   27  C11 UNL     1       4.692  -3.451  15.167  1.00  0.00     0.137 C 
BRANCH  27  28
HETATM   28  C12 UNL     1       3.432  -4.114  15.612  1.00  0.00     0.020 C 
BRANCH  28  29
HETATM   29  C13 UNL     1       2.799  -3.464  16.809  1.00  0.00     0.002 C 
BRANCH  29  30
HETATM   30  C14 UNL     1       2.830  -4.339  18.019  1.00  0.00     0.002 C 
BRANCH  30  31
HETATM   31  C15 UNL     1       3.240  -5.765  17.736  1.00  0.00     0.030 C 
BRANCH  31  32
HETATM   32  C16 UNL     1       4.448  -6.128  18.528  1.00  0.00     0.273 C 
BRANCH  32  33
HETATM   33  N5  UNL     1       5.579  -6.490  17.688  1.00  0.00     0.097 N 
HETATM   34  C17 UNL     1       6.477  -5.324  17.714  1.00  0.00     0.317 C 
HETATM   35  C18 UNL     1       7.585  -5.642  16.741  1.00  0.00     0.093 C 
HETATM   36  N6  UNL     1       8.266  -6.845  16.990  1.00  0.00    -0.366 N 
HETATM   37  C23 UNL     1       7.643  -7.841  17.746  1.00  0.00     0.093 C 
HETATM   38  C24 UNL     1       6.324  -7.552  18.336  1.00  0.00     0.317 C 
BRANCH  36  39
HETATM   39  C19 UNL     1       9.682  -6.753  17.012  1.00  0.00     0.088 C 
HETATM   40  C20 UNL     1      10.371  -7.371  18.235  1.00  0.00     0.026 C 
HETATM   41  C21 UNL     1      11.411  -6.254  18.078  1.00  0.00     0.004 C 
HETATM   42  C22 UNL     1      10.299  -5.449  17.391  1.00  0.00     0.026 C 
ENDBRANCH  36  39
ENDBRANCH  32  33
ENDBRANCH  31  32
ENDBRANCH  30  31
ENDBRANCH  29  30
ENDBRANCH  28  29
ENDBRANCH  27  28
ENDBRANCH   8  27
TORSDOF 12
ENDMDL
