MODEL 1
REMARK VINA RESULT: -8.626704669      0.000      0.000
REMARK  13 active torsions:
REMARK  status: ('A' for Active; 'I' for Inactive)
REMARK    1  A    between atoms: C2_2  and  C3_3 
REMARK    2  A    between atoms: C3_3  and  C4_4 
REMARK    3  A    between atoms: C4_4  and  C5_5 
REMARK    4  A    between atoms: C5_5  and  N1_6 
REMARK    5  A    between atoms: C5_5  and  C17_26 
REMARK       I    between atoms: N1_6  and  C6_8 
REMARK    6  A    between atoms: C6_8  and  C7_10 
REMARK       I    between atoms: N2_14  and  C11_15 
REMARK    7  A    between atoms: C11_15  and  O3_17 
REMARK    8  A    between atoms: O3_17  and  C12_18 
REMARK    9  A    between atoms: C12_18  and  C13_19 
REMARK       I    between atoms: C17_26  and  N4_28 
REMARK   10  A    between atoms: N4_28  and  C18_30 
REMARK   11  A    between atoms: C18_30  and  C19_31 
REMARK   12  A    between atoms: C19_31  and  N5_32 
REMARK   13  A    between atoms: N6_35  and  C22_36 
ROOT
HETATM    1  C5  UNL     1       4.184  -0.409  13.672  1.00  0.00     0.080 C 
ENDROOT
BRANCH   1   2
HETATM    2  C4  UNL     1       2.740  -0.083  13.450  1.00  0.00     0.063 C 
BRANCH   2   3
HETATM    3  C3  UNL     1       2.613   1.134  12.529  1.00  0.00     0.006 C 
BRANCH   3   4
HETATM    4  C2  UNL     1       1.400   1.105  11.656  1.00  0.00    -0.004 C 
HETATM    5  C1  UNL     1       0.461   2.264  12.020  1.00  0.00     0.005 C 
ENDBRANCH   3   4
ENDBRANCH   2   3
ENDBRANCH   1   2
BRANCH   1   6
HETATM    6  N1  UNL     1       5.075   0.555  13.124  1.00  0.00    -0.324 N 
HETATM    7  C6  UNL     1       6.245   0.238  12.340  1.00  0.00     0.245 C 
HETATM    8  O1  UNL     1       6.394  -0.983  12.093  1.00  0.00    -0.271 OA
ATOM      9  H1  UNL     1       4.874   1.540  13.296  1.00  0.00     0.169 HD
BRANCH   7  10
HETATM   10  C7  UNL     1       7.156   1.303  11.899  1.00  0.00     0.181 C 
HETATM   11  C8  UNL     1       8.344   0.606  11.099  1.00  0.00     0.037 C 
HETATM   12  C9  UNL     1       7.878   0.606   9.667  1.00  0.00     0.022 C 
HETATM   13  C10 UNL     1       6.450   1.167   9.740  1.00  0.00     0.129 C 
HETATM   14  N2  UNL     1       6.654   2.109  10.853  1.00  0.00    -0.315 N 
HETATM   15  C11 UNL     1       6.503   3.491  10.666  1.00  0.00     0.363 C 
HETATM   16  O2  UNL     1       6.934   4.331  11.534  1.00  0.00    -0.238 OA
BRANCH  15  17
HETATM   17  O3  UNL     1       5.938   4.017   9.601  1.00  0.00    -0.299 OA
BRANCH  17  18
HETATM   18  C12 UNL     1       5.767   3.987   8.268  1.00  0.00     0.228 C 
BRANCH  18  19
HETATM   19  C13 UNL     1       4.287   3.650   8.114  1.00  0.00     0.030 A 
HETATM   20  S1  UNL     1       3.046   3.831   9.272  1.00  0.00    -0.085 SA
HETATM   21  C14 UNL     1       1.703   3.571   8.244  1.00  0.00     0.138 A 
HETATM   22  N3  UNL     1       2.278   3.352   7.068  1.00  0.00    -0.363 N 
HETATM   23  C15 UNL     1       3.573   3.382   6.980  1.00  0.00     0.020 A 
ATOM     24  H3  UNL     1       1.708   3.163   6.243  1.00  0.00     0.165 HD
HETATM   25  C16 UNL     1       4.315   2.947   5.715  1.00  0.00     0.069 C 
ENDBRANCH  18  19
ENDBRANCH  17  18
ENDBRANCH  15  17
ENDBRANCH   7  10
ENDBRANCH   1   6
BRANCH   1  26
HETATM   26  C17 UNL     1       4.481  -0.977  14.955  1.00  0.00     0.264 C 
HETATM   27  O4  UNL     1       5.454  -0.570  15.615  1.00  0.00    -0.266 OA
HETATM   28  N4  UNL     1       3.703  -2.054  15.536  1.00  0.00    -0.354 N 
ATOM     29  H4  UNL     1       2.846  -2.374  15.084  1.00  0.00     0.162 HD
BRANCH  28  30
HETATM   30  C18 UNL     1       4.170  -2.688  16.806  1.00  0.00     0.153 C 
BRANCH  30  31
HETATM   31  C19 UNL     1       4.482  -4.100  16.430  1.00  0.00     0.292 C 
BRANCH  31  32
HETATM   32  N5  UNL     1       5.854  -4.538  16.593  1.00  0.00     0.093 N 
HETATM   33  C20 UNL     1       6.652  -3.480  17.203  1.00  0.00     0.302 C 
HETATM   34  C21 UNL     1       7.914  -3.204  16.448  1.00  0.00     0.303 C 
HETATM   35  N6  UNL     1       8.573  -4.420  16.010  1.00  0.00     0.096 N 
HETATM   36  C27 UNL     1       7.691  -5.212  15.158  1.00  0.00     0.303 C 
HETATM   37  C28 UNL     1       6.346  -4.577  15.177  1.00  0.00     0.302 C 
BRANCH  35  38
HETATM   38  C22 UNL     1       9.002  -5.224  17.149  1.00  0.00     0.223 C 
HETATM   39  C23 UNL     1       9.152  -6.643  16.703  1.00  0.00     0.036 C 
HETATM   40  C24 UNL     1      10.073  -7.218  17.782  1.00  0.00     0.002 C 
HETATM   41  C25 UNL     1      10.978  -6.091  18.154  1.00  0.00     0.002 C 
HETATM   42  C26 UNL     1      10.406  -4.829  17.532  1.00  0.00     0.036 C 
ENDBRANCH  35  38
ENDBRANCH  31  32
ENDBRANCH  30  31
ENDBRANCH  28  30
ENDBRANCH   1  26
TORSDOF 13
ENDMDL
MODEL 2
REMARK VINA RESULT: -8.506771738      1.499      2.139
REMARK  13 active torsions:
REMARK  status: ('A' for Active; 'I' for Inactive)
REMARK    1  A    between atoms: C2_2  and  C3_3 
REMARK    2  A    between atoms: C3_3  and  C4_4 
REMARK    3  A    between atoms: C4_4  and  C5_5 
REMARK    4  A    between atoms: C5_5  and  N1_6 
REMARK    5  A    between atoms: C5_5  and  C17_26 
REMARK       I    between atoms: N1_6  and  C6_8 
REMARK    6  A    between atoms: C6_8  and  C7_10 
REMARK       I    between atoms: N2_14  and  C11_15 
REMARK    7  A    between atoms: C11_15  and  O3_17 
REMARK    8  A    between atoms: O3_17  and  C12_18 
REMARK    9  A    between atoms: C12_18  and  C13_19 
REMARK       I    between atoms: C17_26  and  N4_28 
REMARK   10  A    between atoms: N4_28  and  C18_30 
REMARK   11  A    between atoms: C18_30  and  C19_31 
REMARK   12  A    between atoms: C19_31  and  N5_32 
REMARK   13  A    between atoms: N6_35  and  C22_36 
ROOT
HETATM    1  C5  UNL     1       3.127   0.049  12.009  1.00  0.00     0.080 C 
ENDROOT
BRANCH   1   2
HETATM    2  C4  UNL     1       1.960   0.551  11.217  1.00  0.00     0.063 C 
BRANCH   2   3
HETATM    3  C3  UNL     1       1.876   2.078  11.317  1.00  0.00     0.006 C 
BRANCH   3   4
HETATM    4  C2  UNL     1       0.495   2.590  11.569  1.00  0.00    -0.004 C 
HETATM    5  C1  UNL     1      -0.512   1.851  10.676  1.00  0.00     0.005 C 
ENDBRANCH   3   4
ENDBRANCH   2   3
ENDBRANCH   1   2
BRANCH   1   6
HETATM    6  N1  UNL     1       4.250   0.922  11.984  1.00  0.00    -0.324 N 
HETATM    7  C6  UNL     1       5.617   0.508  12.191  1.00  0.00     0.245 C 
HETATM    8  O1  UNL     1       5.773  -0.731  12.323  1.00  0.00    -0.271 OA
ATOM      9  H1  UNL     1       4.077   1.912  11.806  1.00  0.00     0.169 HD
BRANCH   7  10
HETATM   10  C7  UNL     1       6.696   1.502  12.240  1.00  0.00     0.181 C 
HETATM   11  C8  UNL     1       8.075   0.703  12.201  1.00  0.00     0.037 C 
HETATM   12  C9  UNL     1       8.412   0.618  10.736  1.00  0.00     0.022 C 
HETATM   13  C10 UNL     1       7.193   1.236  10.036  1.00  0.00     0.129 C 
HETATM   14  N2  UNL     1       6.862   2.248  11.053  1.00  0.00    -0.315 N 
HETATM   15  C11 UNL     1       6.926   3.618  10.756  1.00  0.00     0.363 C 
HETATM   16  O2  UNL     1       6.907   4.502  11.686  1.00  0.00    -0.238 OA
BRANCH  15  17
HETATM   17  O3  UNL     1       7.027   4.086   9.531  1.00  0.00    -0.299 OA
BRANCH  17  18
HETATM   18  C12 UNL     1       7.363   3.864   8.248  1.00  0.00     0.228 C 
BRANCH  18  19
HETATM   19  C13 UNL     1       6.034   3.484   7.602  1.00  0.00     0.030 A 
HETATM   20  S1  UNL     1       4.552   4.328   7.681  1.00  0.00    -0.085 SA
HETATM   21  C14 UNL     1       3.709   3.468   6.465  1.00  0.00     0.138 A 
HETATM   22  N3  UNL     1       4.606   2.574   6.068  1.00  0.00    -0.363 N 
HETATM   23  C15 UNL     1       5.778   2.561   6.627  1.00  0.00     0.020 A 
ATOM     24  H3  UNL     1       4.378   1.907   5.331  1.00  0.00     0.165 HD
HETATM   25  C16 UNL     1       6.792   1.445   6.369  1.00  0.00     0.069 C 
ENDBRANCH  18  19
ENDBRANCH  17  18
ENDBRANCH  15  17
ENDBRANCH   7  10
ENDBRANCH   1   6
BRANCH   1  26
HETATM   26  C17 UNL     1       2.781  -0.601  13.240  1.00  0.00     0.264 C 
HETATM   27  O4  UNL     1       2.149   0.010  14.120  1.00  0.00    -0.266 OA
HETATM   28  N4  UNL     1       3.162  -1.967  13.540  1.00  0.00    -0.354 N 
ATOM     29  H4  UNL     1       3.608  -2.547  12.829  1.00  0.00     0.162 HD
BRANCH  28  30
HETATM   30  C18 UNL     1       2.894  -2.516  14.904  1.00  0.00     0.153 C 
BRANCH  30  31
HETATM   31  C19 UNL     1       3.536  -3.865  14.901  1.00  0.00     0.292 C 
BRANCH  31  32
HETATM   32  N5  UNL     1       4.900  -3.947  15.381  1.00  0.00     0.093 N 
HETATM   33  C20 UNL     1       5.113  -5.211  16.079  1.00  0.00     0.302 C 
HETATM   34  C21 UNL     1       5.740  -5.026  17.425  1.00  0.00     0.303 C 
HETATM   35  N6  UNL     1       6.807  -4.042  17.408  1.00  0.00     0.096 N 
HETATM   36  C27 UNL     1       6.314  -2.747  16.948  1.00  0.00     0.303 C 
HETATM   37  C28 UNL     1       4.912  -2.931  16.484  1.00  0.00     0.302 C 
BRANCH  35  38
HETATM   38  C22 UNL     1       7.907  -4.476  16.553  1.00  0.00     0.223 C 
HETATM   39  C23 UNL     1       8.531  -3.270  15.928  1.00  0.00     0.036 C 
HETATM   40  C24 UNL     1       9.913  -3.798  15.533  1.00  0.00     0.002 C 
HETATM   41  C25 UNL     1      10.268  -4.781  16.599  1.00  0.00     0.002 C 
HETATM   42  C26 UNL     1       9.012  -5.034  17.414  1.00  0.00     0.036 C 
ENDBRANCH  35  38
ENDBRANCH  31  32
ENDBRANCH  30  31
ENDBRANCH  28  30
ENDBRANCH   1  26
TORSDOF 13
ENDMDL
MODEL 3
REMARK VINA RESULT: -8.473636698      1.211      1.484
REMARK  13 active torsions:
REMARK  status: ('A' for Active; 'I' for Inactive)
REMARK    1  A    between atoms: C2_2  and  C3_3 
REMARK    2  A    between atoms: C3_3  and  C4_4 
REMARK    3  A    between atoms: C4_4  and  C5_5 
REMARK    4  A    between atoms: C5_5  and  N1_6 
REMARK    5  A    between atoms: C5_5  and  C17_26 
REMARK       I    between atoms: N1_6  and  C6_8 
REMARK    6  A    between atoms: C6_8  and  C7_10 
REMARK       I    between atoms: N2_14  and  C11_15 
REMARK    7  A    between atoms: C11_15  and  O3_17 
REMARK    8  A    between atoms: O3_17  and  C12_18 
REMARK    9  A    between atoms: C12_18  and  C13_19 
REMARK       I    between atoms: C17_26  and  N4_28 
REMARK   10  A    between atoms: N4_28  and  C18_30 
REMARK   11  A    between atoms: C18_30  and  C19_31 
REMARK   12  A    between atoms: C19_31  and  N5_32 
REMARK   13  A    between atoms: N6_35  and  C22_36 
ROOT
HETATM    1  C5  UNL     1       3.583  -0.453  12.528  1.00  0.00     0.080 C 
ENDROOT
BRANCH   1   2
HETATM    2  C4  UNL     1       2.418   0.272  13.126  1.00  0.00     0.063 C 
BRANCH   2   3
HETATM    3  C3  UNL     1       1.856   1.281  12.120  1.00  0.00     0.006 C 
BRANCH   3   4
HETATM    4  C2  UNL     1       0.416   1.616  12.342  1.00  0.00    -0.004 C 
HETATM    5  C1  UNL     1      -0.292   1.819  10.995  1.00  0.00     0.005 C 
ENDBRANCH   3   4
ENDBRANCH   2   3
ENDBRANCH   1   2
BRANCH   1   6
HETATM    6  N1  UNL     1       4.689   0.392  12.234  1.00  0.00    -0.324 N 
HETATM    7  C6  UNL     1       5.861   0.529  13.065  1.00  0.00     0.245 C 
HETATM    8  O1  UNL     1       5.886  -0.231  14.063  1.00  0.00    -0.271 OA
ATOM      9  H1  UNL     1       4.651   0.941  11.375  1.00  0.00     0.169 HD
BRANCH   7  10
HETATM   10  C7  UNL     1       6.907   1.501  12.722  1.00  0.00     0.181 C 
HETATM   11  C8  UNL     1       8.222   0.674  12.367  1.00  0.00     0.037 C 
HETATM   12  C9  UNL     1       8.133   0.456  10.880  1.00  0.00     0.022 C 
HETATM   13  C10 UNL     1       6.764   1.038  10.498  1.00  0.00     0.129 C 
HETATM   14  N2  UNL     1       6.729   2.140  11.475  1.00  0.00    -0.315 N 
HETATM   15  C11 UNL     1       6.701   3.478  11.053  1.00  0.00     0.363 C 
HETATM   16  O2  UNL     1       6.941   4.438  11.869  1.00  0.00    -0.238 OA
BRANCH  15  17
HETATM   17  O3  UNL     1       6.452   3.837   9.812  1.00  0.00    -0.299 OA
BRANCH  17  18
HETATM   18  C12 UNL     1       6.903   3.988   8.555  1.00  0.00     0.228 C 
BRANCH  18  19
HETATM   19  C13 UNL     1       5.717   3.542   7.704  1.00  0.00     0.030 A 
HETATM   20  S1  UNL     1       4.246   4.369   7.443  1.00  0.00    -0.085 SA
HETATM   21  C14 UNL     1       3.644   3.409   6.161  1.00  0.00     0.138 A 
HETATM   22  N3  UNL     1       4.600   2.502   6.005  1.00  0.00    -0.363 N 
HETATM   23  C15 UNL     1       5.647   2.546   6.771  1.00  0.00     0.020 A 
ATOM     24  H3  UNL     1       4.512   1.778   5.291  1.00  0.00     0.165 HD
HETATM   25  C16 UNL     1       6.692   1.429   6.790  1.00  0.00     0.069 C 
ENDBRANCH  18  19
ENDBRANCH  17  18
ENDBRANCH  15  17
ENDBRANCH   7  10
ENDBRANCH   1   6
BRANCH   1  26
HETATM   26  C17 UNL     1       3.831  -1.751  13.084  1.00  0.00     0.264 C 
HETATM   27  O4  UNL     1       4.231  -2.681  12.360  1.00  0.00    -0.266 OA
HETATM   28  N4  UNL     1       3.611  -2.063  14.483  1.00  0.00    -0.354 N 
ATOM     29  H4  UNL     1       3.364  -1.325  15.143  1.00  0.00     0.162 HD
BRANCH  28  30
HETATM   30  C18 UNL     1       3.750  -3.476  14.946  1.00  0.00     0.153 C 
BRANCH  30  31
HETATM   31  C19 UNL     1       4.386  -3.371  16.293  1.00  0.00     0.292 C 
BRANCH  31  32
HETATM   32  N5  UNL     1       5.700  -3.960  16.451  1.00  0.00     0.093 N 
HETATM   33  C20 UNL     1       6.649  -2.957  16.922  1.00  0.00     0.302 C 
HETATM   34  C21 UNL     1       7.897  -2.914  16.099  1.00  0.00     0.303 C 
HETATM   35  N6  UNL     1       8.383  -4.240  15.762  1.00  0.00     0.096 N 
HETATM   36  C27 UNL     1       7.372  -4.994  15.026  1.00  0.00     0.303 C 
HETATM   37  C28 UNL     1       6.115  -4.196  15.029  1.00  0.00     0.302 C 
BRANCH  35  38
HETATM   38  C22 UNL     1       8.765  -4.978  16.960  1.00  0.00     0.223 C 
HETATM   39  C23 UNL     1       8.967  -6.414  16.594  1.00  0.00     0.036 C 
HETATM   40  C24 UNL     1       9.840  -6.915  17.746  1.00  0.00     0.002 C 
HETATM   41  C25 UNL     1      10.701  -5.752  18.110  1.00  0.00     0.002 C 
HETATM   42  C26 UNL     1      10.139  -4.535  17.397  1.00  0.00     0.036 C 
ENDBRANCH  35  38
ENDBRANCH  31  32
ENDBRANCH  30  31
ENDBRANCH  28  30
ENDBRANCH   1  26
TORSDOF 13
ENDMDL
MODEL 4
REMARK VINA RESULT: -8.443879966      3.253     10.833
REMARK  13 active torsions:
REMARK  status: ('A' for Active; 'I' for Inactive)
REMARK    1  A    between atoms: C2_2  and  C3_3 
REMARK    2  A    between atoms: C3_3  and  C4_4 
REMARK    3  A    between atoms: C4_4  and  C5_5 
REMARK    4  A    between atoms: C5_5  and  N1_6 
REMARK    5  A    between atoms: C5_5  and  C17_26 
REMARK       I    between atoms: N1_6  and  C6_8 
REMARK    6  A    between atoms: C6_8  and  C7_10 
REMARK       I    between atoms: N2_14  and  C11_15 
REMARK    7  A    between atoms: C11_15  and  O3_17 
REMARK    8  A    between atoms: O3_17  and  C12_18 
REMARK    9  A    between atoms: C12_18  and  C13_19 
REMARK       I    between atoms: C17_26  and  N4_28 
REMARK   10  A    between atoms: N4_28  and  C18_30 
REMARK   11  A    between atoms: C18_30  and  C19_31 
REMARK   12  A    between atoms: C19_31  and  N5_32 
REMARK   13  A    between atoms: N6_35  and  C22_36 
ROOT
HETATM    1  C5  UNL     1       5.301   0.055  14.542  1.00  0.00     0.080 C 
ENDROOT
BRANCH   1   2
HETATM    2  C4  UNL     1       3.967   0.683  14.286  1.00  0.00     0.063 C 
BRANCH   2   3
HETATM    3  C3  UNL     1       3.042  -0.317  13.586  1.00  0.00     0.006 C 
BRANCH   3   4
HETATM    4  C2  UNL     1       1.779  -0.595  14.334  1.00  0.00    -0.004 C 
HETATM    5  C1  UNL     1       1.802  -2.025  14.894  1.00  0.00     0.005 C 
ENDBRANCH   3   4
ENDBRANCH   2   3
ENDBRANCH   1   2
BRANCH   1   6
HETATM    6  N1  UNL     1       5.267  -1.367  14.556  1.00  0.00    -0.324 N 
HETATM    7  C6  UNL     1       5.302  -2.177  15.750  1.00  0.00     0.245 C 
HETATM    8  O1  UNL     1       5.283  -1.527  16.823  1.00  0.00    -0.271 OA
ATOM      9  H1  UNL     1       5.215  -1.848  13.658  1.00  0.00     0.169 HD
BRANCH   7  10
HETATM   10  C7  UNL     1       5.359  -3.641  15.654  1.00  0.00     0.181 C 
HETATM   11  C8  UNL     1       6.182  -3.995  14.336  1.00  0.00     0.037 C 
HETATM   12  C9  UNL     1       7.607  -4.112  14.809  1.00  0.00     0.022 C 
HETATM   13  C10 UNL     1       7.543  -3.710  16.290  1.00  0.00     0.129 C 
HETATM   14  N2  UNL     1       6.211  -4.259  16.595  1.00  0.00    -0.315 N 
HETATM   15  C11 UNL     1       6.054  -5.294  17.530  1.00  0.00     0.363 C 
HETATM   16  O2  UNL     1       4.961  -5.959  17.609  1.00  0.00    -0.238 OA
BRANCH  15  17
HETATM   17  O3  UNL     1       7.003  -5.663  18.363  1.00  0.00    -0.299 OA
BRANCH  17  18
HETATM   18  C12 UNL     1       7.484  -6.593  19.206  1.00  0.00     0.228 C 
BRANCH  18  19
HETATM   19  C13 UNL     1       8.925  -6.774  18.741  1.00  0.00     0.030 A 
HETATM   20  S1  UNL     1       9.943  -5.614  18.011  1.00  0.00    -0.085 SA
HETATM   21  C14 UNL     1      11.420  -6.472  18.120  1.00  0.00     0.138 A 
HETATM   22  N3  UNL     1      11.053  -7.606  18.705  1.00  0.00    -0.363 N 
HETATM   23  C15 UNL     1       9.806  -7.781  19.021  1.00  0.00     0.020 A 
ATOM     24  H3  UNL     1      11.743  -8.330  18.904  1.00  0.00     0.165 HD
HETATM   25  C16 UNL     1       9.270  -9.127  19.512  1.00  0.00     0.069 C 
ENDBRANCH  18  19
ENDBRANCH  17  18
ENDBRANCH  15  17
ENDBRANCH   7  10
ENDBRANCH   1   6
BRANCH   1  26
HETATM   26  C17 UNL     1       6.406   0.717  13.911  1.00  0.00     0.264 C 
HETATM   27  O4  UNL     1       7.286   1.268  14.596  1.00  0.00    -0.266 OA
HETATM   28  N4  UNL     1       6.550   0.807  12.471  1.00  0.00    -0.354 N 
ATOM     29  H4  UNL     1       5.908   0.306  11.856  1.00  0.00     0.162 HD
BRANCH  28  30
HETATM   30  C18 UNL     1       7.649   1.642  11.898  1.00  0.00     0.153 C 
BRANCH  30  31
HETATM   31  C19 UNL     1       6.992   2.447  10.825  1.00  0.00     0.292 C 
BRANCH  31  32
HETATM   32  N5  UNL     1       5.545   2.528  10.853  1.00  0.00     0.093 N 
HETATM   33  C20 UNL     1       5.019   2.602   9.494  1.00  0.00     0.302 C 
HETATM   34  C21 UNL     1       4.051   3.728   9.313  1.00  0.00     0.303 C 
HETATM   35  N6  UNL     1       3.135   3.857  10.432  1.00  0.00     0.096 N 
HETATM   36  C27 UNL     1       3.864   4.071  11.679  1.00  0.00     0.303 C 
HETATM   37  C28 UNL     1       5.315   3.908  11.394  1.00  0.00     0.302 C 
BRANCH  35  38
HETATM   38  C22 UNL     1       2.293   2.673  10.558  1.00  0.00     0.223 C 
HETATM   39  C23 UNL     1       1.614   2.708  11.889  1.00  0.00     0.036 C 
HETATM   40  C24 UNL     1       0.427   1.767  11.665  1.00  0.00     0.002 C 
HETATM   41  C25 UNL     1       0.040   1.971  10.238  1.00  0.00     0.002 C 
HETATM   42  C26 UNL     1       1.148   2.775   9.581  1.00  0.00     0.036 C 
ENDBRANCH  35  38
ENDBRANCH  31  32
ENDBRANCH  30  31
ENDBRANCH  28  30
ENDBRANCH   1  26
TORSDOF 13
ENDMDL
MODEL 5
REMARK VINA RESULT: -8.410743067      1.045      1.436
REMARK  13 active torsions:
REMARK  status: ('A' for Active; 'I' for Inactive)
REMARK    1  A    between atoms: C2_2  and  C3_3 
REMARK    2  A    between atoms: C3_3  and  C4_4 
REMARK    3  A    between atoms: C4_4  and  C5_5 
REMARK    4  A    between atoms: C5_5  and  N1_6 
REMARK    5  A    between atoms: C5_5  and  C17_26 
REMARK       I    between atoms: N1_6  and  C6_8 
REMARK    6  A    between atoms: C6_8  and  C7_10 
REMARK       I    between atoms: N2_14  and  C11_15 
REMARK    7  A    between atoms: C11_15  and  O3_17 
REMARK    8  A    between atoms: O3_17  and  C12_18 
REMARK    9  A    between atoms: C12_18  and  C13_19 
REMARK       I    between atoms: C17_26  and  N4_28 
REMARK   10  A    between atoms: N4_28  and  C18_30 
REMARK   11  A    between atoms: C18_30  and  C19_31 
REMARK   12  A    between atoms: C19_31  and  N5_32 
REMARK   13  A    between atoms: N6_35  and  C22_36 
ROOT
HETATM    1  C5  UNL     1       5.053  -1.033  13.042  1.00  0.00     0.080 C 
ENDROOT
BRANCH   1   2
HETATM    2  C4  UNL     1       3.690  -1.402  12.546  1.00  0.00     0.063 C 
BRANCH   2   3
HETATM    3  C3  UNL     1       2.976  -0.161  12.002  1.00  0.00     0.006 C 
BRANCH   3   4
HETATM    4  C2  UNL     1       2.021   0.457  12.970  1.00  0.00    -0.004 C 
HETATM    5  C1  UNL     1       0.947   1.254  12.215  1.00  0.00     0.005 C 
ENDBRANCH   3   4
ENDBRANCH   2   3
ENDBRANCH   1   2
BRANCH   1   6
HETATM    6  N1  UNL     1       5.517   0.219  12.552  1.00  0.00    -0.324 N 
HETATM    7  C6  UNL     1       6.740   0.408  11.808  1.00  0.00     0.245 C 
HETATM    8  O1  UNL     1       7.357  -0.652  11.540  1.00  0.00    -0.271 OA
ATOM      9  H1  UNL     1       4.946   1.043  12.739  1.00  0.00     0.169 HD
BRANCH   7  10
HETATM   10  C7  UNL     1       7.179   1.756  11.429  1.00  0.00     0.181 C 
HETATM   11  C8  UNL     1       8.140   1.602  10.167  1.00  0.00     0.037 C 
HETATM   12  C9  UNL     1       7.219   1.722   8.982  1.00  0.00     0.022 C 
HETATM   13  C10 UNL     1       5.818   1.809   9.606  1.00  0.00     0.129 C 
HETATM   14  N2  UNL     1       6.180   2.551  10.824  1.00  0.00    -0.315 N 
HETATM   15  C11 UNL     1       5.670   3.836  11.066  1.00  0.00     0.363 C 
HETATM   16  O2  UNL     1       6.176   4.595  11.967  1.00  0.00    -0.238 OA
BRANCH  15  17
HETATM   17  O3  UNL     1       4.668   4.353  10.387  1.00  0.00    -0.299 OA
BRANCH  17  18
HETATM   18  C12 UNL     1       3.339   4.482  10.235  1.00  0.00     0.228 C 
BRANCH  18  19
HETATM   19  C13 UNL     1       3.128   4.195   8.751  1.00  0.00     0.030 A 
HETATM   20  S1  UNL     1       4.177   4.561   7.455  1.00  0.00    -0.085 SA
HETATM   21  C14 UNL     1       3.401   3.642   6.238  1.00  0.00     0.138 A 
HETATM   22  N3  UNL     1       2.374   3.109   6.888  1.00  0.00    -0.363 N 
HETATM   23  C15 UNL     1       2.214   3.377   8.149  1.00  0.00     0.020 A 
ATOM     24  H3  UNL     1       1.718   2.497   6.404  1.00  0.00     0.165 HD
HETATM   25  C16 UNL     1       0.957   2.968   8.917  1.00  0.00     0.069 C 
ENDBRANCH  18  19
ENDBRANCH  17  18
ENDBRANCH  15  17
ENDBRANCH   7  10
ENDBRANCH   1   6
BRANCH   1  26
HETATM   26  C17 UNL     1       5.308  -1.380  14.410  1.00  0.00     0.264 C 
HETATM   27  O4  UNL     1       6.370  -1.036  14.961  1.00  0.00    -0.266 OA
HETATM   28  N4  UNL     1       4.381  -2.157  15.210  1.00  0.00    -0.354 N 
ATOM     29  H4  UNL     1       3.460  -2.397  14.844  1.00  0.00     0.162 HD
BRANCH  28  30
HETATM   30  C18 UNL     1       4.791  -2.601  16.576  1.00  0.00     0.153 C 
BRANCH  30  31
HETATM   31  C19 UNL     1       4.887  -4.088  16.477  1.00  0.00     0.292 C 
BRANCH  31  32
HETATM   32  N5  UNL     1       6.193  -4.681  16.682  1.00  0.00     0.093 N 
HETATM   33  C20 UNL     1       7.104  -3.702  17.268  1.00  0.00     0.302 C 
HETATM   34  C21 UNL     1       8.401  -3.609  16.527  1.00  0.00     0.303 C 
HETATM   35  N6  UNL     1       8.915  -4.912  16.147  1.00  0.00     0.096 N 
HETATM   36  C27 UNL     1       7.957  -5.626  15.309  1.00  0.00     0.303 C 
HETATM   37  C28 UNL     1       6.697  -4.835  15.279  1.00  0.00     0.302 C 
BRANCH  35  38
HETATM   38  C22 UNL     1       9.227  -5.716  17.323  1.00  0.00     0.223 C 
HETATM   39  C23 UNL     1       9.007  -7.157  16.990  1.00  0.00     0.036 C 
HETATM   40  C24 UNL     1       9.847  -7.861  18.059  1.00  0.00     0.002 C 
HETATM   41  C25 UNL     1      11.015  -6.960  18.284  1.00  0.00     0.002 C 
HETATM   42  C26 UNL     1      10.710  -5.644  17.593  1.00  0.00     0.036 C 
ENDBRANCH  35  38
ENDBRANCH  31  32
ENDBRANCH  30  31
ENDBRANCH  28  30
ENDBRANCH   1  26
TORSDOF 13
ENDMDL
