MODEL 1
REMARK VINA RESULT: -8.317059992      0.000      0.000
REMARK  13 active torsions:
REMARK  status: ('A' for Active; 'I' for Inactive)
REMARK    1  A    between atoms: C2_2  and  C3_3 
REMARK    2  A    between atoms: C3_3  and  C4_4 
REMARK    3  A    between atoms: C4_4  and  N1_5 
REMARK    4  A    between atoms: C7_9  and  C8_10 
REMARK    5  A    between atoms: C8_10  and  C9_11 
REMARK    6  A    between atoms: N2_12  and  C11_14 
REMARK    7  A    between atoms: C11_14  and  C12_15 
REMARK    8  A    between atoms: C12_15  and  C13_16 
REMARK    9  A    between atoms: C13_16  and  N3_17 
REMARK   10  A    between atoms: N4_20  and  C16_21 
REMARK   11  A    between atoms: C16_21  and  O2_25 
REMARK   12  A    between atoms: O2_25  and  C17_26 
REMARK   13  A    between atoms: C23_32  and  N6_33 
ROOT
HETATM    1  N1  UNL     1       6.890  -7.338  17.784  1.00  0.00    -0.237 N 
HETATM    2  C5  UNL     1       5.620  -6.760  17.846  1.00  0.00     0.268 C 
HETATM    3  O1  UNL     1       4.656  -7.527  18.229  1.00  0.00    -0.266 OA
HETATM    4  C6  UNL     1       5.282  -5.336  17.510  1.00  0.00     0.041 C 
HETATM    5  C7  UNL     1       4.026  -4.973  17.663  1.00  0.00    -0.004 C 
HETATM    6  C21 UNL     1       6.358  -4.460  17.080  1.00  0.00     0.005 A 
HETATM    7  C22 UNL     1       6.079  -3.195  16.540  1.00  0.00     0.043 A 
HETATM    8  C23 UNL     1       7.014  -2.362  15.960  1.00  0.00     0.030 A 
HETATM    9  C26 UNL     1       8.327  -2.767  15.885  1.00  0.00     0.031 A 
HETATM   10  C27 UNL     1       8.663  -3.995  16.395  1.00  0.00     0.028 A 
HETATM   11  C28 UNL     1       7.688  -4.810  16.978  1.00  0.00     0.091 A 
HETATM   12  S1  UNL     1       8.236  -6.315  17.705  1.00  0.00     0.268 S 
HETATM   13  O3  UNL     1       8.811  -5.996  19.065  1.00  0.00    -0.200 OA
HETATM   14  O4  UNL     1       9.367  -6.893  16.899  1.00  0.00    -0.200 OA
ENDROOT
BRANCH   5  15
HETATM   15  C8  UNL     1       3.228  -3.797  17.507  1.00  0.00     0.072 C 
BRANCH  15  16
HETATM   16  C9  UNL     1       2.184  -3.825  16.374  1.00  0.00     0.061 C 
HETATM   17  N2  UNL     1       2.594  -3.302  15.185  1.00  0.00    -0.397 N 
HETATM   18  C10 UNL     1       3.496  -3.779  14.266  1.00  0.00     0.148 C 
BRANCH  17  19
HETATM   19  C11 UNL     1       2.057  -1.979  14.864  1.00  0.00     0.123 C 
BRANCH  19  20
HETATM   20  C12 UNL     1       3.030  -1.151  14.052  1.00  0.00     0.050 C 
BRANCH  20  21
HETATM   21  C13 UNL     1       2.341   0.112  13.632  1.00  0.00     0.274 C 
BRANCH  21  22
HETATM   22  N3  UNL     1       2.273   0.309  12.226  1.00  0.00     0.091 N 
HETATM   23  C14 UNL     1       3.606   0.413  11.631  1.00  0.00     0.292 C 
HETATM   24  C15 UNL     1       4.288   1.687  12.079  1.00  0.00     0.156 C 
HETATM   25  N4  UNL     1       3.416   2.791  11.727  1.00  0.00    -0.344 N 
HETATM   26  C19 UNL     1       1.997   2.722  11.718  1.00  0.00     0.156 C 
HETATM   27  C20 UNL     1       1.409   1.343  11.756  1.00  0.00     0.292 C 
BRANCH  25  28
HETATM   28  C16 UNL     1       4.048   4.015  11.367  1.00  0.00     0.214 C 
HETATM   29  N5  UNL     1       4.654   4.727  12.285  1.00  0.00    -0.365 N 
ATOM     30  H52 UNL     1       4.639   4.358  13.236  1.00  0.00     0.159 HD
ATOM     31  H51 UNL     1       5.107   5.604  12.027  1.00  0.00     0.159 HD
BRANCH  28  32
HETATM   32  O2  UNL     1       4.069   4.511  10.090  1.00  0.00    -0.323 OA
BRANCH  32  33
HETATM   33  C17 UNL     1       4.429   3.733   8.982  1.00  0.00     0.174 C 
HETATM   34  C18 UNL     1       5.878   3.353   9.078  1.00  0.00     0.034 C 
ENDBRANCH  32  33
ENDBRANCH  28  32
ENDBRANCH  25  28
ENDBRANCH  21  22
ENDBRANCH  20  21
ENDBRANCH  19  20
ENDBRANCH  17  19
ENDBRANCH  15  16
ENDBRANCH   5  15
BRANCH   1  35
HETATM   35  C4  UNL     1       7.098  -8.767  17.781  1.00  0.00     0.145 C 
BRANCH  35  36
HETATM   36  C3  UNL     1       7.760  -9.281  19.044  1.00  0.00     0.021 C 
BRANCH  36  37
HETATM   37  C2  UNL     1       9.034 -10.005  18.580  1.00  0.00    -0.003 C 
HETATM   38  C1  UNL     1      10.228  -9.352  19.267  1.00  0.00     0.005 C 
ENDBRANCH  36  37
ENDBRANCH  35  36
ENDBRANCH   1  35
BRANCH   8  39
HETATM   39  N6  UNL     1       6.586  -1.101  15.448  1.00  0.00    -0.390 N 
HETATM   40  C24 UNL     1       7.207  -0.536  14.268  1.00  0.00     0.149 C 
HETATM   41  C25 UNL     1       5.524  -0.364  16.096  1.00  0.00     0.149 C 
ENDBRANCH   8  39
TORSDOF 13
ENDMDL
MODEL 2
REMARK VINA RESULT: -8.234872704      0.945      1.233
REMARK  13 active torsions:
REMARK  status: ('A' for Active; 'I' for Inactive)
REMARK    1  A    between atoms: C2_2  and  C3_3 
REMARK    2  A    between atoms: C3_3  and  C4_4 
REMARK    3  A    between atoms: C4_4  and  N1_5 
REMARK    4  A    between atoms: C7_9  and  C8_10 
REMARK    5  A    between atoms: C8_10  and  C9_11 
REMARK    6  A    between atoms: N2_12  and  C11_14 
REMARK    7  A    between atoms: C11_14  and  C12_15 
REMARK    8  A    between atoms: C12_15  and  C13_16 
REMARK    9  A    between atoms: C13_16  and  N3_17 
REMARK   10  A    between atoms: N4_20  and  C16_21 
REMARK   11  A    between atoms: C16_21  and  O2_25 
REMARK   12  A    between atoms: O2_25  and  C17_26 
REMARK   13  A    between atoms: C23_32  and  N6_33 
ROOT
HETATM    1  N1  UNL     1       7.225  -7.137  17.777  1.00  0.00    -0.237 N 
HETATM    2  C5  UNL     1       5.932  -6.613  17.847  1.00  0.00     0.268 C 
HETATM    3  O1  UNL     1       5.004  -7.420  18.238  1.00  0.00    -0.266 OA
HETATM    4  C6  UNL     1       5.531  -5.206  17.509  1.00  0.00     0.041 C 
HETATM    5  C7  UNL     1       4.263  -4.896  17.671  1.00  0.00    -0.004 C 
HETATM    6  C21 UNL     1       6.566  -4.286  17.069  1.00  0.00     0.005 A 
HETATM    7  C22 UNL     1       6.230  -3.036  16.528  1.00  0.00     0.043 A 
HETATM    8  C23 UNL     1       7.125  -2.165  15.940  1.00  0.00     0.030 A 
HETATM    9  C26 UNL     1       8.453  -2.515  15.857  1.00  0.00     0.031 A 
HETATM   10  C27 UNL     1       8.844  -3.726  16.367  1.00  0.00     0.028 A 
HETATM   11  C28 UNL     1       7.910  -4.580  16.959  1.00  0.00     0.091 A 
HETATM   12  S1  UNL     1       8.526  -6.058  17.686  1.00  0.00     0.268 S 
HETATM   13  O3  UNL     1       9.097  -5.711  19.041  1.00  0.00    -0.200 OA
HETATM   14  O4  UNL     1       9.674  -6.590  16.873  1.00  0.00    -0.200 OA
ENDROOT
BRANCH   5  15
HETATM   15  C8  UNL     1       3.414  -3.755  17.518  1.00  0.00     0.072 C 
BRANCH  15  16
HETATM   16  C9  UNL     1       2.393  -3.813  16.364  1.00  0.00     0.061 C 
HETATM   17  N2  UNL     1       2.814  -3.286  15.181  1.00  0.00    -0.397 N 
HETATM   18  C10 UNL     1       3.744  -3.746  14.282  1.00  0.00     0.148 C 
BRANCH  17  19
HETATM   19  C11 UNL     1       2.252  -1.977  14.843  1.00  0.00     0.123 C 
BRANCH  19  20
HETATM   20  C12 UNL     1       3.064  -1.267  13.781  1.00  0.00     0.050 C 
BRANCH  20  21
HETATM   21  C13 UNL     1       2.563   0.142  13.667  1.00  0.00     0.274 C 
BRANCH  21  22
HETATM   22  N3  UNL     1       1.997   0.467  12.405  1.00  0.00     0.091 N 
HETATM   23  C14 UNL     1       2.848   0.022  11.301  1.00  0.00     0.292 C 
HETATM   24  C15 UNL     1       4.133   0.820  11.268  1.00  0.00     0.156 C 
HETATM   25  N4  UNL     1       3.769   2.221  11.181  1.00  0.00    -0.344 N 
HETATM   26  C19 UNL     1       2.608   2.787  11.772  1.00  0.00     0.156 C 
HETATM   27  C20 UNL     1       1.559   1.812  12.216  1.00  0.00     0.292 C 
BRANCH  25  28
HETATM   28  C16 UNL     1       4.649   3.066  10.446  1.00  0.00     0.214 C 
HETATM   29  N5  UNL     1       4.653   3.016   9.136  1.00  0.00    -0.365 N 
ATOM     30  H52 UNL     1       4.009   2.356   8.701  1.00  0.00     0.159 HD
ATOM     31  H51 UNL     1       5.283   3.622   8.611  1.00  0.00     0.159 HD
BRANCH  28  32
HETATM   32  O2  UNL     1       5.513   3.953  11.031  1.00  0.00    -0.323 OA
BRANCH  32  33
HETATM   33  C17 UNL     1       6.901   3.762  11.042  1.00  0.00     0.174 C 
HETATM   34  C18 UNL     1       7.276   2.831  12.157  1.00  0.00     0.034 C 
ENDBRANCH  32  33
ENDBRANCH  28  32
ENDBRANCH  25  28
ENDBRANCH  21  22
ENDBRANCH  20  21
ENDBRANCH  19  20
ENDBRANCH  17  19
ENDBRANCH  15  16
ENDBRANCH   5  15
BRANCH   1  35
HETATM   35  C4  UNL     1       7.494  -8.556  17.777  1.00  0.00     0.145 C 
BRANCH  35  36
HETATM   36  C3  UNL     1       8.091  -9.056  19.077  1.00  0.00     0.021 C 
BRANCH  36  37
HETATM   37  C2  UNL     1       9.337  -9.862  18.679  1.00  0.00    -0.003 C 
HETATM   38  C1  UNL     1      10.568  -9.091  19.143  1.00  0.00     0.005 C 
ENDBRANCH  36  37
ENDBRANCH  35  36
ENDBRANCH   1  35
BRANCH   8  39
HETATM   39  N6  UNL     1       6.640  -0.925  15.428  1.00  0.00    -0.390 N 
HETATM   40  C24 UNL     1       5.479  -0.290  16.017  1.00  0.00     0.149 C 
HETATM   41  C25 UNL     1       7.296  -0.279  14.314  1.00  0.00     0.149 C 
ENDBRANCH   8  39
TORSDOF 13
ENDMDL
MODEL 3
REMARK VINA RESULT: -8.222473605      1.870      4.243
REMARK  13 active torsions:
REMARK  status: ('A' for Active; 'I' for Inactive)
REMARK    1  A    between atoms: C2_2  and  C3_3 
REMARK    2  A    between atoms: C3_3  and  C4_4 
REMARK    3  A    between atoms: C4_4  and  N1_5 
REMARK    4  A    between atoms: C7_9  and  C8_10 
REMARK    5  A    between atoms: C8_10  and  C9_11 
REMARK    6  A    between atoms: N2_12  and  C11_14 
REMARK    7  A    between atoms: C11_14  and  C12_15 
REMARK    8  A    between atoms: C12_15  and  C13_16 
REMARK    9  A    between atoms: C13_16  and  N3_17 
REMARK   10  A    between atoms: N4_20  and  C16_21 
REMARK   11  A    between atoms: C16_21  and  O2_25 
REMARK   12  A    between atoms: O2_25  and  C17_26 
REMARK   13  A    between atoms: C23_32  and  N6_33 
ROOT
HETATM    1  N1  UNL     1       8.870  -5.151  17.415  1.00  0.00    -0.237 N 
HETATM    2  C5  UNL     1       8.915  -4.104  16.492  1.00  0.00     0.268 C 
HETATM    3  O1  UNL     1      10.050  -3.507  16.351  1.00  0.00    -0.266 OA
HETATM    4  C6  UNL     1       7.766  -3.616  15.656  1.00  0.00     0.041 C 
HETATM    5  C7  UNL     1       8.019  -2.633  14.819  1.00  0.00    -0.004 C 
HETATM    6  C21 UNL     1       6.482  -4.279  15.802  1.00  0.00     0.005 A 
HETATM    7  C22 UNL     1       5.325  -3.735  15.225  1.00  0.00     0.043 A 
HETATM    8  C23 UNL     1       4.043  -4.200  15.440  1.00  0.00     0.030 A 
HETATM    9  C26 UNL     1       3.846  -5.274  16.277  1.00  0.00     0.031 A 
HETATM   10  C27 UNL     1       4.938  -5.850  16.873  1.00  0.00     0.028 A 
HETATM   11  C28 UNL     1       6.221  -5.353  16.628  1.00  0.00     0.091 A 
HETATM   12  S1  UNL     1       7.568  -6.229  17.346  1.00  0.00     0.268 S 
HETATM   13  O3  UNL     1       7.850  -7.439  16.487  1.00  0.00    -0.200 OA
HETATM   14  O4  UNL     1       7.172  -6.760  18.697  1.00  0.00    -0.200 OA
ENDROOT
BRANCH   5  15
HETATM   15  C8  UNL     1       7.321  -1.857  13.841  1.00  0.00     0.072 C 
BRANCH  15  16
HETATM   16  C9  UNL     1       7.328  -0.329  14.048  1.00  0.00     0.061 C 
HETATM   17  N2  UNL     1       6.113   0.236  14.294  1.00  0.00    -0.397 N 
HETATM   18  C10 UNL     1       5.306   0.164  15.403  1.00  0.00     0.148 C 
BRANCH  17  19
HETATM   19  C11 UNL     1       5.526   0.972  13.173  1.00  0.00     0.123 C 
BRANCH  19  20
HETATM   20  C12 UNL     1       6.582   1.634  12.314  1.00  0.00     0.050 C 
BRANCH  20  21
HETATM   21  C13 UNL     1       6.050   1.745  10.916  1.00  0.00     0.274 C 
BRANCH  21  22
HETATM   22  N3  UNL     1       6.022   3.069  10.398  1.00  0.00     0.091 N 
HETATM   23  C14 UNL     1       5.476   4.016  11.371  1.00  0.00     0.292 C 
HETATM   24  C15 UNL     1       4.003   3.751  11.599  1.00  0.00     0.156 C 
HETATM   25  N4  UNL     1       3.348   3.815  10.307  1.00  0.00    -0.344 N 
HETATM   26  C19 UNL     1       3.949   3.421   9.081  1.00  0.00     0.156 C 
HETATM   27  C20 UNL     1       5.438   3.249   9.108  1.00  0.00     0.292 C 
BRANCH  25  28
HETATM   28  C16 UNL     1       2.013   4.311  10.291  1.00  0.00     0.214 C 
HETATM   29  N5  UNL     1       1.657   5.186   9.383  1.00  0.00    -0.365 N 
ATOM     30  H52 UNL     1       2.375   5.474   8.718  1.00  0.00     0.159 HD
ATOM     31  H51 UNL     1       0.701   5.541   9.371  1.00  0.00     0.159 HD
BRANCH  28  32
HETATM   32  O2  UNL     1       1.049   3.924  11.184  1.00  0.00    -0.323 OA
BRANCH  32  33
HETATM   33  C17 UNL     1       0.637   2.592  11.321  1.00  0.00     0.174 C 
HETATM   34  C18 UNL     1      -0.127   2.169  10.101  1.00  0.00     0.034 C 
ENDBRANCH  32  33
ENDBRANCH  28  32
ENDBRANCH  25  28
ENDBRANCH  21  22
ENDBRANCH  20  21
ENDBRANCH  19  20
ENDBRANCH  17  19
ENDBRANCH  15  16
ENDBRANCH   5  15
BRANCH   1  35
HETATM   35  C4  UNL     1       9.887  -5.348  18.422  1.00  0.00     0.145 C 
BRANCH  35  36
HETATM   36  C3  UNL     1      10.832  -6.491  18.109  1.00  0.00     0.021 C 
BRANCH  36  37
HETATM   37  C2  UNL     1      10.579  -7.548  19.195  1.00  0.00    -0.003 C 
HETATM   38  C1  UNL     1      10.113  -8.830  18.511  1.00  0.00     0.005 C 
ENDBRANCH  36  37
ENDBRANCH  35  36
ENDBRANCH   1  35
BRANCH   8  39
HETATM   39  N6  UNL     1       2.958  -3.544  14.788  1.00  0.00    -0.390 N 
HETATM   40  C24 UNL     1       1.597  -3.998  14.987  1.00  0.00     0.149 C 
HETATM   41  C25 UNL     1       3.194  -2.415  13.916  1.00  0.00     0.149 C 
ENDBRANCH   8  39
TORSDOF 13
ENDMDL
MODEL 4
REMARK VINA RESULT: -8.185433361      2.186      4.097
REMARK  13 active torsions:
REMARK  status: ('A' for Active; 'I' for Inactive)
REMARK    1  A    between atoms: C2_2  and  C3_3 
REMARK    2  A    between atoms: C3_3  and  C4_4 
REMARK    3  A    between atoms: C4_4  and  N1_5 
REMARK    4  A    between atoms: C7_9  and  C8_10 
REMARK    5  A    between atoms: C8_10  and  C9_11 
REMARK    6  A    between atoms: N2_12  and  C11_14 
REMARK    7  A    between atoms: C11_14  and  C12_15 
REMARK    8  A    between atoms: C12_15  and  C13_16 
REMARK    9  A    between atoms: C13_16  and  N3_17 
REMARK   10  A    between atoms: N4_20  and  C16_21 
REMARK   11  A    between atoms: C16_21  and  O2_25 
REMARK   12  A    between atoms: O2_25  and  C17_26 
REMARK   13  A    between atoms: C23_32  and  N6_33 
ROOT
HETATM    1  N1  UNL     1       8.677  -4.862  17.303  1.00  0.00    -0.237 N 
HETATM    2  C5  UNL     1       8.594  -4.001  16.206  1.00  0.00     0.268 C 
HETATM    3  O1  UNL     1       9.705  -3.514  15.769  1.00  0.00    -0.266 OA
HETATM    4  C6  UNL     1       7.333  -3.596  15.498  1.00  0.00     0.041 C 
HETATM    5  C7  UNL     1       7.466  -2.797  14.461  1.00  0.00    -0.004 C 
HETATM    6  C21 UNL     1       6.073  -4.139  15.977  1.00  0.00     0.005 A 
HETATM    7  C22 UNL     1       4.851  -3.633  15.510  1.00  0.00     0.043 A 
HETATM    8  C23 UNL     1       3.613  -3.968  16.019  1.00  0.00     0.030 A 
HETATM    9  C26 UNL     1       3.530  -4.860  17.063  1.00  0.00     0.031 A 
HETATM   10  C27 UNL     1       4.690  -5.390  17.565  1.00  0.00     0.028 A 
HETATM   11  C28 UNL     1       5.926  -5.029  17.021  1.00  0.00     0.091 A 
HETATM   12  S1  UNL     1       7.348  -5.848  17.655  1.00  0.00     0.268 S 
HETATM   13  O3  UNL     1       7.435  -7.207  17.003  1.00  0.00    -0.200 OA
HETATM   14  O4  UNL     1       7.179  -6.102  19.128  1.00  0.00    -0.200 OA
ENDROOT
BRANCH   5  15
HETATM   15  C8  UNL     1       6.633  -2.165  13.485  1.00  0.00     0.072 C 
BRANCH  15  16
HETATM   16  C9  UNL     1       6.814  -0.643  13.316  1.00  0.00     0.061 C 
HETATM   17  N2  UNL     1       5.755   0.121  13.703  1.00  0.00    -0.397 N 
HETATM   18  C10 UNL     1       5.265   0.394  14.957  1.00  0.00     0.148 C 
BRANCH  17  19
HETATM   19  C11 UNL     1       4.952   0.678  12.613  1.00  0.00     0.123 C 
BRANCH  19  20
HETATM   20  C12 UNL     1       3.553   1.038  13.065  1.00  0.00     0.050 C 
BRANCH  20  21
HETATM   21  C13 UNL     1       2.754   1.431  11.858  1.00  0.00     0.274 C 
BRANCH  21  22
HETATM   22  N3  UNL     1       2.306   2.780  11.860  1.00  0.00     0.091 N 
HETATM   23  C14 UNL     1       0.941   2.896  11.348  1.00  0.00     0.292 C 
HETATM   24  C15 UNL     1       0.899   2.569   9.871  1.00  0.00     0.156 C 
HETATM   25  N4  UNL     1       1.838   3.453   9.206  1.00  0.00    -0.344 N 
HETATM   26  C19 UNL     1       3.046   3.924   9.787  1.00  0.00     0.156 C 
HETATM   27  C20 UNL     1       3.170   3.752  11.271  1.00  0.00     0.292 C 
BRANCH  25  28
HETATM   28  C16 UNL     1       1.502   3.865   7.886  1.00  0.00     0.214 C 
HETATM   29  N5  UNL     1       0.935   5.031   7.694  1.00  0.00    -0.365 N 
ATOM     30  H52 UNL     1       0.757   5.596   8.524  1.00  0.00     0.159 HD
ATOM     31  H51 UNL     1       0.694   5.326   6.748  1.00  0.00     0.159 HD
BRANCH  28  32
HETATM   32  O2  UNL     1       1.741   3.106   6.770  1.00  0.00    -0.323 OA
BRANCH  32  33
HETATM   33  C17 UNL     1       2.325   3.630   5.609  1.00  0.00     0.174 C 
HETATM   34  C18 UNL     1       3.802   3.800   5.817  1.00  0.00     0.034 C 
ENDBRANCH  32  33
ENDBRANCH  28  32
ENDBRANCH  25  28
ENDBRANCH  21  22
ENDBRANCH  20  21
ENDBRANCH  19  20
ENDBRANCH  17  19
ENDBRANCH  15  16
ENDBRANCH   5  15
BRANCH   1  35
HETATM   35  C4  UNL     1       9.848  -4.941  18.146  1.00  0.00     0.145 C 
BRANCH  35  36
HETATM   36  C3  UNL     1      10.693  -6.173  17.888  1.00  0.00     0.021 C 
BRANCH  36  37
HETATM   37  C2  UNL     1      10.503  -7.072  19.119  1.00  0.00    -0.003 C 
HETATM   38  C1  UNL     1      10.236  -8.492  18.634  1.00  0.00     0.005 C 
ENDBRANCH  36  37
ENDBRANCH  35  36
ENDBRANCH   1  35
BRANCH   8  39
HETATM   39  N6  UNL     1       2.451  -3.370  15.445  1.00  0.00    -0.390 N 
HETATM   40  C24 UNL     1       1.215  -4.117  15.341  1.00  0.00     0.149 C 
HETATM   41  C25 UNL     1       2.485  -2.009  14.959  1.00  0.00     0.149 C 
ENDBRANCH   8  39
TORSDOF 13
ENDMDL
MODEL 5
REMARK VINA RESULT: -8.018002073      2.523     10.299
REMARK  13 active torsions:
REMARK  status: ('A' for Active; 'I' for Inactive)
REMARK    1  A    between atoms: C2_2  and  C3_3 
REMARK    2  A    between atoms: C3_3  and  C4_4 
REMARK    3  A    between atoms: C4_4  and  N1_5 
REMARK    4  A    between atoms: C7_9  and  C8_10 
REMARK    5  A    between atoms: C8_10  and  C9_11 
REMARK    6  A    between atoms: N2_12  and  C11_14 
REMARK    7  A    between atoms: C11_14  and  C12_15 
REMARK    8  A    between atoms: C12_15  and  C13_16 
REMARK    9  A    between atoms: C13_16  and  N3_17 
REMARK   10  A    between atoms: N4_20  and  C16_21 
REMARK   11  A    between atoms: C16_21  and  O2_25 
REMARK   12  A    between atoms: O2_25  and  C17_26 
REMARK   13  A    between atoms: C23_32  and  N6_33 
ROOT
HETATM    1  N1  UNL     1       3.982   2.676  11.731  1.00  0.00    -0.237 N 
HETATM    2  C5  UNL     1       3.099   1.810  12.381  1.00  0.00     0.268 C 
HETATM    3  O1  UNL     1       1.840   2.024  12.196  1.00  0.00    -0.266 OA
HETATM    4  C6  UNL     1       3.484   0.663  13.270  1.00  0.00     0.041 C 
HETATM    5  C7  UNL     1       2.502  -0.058  13.767  1.00  0.00    -0.004 C 
HETATM    6  C21 UNL     1       4.898   0.408  13.486  1.00  0.00     0.005 A 
HETATM    7  C22 UNL     1       5.321  -0.496  14.472  1.00  0.00     0.043 A 
HETATM    8  C23 UNL     1       6.632  -0.684  14.859  1.00  0.00     0.030 A 
HETATM    9  C26 UNL     1       7.627   0.052  14.257  1.00  0.00     0.031 A 
HETATM   10  C27 UNL     1       7.277   0.955  13.286  1.00  0.00     0.028 A 
HETATM   11  C28 UNL     1       5.938   1.115  12.918  1.00  0.00     0.091 A 
HETATM   12  S1  UNL     1       5.602   2.211  11.585  1.00  0.00     0.268 S 
HETATM   13  O3  UNL     1       5.890   1.481  10.294  1.00  0.00    -0.200 OA
HETATM   14  O4  UNL     1       6.553   3.376  11.626  1.00  0.00    -0.200 OA
ENDROOT
BRANCH   5  15
HETATM   15  C8  UNL     1       2.336  -1.203  14.608  1.00  0.00     0.072 C 
BRANCH  15  16
HETATM   16  C9  UNL     1       2.676  -2.568  13.977  1.00  0.00     0.061 C 
HETATM   17  N2  UNL     1       2.461  -3.652  14.774  1.00  0.00    -0.397 N 
HETATM   18  C10 UNL     1       1.288  -4.225  15.200  1.00  0.00     0.148 C 
BRANCH  17  19
HETATM   19  C11 UNL     1       3.665  -4.263  15.339  1.00  0.00     0.123 C 
BRANCH  19  20
HETATM   20  C12 UNL     1       3.345  -5.490  16.166  1.00  0.00     0.050 C 
BRANCH  20  21
HETATM   21  C13 UNL     1       4.631  -6.194  16.483  1.00  0.00     0.274 C 
BRANCH  21  22
HETATM   22  N3  UNL     1       4.684  -6.770  17.782  1.00  0.00     0.091 N 
HETATM   23  C14 UNL     1       5.291  -5.858  18.751  1.00  0.00     0.292 C 
HETATM   24  C15 UNL     1       6.761  -5.665  18.449  1.00  0.00     0.156 C 
HETATM   25  N4  UNL     1       7.375  -6.979  18.435  1.00  0.00    -0.344 N 
HETATM   26  C19 UNL     1       6.721  -8.167  18.009  1.00  0.00     0.156 C 
HETATM   27  C20 UNL     1       5.229  -8.085  17.888  1.00  0.00     0.292 C 
BRANCH  25  28
HETATM   28  C16 UNL     1       8.723  -7.060  18.887  1.00  0.00     0.214 C 
HETATM   29  N5  UNL     1       9.261  -8.232  19.118  1.00  0.00    -0.365 N 
ATOM     30  H52 UNL     1       8.669  -9.048  18.959  1.00  0.00     0.159 HD
ATOM     31  H51 UNL     1      10.227  -8.289  19.441  1.00  0.00     0.159 HD
BRANCH  28  32
HETATM   32  O2  UNL     1       9.518  -5.965  19.099  1.00  0.00    -0.323 OA
BRANCH  32  33
HETATM   33  C17 UNL     1      10.625  -5.666  18.293  1.00  0.00     0.174 C 
HETATM   34  C18 UNL     1      10.164  -5.308  16.911  1.00  0.00     0.034 C 
ENDBRANCH  32  33
ENDBRANCH  28  32
ENDBRANCH  25  28
ENDBRANCH  21  22
ENDBRANCH  20  21
ENDBRANCH  19  20
ENDBRANCH  17  19
ENDBRANCH  15  16
ENDBRANCH   5  15
BRANCH   1  35
HETATM   35  C4  UNL     1       3.567   3.946  11.183  1.00  0.00     0.145 C 
BRANCH  35  36
HETATM   36  C3  UNL     1       3.462   3.944   9.671  1.00  0.00     0.021 C 
BRANCH  36  37
HETATM   37  C2  UNL     1       2.012   4.343   9.355  1.00  0.00    -0.003 C 
HETATM   38  C1  UNL     1       1.267   3.096   8.891  1.00  0.00     0.005 C 
ENDBRANCH  36  37
ENDBRANCH  35  36
ENDBRANCH   1  35
BRANCH   8  39
HETATM   39  N6  UNL     1       6.916  -1.639  15.880  1.00  0.00    -0.390 N 
HETATM   40  C24 UNL     1       8.199  -2.308  15.927  1.00  0.00     0.149 C 
HETATM   41  C25 UNL     1       5.929  -1.956  16.888  1.00  0.00     0.149 C 
ENDBRANCH   8  39
TORSDOF 13
ENDMDL
