MODEL 1
REMARK VINA RESULT: -8.475048214      0.000      0.000
REMARK  14 active torsions:
REMARK  status: ('A' for Active; 'I' for Inactive)
REMARK       I    between atoms: N3_10  and  C6_12 
REMARK    1  A    between atoms: C6_12  and  C7_14 
REMARK    2  A    between atoms: C7_14  and  C8_15 
REMARK    3  A    between atoms: C8_15  and  C9_16 
REMARK    4  A    between atoms: C9_16  and  C10_17 
REMARK    5  A    between atoms: C10_17  and  C11_18 
REMARK    6  A    between atoms: N4_21  and  C14_22 
REMARK    7  A    between atoms: C14_22  and  C15_23 
REMARK    8  A    between atoms: C15_23  and  N5_24 
REMARK    9  A    between atoms: C23_33  and  N6_34 
REMARK   10  A    between atoms: N6_34  and  C24_36 
REMARK   11  A    between atoms: C24_36  and  O3_37 
REMARK   12  A    between atoms: C24_36  and  C25_39 
REMARK   13  A    between atoms: C25_39  and  C26_40 
REMARK   14  A    between atoms: C26_40  and  N7_41 
ROOT
HETATM    1  C1  UNL     1       1.985   4.584   9.423  1.00  0.00     0.070 C 
HETATM    2  C2  UNL     1       1.788   3.496  10.440  1.00  0.00     0.035 A 
HETATM    3  N1  UNL     1       0.588   3.130  10.913  1.00  0.00    -0.365 N 
ATOM      4  H1  UNL     1      -0.237   3.630  10.581  1.00  0.00     0.165 HD
HETATM    5  C3  UNL     1       0.419   2.128  11.809  1.00  0.00     0.120 A 
HETATM    6  C4  UNL     1       1.539   1.436  12.273  1.00  0.00     0.087 A 
HETATM    7  N2  UNL     1       1.763   0.413  13.135  1.00  0.00    -0.318 N 
ATOM      8  H2  UNL     1       1.032  -0.074  13.653  1.00  0.00     0.169 HD
HETATM    9  C5  UNL     1       3.057   0.128  13.217  1.00  0.00     0.232 A 
HETATM   10  N3  UNL     1       3.724  -0.734  13.879  1.00  0.00    -0.292 N 
ATOM     11  H3  UNL     1       4.737  -0.743  13.761  1.00  0.00     0.172 HD
HETATM   12  C6  UNL     1       3.158  -1.680  14.767  1.00  0.00     0.224 C 
HETATM   13  O1  UNL     1       1.962  -2.018  14.728  1.00  0.00    -0.273 OA
HETATM   14  O2  UNL     1       3.676   1.002  12.379  1.00  0.00    -0.274 OA
HETATM   15  C22 UNL     1       2.771   1.778  11.819  1.00  0.00     0.136 A 
HETATM   16  C23 UNL     1       2.905   2.819  10.893  1.00  0.00     0.093 A 
ENDROOT
BRANCH  12  17
HETATM   17  C7  UNL     1       4.143  -2.234  15.755  1.00  0.00     0.103 C 
BRANCH  17  18
HETATM   18  C8  UNL     1       3.503  -3.117  16.734  1.00  0.00     0.009 C 
BRANCH  18  19
HETATM   19  C9  UNL     1       4.139  -4.430  17.018  1.00  0.00     0.001 C 
BRANCH  19  20
HETATM   20  C10 UNL     1       4.975  -4.821  15.820  1.00  0.00     0.005 C 
BRANCH  20  21
HETATM   21  C11 UNL     1       6.360  -5.229  16.173  1.00  0.00    -0.011 C 
HETATM   22  C12 UNL     1       6.930  -4.412  17.317  1.00  0.00     0.035 C 
HETATM   23  C13 UNL     1       7.908  -3.458  16.750  1.00  0.00     0.273 C 
HETATM   24  N4  UNL     1       9.171  -4.190  16.436  1.00  0.00     0.090 N 
HETATM   25  C20 UNL     1       8.780  -5.323  15.613  1.00  0.00     0.273 C 
HETATM   26  C21 UNL     1       7.361  -5.191  15.059  1.00  0.00     0.035 C 
BRANCH  24  27
HETATM   27  C14 UNL     1       9.789  -4.608  17.630  1.00  0.00     0.302 C 
BRANCH  27  28
HETATM   28  C15 UNL     1      10.244  -5.995  17.738  1.00  0.00     0.302 C 
BRANCH  28  29
HETATM   29  N5  UNL     1       9.858  -6.716  18.901  1.00  0.00     0.090 N 
HETATM   30  C16 UNL     1      10.390  -8.096  18.838  1.00  0.00     0.272 C 
HETATM   31  C17 UNL     1       9.432  -8.944  18.109  1.00  0.00     0.032 C 
HETATM   32  C18 UNL     1       8.208  -8.115  17.980  1.00  0.00     0.032 C 
HETATM   33  C19 UNL     1       8.401  -6.956  18.895  1.00  0.00     0.272 C 
ENDBRANCH  28  29
ENDBRANCH  27  28
ENDBRANCH  24  27
ENDBRANCH  20  21
ENDBRANCH  19  20
ENDBRANCH  18  19
ENDBRANCH  17  18
ENDBRANCH  12  17
BRANCH  16  34
HETATM   34  N6  UNL     1       4.193   3.145  10.502  1.00  0.00    -0.327 N 
ATOM     35  H6  UNL     1       4.518   2.923   9.561  1.00  0.00     0.169 HD
BRANCH  34  36
HETATM   36  C24 UNL     1       5.081   3.810  11.450  1.00  0.00     0.187 C 
BRANCH  36  37
HETATM   37  O3  UNL     1       4.523   4.822  12.056  1.00  0.00    -0.340 OA
ATOM     38  H3  UNL     1       4.710   5.657  11.642  1.00  0.00     0.220 HD
ENDBRANCH  36  37
BRANCH  36  39
HETATM   39  C25 UNL     1       6.388   3.404  11.690  1.00  0.00    -0.071 C 
BRANCH  39  40
HETATM   40  C26 UNL     1       7.728   2.990  11.935  1.00  0.00     0.361 C 
BRANCH  40  41
HETATM   41  N7  UNL     1       7.882   1.668  12.551  1.00  0.00     0.102 N 
HETATM   42  C27 UNL     1       7.824   0.617  11.566  1.00  0.00     0.299 C 
HETATM   43  C28 UNL     1       6.744  -0.395  11.915  1.00  0.00     0.198 C 
HETATM   44  O4  UNL     1       6.901  -0.878  13.196  1.00  0.00    -0.388 OA
HETATM   45  C29 UNL     1       7.118   0.098  14.163  1.00  0.00     0.198 C 
HETATM   46  C30 UNL     1       6.910   1.499  13.620  1.00  0.00     0.299 C 
ENDBRANCH  40  41
ENDBRANCH  39  40
ENDBRANCH  36  39
ENDBRANCH  34  36
ENDBRANCH  16  34
TORSDOF 14
ENDMDL
MODEL 2
REMARK VINA RESULT: -8.396064204      2.586      9.768
REMARK  14 active torsions:
REMARK  status: ('A' for Active; 'I' for Inactive)
REMARK       I    between atoms: N3_10  and  C6_12 
REMARK    1  A    between atoms: C6_12  and  C7_14 
REMARK    2  A    between atoms: C7_14  and  C8_15 
REMARK    3  A    between atoms: C8_15  and  C9_16 
REMARK    4  A    between atoms: C9_16  and  C10_17 
REMARK    5  A    between atoms: C10_17  and  C11_18 
REMARK    6  A    between atoms: N4_21  and  C14_22 
REMARK    7  A    between atoms: C14_22  and  C15_23 
REMARK    8  A    between atoms: C15_23  and  N5_24 
REMARK    9  A    between atoms: C23_33  and  N6_34 
REMARK   10  A    between atoms: N6_34  and  C24_36 
REMARK   11  A    between atoms: C24_36  and  O3_37 
REMARK   12  A    between atoms: C24_36  and  C25_39 
REMARK   13  A    between atoms: C25_39  and  C26_40 
REMARK   14  A    between atoms: C26_40  and  N7_41 
ROOT
HETATM    1  C1  UNL     1      10.619  -8.901  19.146  1.00  0.00     0.070 C 
HETATM    2  C2  UNL     1       9.172  -8.651  18.833  1.00  0.00     0.035 A 
HETATM    3  N1  UNL     1       8.167  -9.378  19.341  1.00  0.00    -0.365 N 
ATOM      4  H1  UNL     1       8.395 -10.157  19.958  1.00  0.00     0.165 HD
HETATM    5  C3  UNL     1       6.862  -9.127  19.075  1.00  0.00     0.120 A 
HETATM    6  C4  UNL     1       6.533  -8.064  18.232  1.00  0.00     0.087 A 
HETATM    7  N2  UNL     1       5.387  -7.522  17.751  1.00  0.00    -0.318 N 
ATOM      8  H2  UNL     1       4.452  -7.867  17.967  1.00  0.00     0.169 HD
HETATM    9  C5  UNL     1       5.641  -6.484  16.962  1.00  0.00     0.232 A 
HETATM   10  N3  UNL     1       4.898  -5.681  16.305  1.00  0.00    -0.292 N 
ATOM     11  H3  UNL     1       5.356  -4.950  15.761  1.00  0.00     0.172 HD
HETATM   12  C6  UNL     1       3.485  -5.733  16.278  1.00  0.00     0.224 C 
HETATM   13  O1  UNL     1       2.808  -6.309  17.149  1.00  0.00    -0.273 OA
HETATM   14  O2  UNL     1       6.995  -6.365  16.940  1.00  0.00    -0.274 OA
HETATM   15  C22 UNL     1       7.523  -7.306  17.696  1.00  0.00     0.136 A 
HETATM   16  C23 UNL     1       8.860  -7.597  17.995  1.00  0.00     0.093 A 
ENDROOT
BRANCH  12  17
HETATM   17  C7  UNL     1       2.885  -5.025  15.098  1.00  0.00     0.103 C 
BRANCH  17  18
HETATM   18  C8  UNL     1       1.693  -4.255  15.465  1.00  0.00     0.009 C 
BRANCH  18  19
HETATM   19  C9  UNL     1       1.561  -2.871  14.941  1.00  0.00     0.001 C 
BRANCH  19  20
HETATM   20  C10 UNL     1       2.717  -2.051  15.469  1.00  0.00     0.005 C 
BRANCH  20  21
HETATM   21  C11 UNL     1       3.496  -1.369  14.401  1.00  0.00    -0.011 C 
HETATM   22  C12 UNL     1       3.103   0.087  14.239  1.00  0.00     0.035 C 
HETATM   23  C13 UNL     1       2.294   0.203  13.007  1.00  0.00     0.273 C 
HETATM   24  N4  UNL     1       3.204   0.154  11.823  1.00  0.00     0.090 N 
HETATM   25  C20 UNL     1       4.007  -1.046  11.991  1.00  0.00     0.273 C 
HETATM   26  C21 UNL     1       3.439  -1.999  13.043  1.00  0.00     0.035 C 
BRANCH  24  27
HETATM   27  C14 UNL     1       4.005   1.311  11.790  1.00  0.00     0.302 C 
BRANCH  27  28
HETATM   28  C15 UNL     1       5.397   1.190  11.354  1.00  0.00     0.302 C 
BRANCH  28  29
HETATM   29  N5  UNL     1       6.385   1.824  12.156  1.00  0.00     0.090 N 
HETATM   30  C16 UNL     1       7.718   1.668  11.530  1.00  0.00     0.272 C 
HETATM   31  C17 UNL     1       8.308   0.394  11.974  1.00  0.00     0.032 C 
HETATM   32  C18 UNL     1       7.431  -0.068  13.078  1.00  0.00     0.032 C 
HETATM   33  C19 UNL     1       6.562   1.091  13.425  1.00  0.00     0.272 C 
ENDBRANCH  28  29
ENDBRANCH  27  28
ENDBRANCH  24  27
ENDBRANCH  20  21
ENDBRANCH  19  20
ENDBRANCH  18  19
ENDBRANCH  17  18
ENDBRANCH  12  17
BRANCH  16  34
HETATM   34  N6  UNL     1       9.822  -6.811  17.384  1.00  0.00    -0.327 N 
ATOM     35  H6  UNL     1      10.386  -7.186  16.621  1.00  0.00     0.169 HD
BRANCH  34  36
HETATM   36  C24 UNL     1      10.020  -5.440  17.842  1.00  0.00     0.187 C 
BRANCH  36  37
HETATM   37  O3  UNL     1      10.179  -5.345  19.133  1.00  0.00    -0.340 OA
ATOM     38  H3  UNL     1       9.802  -4.554  19.502  1.00  0.00     0.220 HD
ENDBRANCH  36  37
BRANCH  36  39
HETATM   39  C25 UNL     1      10.043  -4.343  16.989  1.00  0.00    -0.071 C 
BRANCH  39  40
HETATM   40  C26 UNL     1      10.067  -3.221  16.113  1.00  0.00     0.361 C 
BRANCH  40  41
HETATM   41  N7  UNL     1       8.775  -2.836  15.536  1.00  0.00     0.102 N 
HETATM   42  C27 UNL     1       7.967  -2.112  16.485  1.00  0.00     0.299 C 
HETATM   43  C28 UNL     1       6.615  -2.781  16.669  1.00  0.00     0.198 C 
HETATM   44  O4  UNL     1       5.975  -2.965  15.462  1.00  0.00    -0.388 OA
HETATM   45  C29 UNL     1       6.768  -3.520  14.463  1.00  0.00     0.198 C 
HETATM   46  C30 UNL     1       8.103  -4.007  14.995  1.00  0.00     0.299 C 
ENDBRANCH  40  41
ENDBRANCH  39  40
ENDBRANCH  36  39
ENDBRANCH  34  36
ENDBRANCH  16  34
TORSDOF 14
ENDMDL
MODEL 3
REMARK VINA RESULT: -8.375666446      2.695     10.457
REMARK  14 active torsions:
REMARK  status: ('A' for Active; 'I' for Inactive)
REMARK       I    between atoms: N3_10  and  C6_12 
REMARK    1  A    between atoms: C6_12  and  C7_14 
REMARK    2  A    between atoms: C7_14  and  C8_15 
REMARK    3  A    between atoms: C8_15  and  C9_16 
REMARK    4  A    between atoms: C9_16  and  C10_17 
REMARK    5  A    between atoms: C10_17  and  C11_18 
REMARK    6  A    between atoms: N4_21  and  C14_22 
REMARK    7  A    between atoms: C14_22  and  C15_23 
REMARK    8  A    between atoms: C15_23  and  N5_24 
REMARK    9  A    between atoms: C23_33  and  N6_34 
REMARK   10  A    between atoms: N6_34  and  C24_36 
REMARK   11  A    between atoms: C24_36  and  O3_37 
REMARK   12  A    between atoms: C24_36  and  C25_39 
REMARK   13  A    between atoms: C25_39  and  C26_40 
REMARK   14  A    between atoms: C26_40  and  N7_41 
ROOT
HETATM    1  C1  UNL     1      10.640  -9.302  19.138  1.00  0.00     0.070 C 
HETATM    2  C2  UNL     1       9.226  -8.990  18.741  1.00  0.00     0.035 A 
HETATM    3  N1  UNL     1       8.329  -9.925  18.397  1.00  0.00    -0.365 N 
ATOM      4  H1  UNL     1       8.626 -10.901  18.383  1.00  0.00     0.165 HD
HETATM    5  C3  UNL     1       7.047  -9.636  18.067  1.00  0.00     0.120 A 
HETATM    6  C4  UNL     1       6.626  -8.306  18.080  1.00  0.00     0.087 A 
HETATM    7  N2  UNL     1       5.468  -7.649  17.823  1.00  0.00    -0.318 N 
ATOM      8  H2  UNL     1       4.600  -8.102  17.536  1.00  0.00     0.169 HD
HETATM    9  C5  UNL     1       5.609  -6.340  17.995  1.00  0.00     0.232 A 
HETATM   10  N3  UNL     1       4.814  -5.350  17.876  1.00  0.00    -0.292 N 
ATOM     11  H3  UNL     1       5.183  -4.419  18.070  1.00  0.00     0.172 HD
HETATM   12  C6  UNL     1       3.455  -5.451  17.494  1.00  0.00     0.224 C 
HETATM   13  O1  UNL     1       2.799  -6.504  17.586  1.00  0.00    -0.273 OA
HETATM   14  O2  UNL     1       6.903  -6.160  18.372  1.00  0.00    -0.274 OA
HETATM   15  C22 UNL     1       7.505  -7.330  18.422  1.00  0.00     0.136 A 
HETATM   16  C23 UNL     1       8.822  -7.669  18.757  1.00  0.00     0.093 A 
ENDROOT
BRANCH  12  17
HETATM   17  C7  UNL     1       2.886  -4.165  16.970  1.00  0.00     0.103 C 
BRANCH  17  18
HETATM   18  C8  UNL     1       1.753  -4.390  16.069  1.00  0.00     0.009 C 
BRANCH  18  19
HETATM   19  C9  UNL     1       1.571  -3.462  14.922  1.00  0.00     0.001 C 
BRANCH  19  20
HETATM   20  C10 UNL     1       2.930  -3.173  14.325  1.00  0.00     0.005 C 
BRANCH  20  21
HETATM   21  C11 UNL     1       3.090  -1.765  13.873  1.00  0.00    -0.011 C 
HETATM   22  C12 UNL     1       3.841  -1.661  12.559  1.00  0.00     0.035 C 
HETATM   23  C13 UNL     1       5.206  -1.177  12.855  1.00  0.00     0.273 C 
HETATM   24  N4  UNL     1       5.152   0.292  13.121  1.00  0.00     0.090 N 
HETATM   25  C20 UNL     1       4.136   0.472  14.146  1.00  0.00     0.273 C 
HETATM   26  C21 UNL     1       3.756  -0.836  14.841  1.00  0.00     0.035 C 
BRANCH  24  27
HETATM   27  C14 UNL     1       4.819   0.978  11.938  1.00  0.00     0.302 C 
BRANCH  27  28
HETATM   28  C15 UNL     1       3.787   2.015  11.993  1.00  0.00     0.302 C 
BRANCH  28  29
HETATM   29  N5  UNL     1       2.802   2.005  10.968  1.00  0.00     0.090 N 
HETATM   30  C16 UNL     1       1.834   3.103  11.189  1.00  0.00     0.272 C 
HETATM   31  C17 UNL     1       0.770   2.627  12.089  1.00  0.00     0.032 C 
HETATM   32  C18 UNL     1       0.971   1.160  12.178  1.00  0.00     0.032 C 
HETATM   33  C19 UNL     1       1.939   0.814  11.100  1.00  0.00     0.272 C 
ENDBRANCH  28  29
ENDBRANCH  27  28
ENDBRANCH  24  27
ENDBRANCH  20  21
ENDBRANCH  19  20
ENDBRANCH  18  19
ENDBRANCH  17  18
ENDBRANCH  12  17
BRANCH  16  34
HETATM   34  N6  UNL     1       9.679  -6.623  19.056  1.00  0.00    -0.327 N 
ATOM     35  H6  UNL     1       9.745  -6.267  20.009  1.00  0.00     0.169 HD
BRANCH  34  36
HETATM   36  C24 UNL     1      10.485  -6.034  17.992  1.00  0.00     0.187 C 
BRANCH  36  37
HETATM   37  O3  UNL     1      11.478  -6.794  17.616  1.00  0.00    -0.340 OA
ATOM     38  H3  UNL     1      11.337  -7.206  16.772  1.00  0.00     0.220 HD
ENDBRANCH  36  37
BRANCH  36  39
HETATM   39  C25 UNL     1      10.222  -4.791  17.429  1.00  0.00    -0.071 C 
BRANCH  39  40
HETATM   40  C26 UNL     1       9.951  -3.519  16.851  1.00  0.00     0.361 C 
BRANCH  40  41
HETATM   41  N7  UNL     1       8.813  -3.470  15.927  1.00  0.00     0.102 N 
HETATM   42  C27 UNL     1       7.922  -2.382  16.244  1.00  0.00     0.299 C 
HETATM   43  C28 UNL     1       6.505  -2.888  16.462  1.00  0.00     0.198 C 
HETATM   44  O4  UNL     1       6.066  -3.637  15.391  1.00  0.00    -0.388 OA
HETATM   45  C29 UNL     1       6.966  -4.601  14.949  1.00  0.00     0.198 C 
HETATM   46  C30 UNL     1       8.144  -4.761  15.891  1.00  0.00     0.299 C 
ENDBRANCH  40  41
ENDBRANCH  39  40
ENDBRANCH  36  39
ENDBRANCH  34  36
ENDBRANCH  16  34
TORSDOF 14
ENDMDL
MODEL 4
REMARK VINA RESULT: -8.327728151      3.034     10.885
REMARK  14 active torsions:
REMARK  status: ('A' for Active; 'I' for Inactive)
REMARK       I    between atoms: N3_10  and  C6_12 
REMARK    1  A    between atoms: C6_12  and  C7_14 
REMARK    2  A    between atoms: C7_14  and  C8_15 
REMARK    3  A    between atoms: C8_15  and  C9_16 
REMARK    4  A    between atoms: C9_16  and  C10_17 
REMARK    5  A    between atoms: C10_17  and  C11_18 
REMARK    6  A    between atoms: N4_21  and  C14_22 
REMARK    7  A    between atoms: C14_22  and  C15_23 
REMARK    8  A    between atoms: C15_23  and  N5_24 
REMARK    9  A    between atoms: C23_33  and  N6_34 
REMARK   10  A    between atoms: N6_34  and  C24_36 
REMARK   11  A    between atoms: C24_36  and  O3_37 
REMARK   12  A    between atoms: C24_36  and  C25_39 
REMARK   13  A    between atoms: C25_39  and  C26_40 
REMARK   14  A    between atoms: C26_40  and  N7_41 
ROOT
HETATM    1  C1  UNL     1       9.852 -10.999  19.264  1.00  0.00     0.070 C 
HETATM    2  C2  UNL     1       8.597 -10.408  18.689  1.00  0.00     0.035 A 
HETATM    3  N1  UNL     1       7.721 -11.103  17.950  1.00  0.00    -0.365 N 
ATOM      4  H1  UNL     1       7.925 -12.081  17.747  1.00  0.00     0.165 HD
HETATM    5  C3  UNL     1       6.577 -10.568  17.460  1.00  0.00     0.120 A 
HETATM    6  C4  UNL     1       6.283  -9.229  17.727  1.00  0.00     0.087 A 
HETATM    7  N2  UNL     1       5.276  -8.374  17.424  1.00  0.00    -0.318 N 
ATOM      8  H2  UNL     1       4.459  -8.622  16.866  1.00  0.00     0.169 HD
HETATM    9  C5  UNL     1       5.491  -7.173  17.947  1.00  0.00     0.232 A 
HETATM   10  N3  UNL     1       4.834  -6.080  17.930  1.00  0.00    -0.292 N 
ATOM     11  H3  UNL     1       5.231  -5.280  18.422  1.00  0.00     0.172 HD
HETATM   12  C6  UNL     1       3.593  -5.897  17.276  1.00  0.00     0.224 C 
HETATM   13  O1  UNL     1       2.841  -6.839  16.966  1.00  0.00    -0.273 OA
HETATM   14  O2  UNL     1       6.677  -7.269  18.603  1.00  0.00    -0.274 OA
HETATM   15  C22 UNL     1       7.146  -8.493  18.471  1.00  0.00     0.136 A 
HETATM   16  C23 UNL     1       8.318  -9.082  18.961  1.00  0.00     0.093 A 
ENDROOT
BRANCH  12  17
HETATM   17  C7  UNL     1       3.272  -4.458  16.995  1.00  0.00     0.103 C 
BRANCH  17  18
HETATM   18  C8  UNL     1       1.969  -4.300  16.344  1.00  0.00     0.009 C 
BRANCH  18  19
HETATM   19  C9  UNL     1       1.937  -4.116  14.869  1.00  0.00     0.001 C 
BRANCH  19  20
HETATM   20  C10 UNL     1       3.295  -3.624  14.423  1.00  0.00     0.005 C 
BRANCH  20  21
HETATM   21  C11 UNL     1       3.286  -2.216  13.944  1.00  0.00    -0.011 C 
HETATM   22  C12 UNL     1       4.085  -2.032  12.669  1.00  0.00     0.035 C 
HETATM   23  C13 UNL     1       5.354  -1.360  13.022  1.00  0.00     0.273 C 
HETATM   24  N4  UNL     1       5.085   0.092  13.249  1.00  0.00     0.090 N 
HETATM   25  C20 UNL     1       4.001   0.149  14.215  1.00  0.00     0.273 C 
HETATM   26  C21 UNL     1       3.765  -1.186  14.922  1.00  0.00     0.035 C 
BRANCH  24  27
HETATM   27  C14 UNL     1       4.727   0.706  12.033  1.00  0.00     0.302 C 
BRANCH  27  28
HETATM   28  C15 UNL     1       3.767   1.811  12.060  1.00  0.00     0.302 C 
BRANCH  28  29
HETATM   29  N5  UNL     1       2.787   1.844  11.030  1.00  0.00     0.090 N 
HETATM   30  C16 UNL     1       1.873   2.990  11.240  1.00  0.00     0.272 C 
HETATM   31  C17 UNL     1       0.783   2.572  12.137  1.00  0.00     0.032 C 
HETATM   32  C18 UNL     1       0.911   1.097  12.234  1.00  0.00     0.032 C 
HETATM   33  C19 UNL     1       1.866   0.698  11.163  1.00  0.00     0.272 C 
ENDBRANCH  28  29
ENDBRANCH  27  28
ENDBRANCH  24  27
ENDBRANCH  20  21
ENDBRANCH  19  20
ENDBRANCH  18  19
ENDBRANCH  17  18
ENDBRANCH  12  17
BRANCH  16  34
HETATM   34  N6  UNL     1       9.176  -8.264  19.678  1.00  0.00    -0.327 N 
ATOM     35  H6  UNL     1       9.094  -8.195  20.692  1.00  0.00     0.169 HD
BRANCH  34  36
HETATM   36  C24 UNL     1      10.196  -7.501  18.967  1.00  0.00     0.187 C 
BRANCH  36  37
HETATM   37  O3  UNL     1      11.337  -8.127  18.874  1.00  0.00    -0.340 OA
ATOM     38  H3  UNL     1      12.039  -7.704  19.355  1.00  0.00     0.220 HD
ENDBRANCH  36  37
BRANCH  36  39
HETATM   39  C25 UNL     1       9.976  -6.236  18.437  1.00  0.00    -0.071 C 
BRANCH  39  40
HETATM   40  C26 UNL     1       9.751  -4.940  17.891  1.00  0.00     0.361 C 
BRANCH  40  41
HETATM   41  N7  UNL     1       8.886  -4.889  16.708  1.00  0.00     0.102 N 
HETATM   42  C27 UNL     1       9.578  -4.335  15.572  1.00  0.00     0.299 C 
HETATM   43  C28 UNL     1       8.823  -3.144  15.004  1.00  0.00     0.198 C 
HETATM   44  O4  UNL     1       7.512  -3.466  14.721  1.00  0.00    -0.388 OA
HETATM   45  C29 UNL     1       6.849  -4.146  15.737  1.00  0.00     0.198 C 
HETATM   46  C30 UNL     1       7.653  -4.184  17.023  1.00  0.00     0.299 C 
ENDBRANCH  40  41
ENDBRANCH  39  40
ENDBRANCH  36  39
ENDBRANCH  34  36
ENDBRANCH  16  34
TORSDOF 14
ENDMDL
MODEL 5
REMARK VINA RESULT: -8.198514498      1.639      2.409
REMARK  14 active torsions:
REMARK  status: ('A' for Active; 'I' for Inactive)
REMARK       I    between atoms: N3_10  and  C6_12 
REMARK    1  A    between atoms: C6_12  and  C7_14 
REMARK    2  A    between atoms: C7_14  and  C8_15 
REMARK    3  A    between atoms: C8_15  and  C9_16 
REMARK    4  A    between atoms: C9_16  and  C10_17 
REMARK    5  A    between atoms: C10_17  and  C11_18 
REMARK    6  A    between atoms: N4_21  and  C14_22 
REMARK    7  A    between atoms: C14_22  and  C15_23 
REMARK    8  A    between atoms: C15_23  and  N5_24 
REMARK    9  A    between atoms: C23_33  and  N6_34 
REMARK   10  A    between atoms: N6_34  and  C24_36 
REMARK   11  A    between atoms: C24_36  and  O3_37 
REMARK   12  A    between atoms: C24_36  and  C25_39 
REMARK   13  A    between atoms: C25_39  and  C26_40 
REMARK   14  A    between atoms: C26_40  and  N7_41 
ROOT
HETATM    1  C1  UNL     1       3.197   4.944   8.252  1.00  0.00     0.070 C 
HETATM    2  C2  UNL     1       2.735   4.117   9.418  1.00  0.00     0.035 A 
HETATM    3  N1  UNL     1       1.653   4.410  10.153  1.00  0.00    -0.365 N 
ATOM      4  H1  UNL     1       1.125   5.252   9.924  1.00  0.00     0.165 HD
HETATM    5  C3  UNL     1       1.228   3.642  11.184  1.00  0.00     0.120 A 
HETATM    6  C4  UNL     1       1.941   2.487  11.511  1.00  0.00     0.087 A 
HETATM    7  N2  UNL     1       1.829   1.503  12.437  1.00  0.00    -0.318 N 
ATOM      8  H2  UNL     1       1.094   1.457  13.142  1.00  0.00     0.169 HD
HETATM    9  C5  UNL     1       2.801   0.607  12.306  1.00  0.00     0.232 A 
HETATM   10  N3  UNL     1       3.094  -0.464  12.933  1.00  0.00    -0.292 N 
ATOM     11  H3  UNL     1       3.917  -0.982  12.625  1.00  0.00     0.172 HD
HETATM   12  C6  UNL     1       2.360  -0.985  14.024  1.00  0.00     0.224 C 
HETATM   13  O1  UNL     1       1.178  -0.676  14.258  1.00  0.00    -0.273 OA
HETATM   14  O2  UNL     1       3.556   1.040  11.262  1.00  0.00    -0.274 OA
HETATM   15  C22 UNL     1       3.042   2.157  10.791  1.00  0.00     0.136 A 
HETATM   16  C23 UNL     1       3.450   2.977   9.731  1.00  0.00     0.093 A 
ENDROOT
BRANCH  12  17
HETATM   17  C7  UNL     1       3.147  -1.944  14.869  1.00  0.00     0.103 C 
BRANCH  17  18
HETATM   18  C8  UNL     1       3.161  -3.295  14.301  1.00  0.00     0.009 C 
BRANCH  18  19
HETATM   19  C9  UNL     1       2.270  -4.321  14.902  1.00  0.00     0.001 C 
BRANCH  19  20
HETATM   20  C10 UNL     1       2.189  -4.066  16.390  1.00  0.00     0.005 C 
BRANCH  20  21
HETATM   21  C11 UNL     1       3.041  -4.983  17.194  1.00  0.00    -0.011 C 
HETATM   22  C12 UNL     1       4.338  -4.331  17.634  1.00  0.00     0.035 C 
HETATM   23  C13 UNL     1       5.428  -4.883  16.802  1.00  0.00     0.273 C 
HETATM   24  N4  UNL     1       5.766  -6.253  17.293  1.00  0.00     0.090 N 
HETATM   25  C20 UNL     1       4.510  -6.983  17.329  1.00  0.00     0.273 C 
HETATM   26  C21 UNL     1       3.396  -6.286  16.546  1.00  0.00     0.035 C 
BRANCH  24  27
HETATM   27  C14 UNL     1       6.351  -6.169  18.570  1.00  0.00     0.302 C 
BRANCH  27  28
HETATM   28  C15 UNL     1       7.799  -6.353  18.694  1.00  0.00     0.302 C 
BRANCH  28  29
HETATM   29  N5  UNL     1       8.535  -6.531  17.491  1.00  0.00     0.090 N 
HETATM   30  C16 UNL     1       9.596  -7.544  17.694  1.00  0.00     0.272 C 
HETATM   31  C17 UNL     1      10.797  -6.877  18.222  1.00  0.00     0.032 C 
HETATM   32  C18 UNL     1      10.528  -5.426  18.070  1.00  0.00     0.032 C 
HETATM   33  C19 UNL     1       9.329  -5.322  17.193  1.00  0.00     0.272 C 
ENDBRANCH  28  29
ENDBRANCH  27  28
ENDBRANCH  24  27
ENDBRANCH  20  21
ENDBRANCH  19  20
ENDBRANCH  18  19
ENDBRANCH  17  18
ENDBRANCH  12  17
BRANCH  16  34
HETATM   34  N6  UNL     1       4.606   2.606   9.063  1.00  0.00    -0.327 N 
ATOM     35  H6  UNL     1       4.553   2.197   8.130  1.00  0.00     0.169 HD
BRANCH  34  36
HETATM   36  C24 UNL     1       5.899   2.805   9.709  1.00  0.00     0.187 C 
BRANCH  36  37
HETATM   37  O3  UNL     1       6.204   4.062   9.877  1.00  0.00    -0.340 OA
ATOM     38  H3  UNL     1       7.117   4.201  10.102  1.00  0.00     0.220 HD
ENDBRANCH  36  37
BRANCH  36  39
HETATM   39  C25 UNL     1       6.723   1.760  10.111  1.00  0.00    -0.071 C 
BRANCH  39  40
HETATM   40  C26 UNL     1       7.568   0.692  10.524  1.00  0.00     0.361 C 
BRANCH  40  41
HETATM   41  N7  UNL     1       7.885   0.649  11.956  1.00  0.00     0.102 N 
HETATM   42  C27 UNL     1       7.163  -0.404  12.624  1.00  0.00     0.299 C 
HETATM   43  C28 UNL     1       6.354   0.145  13.787  1.00  0.00     0.198 C 
HETATM   44  O4  UNL     1       7.143   0.876  14.650  1.00  0.00    -0.388 OA
HETATM   45  C29 UNL     1       7.976   1.802  14.031  1.00  0.00     0.198 C 
HETATM   46  C30 UNL     1       7.666   1.956  12.554  1.00  0.00     0.299 C 
ENDBRANCH  40  41
ENDBRANCH  39  40
ENDBRANCH  36  39
ENDBRANCH  34  36
ENDBRANCH  16  34
TORSDOF 14
ENDMDL
