MODEL 1
REMARK VINA RESULT: -3.514047660      0.000      0.000
REMARK  1 active torsions:
REMARK  status: ('A' for Active; 'I' for Inactive)
REMARK    1  A    between atoms: N1_1  and  C1_5 
ROOT
HETATM    1  C1  UNL     1      -1.649  39.293  -8.825  1.00  0.00     0.320 A 
HETATM    2  C2  UNL     1      -0.766  39.486 -10.025  1.00  0.00     0.087 A 
HETATM    3  C3  UNL     1      -2.012  40.009 -10.637  1.00  0.00     0.174 A 
HETATM    4  O1  UNL     1      -2.778  39.744  -9.498  1.00  0.00    -0.359 OA
ENDROOT
BRANCH   1   5
HETATM    5  N1  UNL     1      -1.768  37.927  -8.378  1.00  0.00    -0.053 N 
ATOM      6  H13 UNL     1      -1.169  37.765  -7.569  1.00  0.00     0.277 HD
ATOM      7  H12 UNL     1      -2.682  37.771  -7.954  1.00  0.00     0.277 HD
ATOM      8  H11 UNL     1      -1.588  37.227  -9.097  1.00  0.00     0.277 HD
ENDBRANCH   1   5
TORSDOF 1
ENDMDL
MODEL 2
REMARK VINA RESULT: -3.355558089      2.111      2.450
REMARK  1 active torsions:
REMARK  status: ('A' for Active; 'I' for Inactive)
REMARK    1  A    between atoms: N1_1  and  C1_5 
ROOT
HETATM    1  C1  UNL     1      -1.480  40.179 -10.154  1.00  0.00     0.320 A 
HETATM    2  C2  UNL     1      -1.542  39.079  -9.133  1.00  0.00     0.087 A 
HETATM    3  C3  UNL     1      -0.386  38.546  -9.896  1.00  0.00     0.174 A 
HETATM    4  O1  UNL     1      -0.433  39.577 -10.840  1.00  0.00    -0.359 OA
ENDROOT
BRANCH   1   5
HETATM    5  N1  UNL     1      -2.671  40.324 -10.956  1.00  0.00    -0.053 N 
ATOM      6  H13 UNL     1      -2.476  40.893 -11.779  1.00  0.00     0.277 HD
ATOM      7  H12 UNL     1      -2.904  39.438 -11.405  1.00  0.00     0.277 HD
ATOM      8  H11 UNL     1      -3.479  40.690 -10.455  1.00  0.00     0.277 HD
ENDBRANCH   1   5
TORSDOF 1
ENDMDL
MODEL 3
REMARK VINA RESULT: -3.338069079      1.871      2.244
REMARK  1 active torsions:
REMARK  status: ('A' for Active; 'I' for Inactive)
REMARK    1  A    between atoms: N1_1  and  C1_5 
ROOT
HETATM    1  C1  UNL     1      -1.041  39.798 -10.197  1.00  0.00     0.320 A 
HETATM    2  C2  UNL     1      -0.547  38.431  -9.818  1.00  0.00     0.087 A 
HETATM    3  C3  UNL     1      -1.551  38.562  -8.734  1.00  0.00     0.174 A 
HETATM    4  O1  UNL     1      -1.914  39.856  -9.117  1.00  0.00    -0.359 OA
ENDROOT
BRANCH   1   5
HETATM    5  N1  UNL     1      -0.036  40.832 -10.165  1.00  0.00    -0.053 N 
ATOM      6  H13 UNL     1      -0.423  41.713 -10.502  1.00  0.00     0.277 HD
ATOM      7  H12 UNL     1       0.177  41.090  -9.202  1.00  0.00     0.277 HD
ATOM      8  H11 UNL     1       0.822  40.607 -10.669  1.00  0.00     0.277 HD
ENDBRANCH   1   5
TORSDOF 1
ENDMDL
MODEL 4
REMARK VINA RESULT: -3.273391025      6.932      7.223
REMARK  1 active torsions:
REMARK  status: ('A' for Active; 'I' for Inactive)
REMARK    1  A    between atoms: N1_1  and  C1_5 
ROOT
HETATM    1  C1  UNL     1       2.682  33.772 -12.310  1.00  0.00     0.320 A 
HETATM    2  C2  UNL     1       1.664  33.623 -11.216  1.00  0.00     0.087 A 
HETATM    3  C3  UNL     1       0.887  34.572 -12.052  1.00  0.00     0.174 A 
HETATM    4  O1  UNL     1       1.909  34.700 -12.998  1.00  0.00    -0.359 OA
ENDROOT
BRANCH   1   5
HETATM    5  N1  UNL     1       3.953  34.304 -11.882  1.00  0.00    -0.053 N 
ATOM      6  H13 UNL     1       3.815  35.157 -11.340  1.00  0.00     0.277 HD
ATOM      7  H12 UNL     1       4.364  33.705 -11.167  1.00  0.00     0.277 HD
ATOM      8  H11 UNL     1       4.621  34.467 -12.635  1.00  0.00     0.277 HD
ENDBRANCH   1   5
TORSDOF 1
ENDMDL
MODEL 5
REMARK VINA RESULT: -3.176576790      7.906      8.191
REMARK  1 active torsions:
REMARK  status: ('A' for Active; 'I' for Inactive)
REMARK    1  A    between atoms: N1_1  and  C1_5 
ROOT
HETATM    1  C1  UNL     1       3.146  32.550 -11.630  1.00  0.00     0.320 A 
HETATM    2  C2  UNL     1       1.904  33.265 -11.179  1.00  0.00     0.087 A 
HETATM    3  C3  UNL     1       2.278  34.221 -12.250  1.00  0.00     0.174 A 
HETATM    4  O1  UNL     1       3.449  33.527 -12.570  1.00  0.00    -0.359 OA
ENDROOT
BRANCH   1   5
HETATM    5  N1  UNL     1       4.162  32.410 -10.615  1.00  0.00    -0.053 N 
ATOM      6  H13 UNL     1       3.737  32.392  -9.688  1.00  0.00     0.277 HD
ATOM      7  H12 UNL     1       4.562  31.472 -10.643  1.00  0.00     0.277 HD
ATOM      8  H11 UNL     1       4.901  33.112 -10.653  1.00  0.00     0.277 HD
ENDBRANCH   1   5
TORSDOF 1
ENDMDL
