MODEL 1
REMARK VINA RESULT: -3.987953490      0.000      0.000
REMARK  1 active torsions:
REMARK  status: ('A' for Active; 'I' for Inactive)
REMARK    1  A    between atoms: N1_1  and  C1_5 
ROOT
HETATM    1  C1  UNL     1       2.645  32.199 -10.738  1.00  0.00     0.192 A 
HETATM    2  C2  UNL     1       1.569  33.070 -10.436  1.00  0.00     0.022 A 
HETATM    3  C3  UNL     1       0.575  33.717 -11.399  1.00  0.00     0.007 C 
HETATM    4  C4  UNL     1       1.847  34.555 -11.665  1.00  0.00     0.007 C 
HETATM    5  C5  UNL     1       2.431  33.145 -11.770  1.00  0.00     0.022 A 
ENDROOT
BRANCH   1   6
HETATM    6  N1  UNL     1       3.921  32.285 -10.003  1.00  0.00    -0.074 N 
ATOM      7  H13 UNL     1       4.578  32.820 -10.571  1.00  0.00     0.274 HD
ATOM      8  H12 UNL     1       3.784  32.903  -9.204  1.00  0.00     0.274 HD
ATOM      9  H11 UNL     1       4.396  31.444  -9.676  1.00  0.00     0.274 HD
ENDBRANCH   1   6
TORSDOF 1
ENDMDL
MODEL 2
REMARK VINA RESULT: -3.881920297      1.591      2.327
REMARK  1 active torsions:
REMARK  status: ('A' for Active; 'I' for Inactive)
REMARK    1  A    between atoms: N1_1  and  C1_5 
ROOT
HETATM    1  C1  UNL     1       4.226  31.812 -11.738  1.00  0.00     0.192 A 
HETATM    2  C2  UNL     1       2.826  32.024 -11.758  1.00  0.00     0.022 A 
HETATM    3  C3  UNL     1       2.010  33.041 -10.962  1.00  0.00     0.007 C 
HETATM    4  C4  UNL     1       2.351  32.002  -9.869  1.00  0.00     0.007 C 
HETATM    5  C5  UNL     1       3.740  32.219 -10.472  1.00  0.00     0.022 A 
ENDROOT
BRANCH   1   6
HETATM    6  N1  UNL     1       4.791  30.453 -11.834  1.00  0.00    -0.074 N 
ATOM      7  H13 UNL     1       5.758  30.534 -12.150  1.00  0.00     0.274 HD
ATOM      8  H12 UNL     1       4.909  30.092 -10.888  1.00  0.00     0.274 HD
ATOM      9  H11 UNL     1       4.334  29.733 -12.394  1.00  0.00     0.274 HD
ENDBRANCH   1   6
TORSDOF 1
ENDMDL
MODEL 3
REMARK VINA RESULT: -3.872083323      6.471      7.288
REMARK  1 active torsions:
REMARK  status: ('A' for Active; 'I' for Inactive)
REMARK    1  A    between atoms: N1_1  and  C1_5 
ROOT
HETATM    1  C1  UNL     1      -0.826  39.926 -10.520  1.00  0.00     0.192 A 
HETATM    2  C2  UNL     1      -0.466  38.625 -10.090  1.00  0.00     0.022 A 
HETATM    3  C3  UNL     1      -1.384  37.449  -9.759  1.00  0.00     0.007 C 
HETATM    4  C4  UNL     1      -1.591  38.354  -8.522  1.00  0.00     0.007 C 
HETATM    5  C5  UNL     1      -1.791  39.380  -9.639  1.00  0.00     0.022 A 
ENDROOT
BRANCH   1   6
HETATM    6  N1  UNL     1      -0.085  41.112 -10.053  1.00  0.00    -0.074 N 
ATOM      7  H13 UNL     1      -0.728  41.696  -9.517  1.00  0.00     0.274 HD
ATOM      8  H12 UNL     1       0.573  40.812  -9.335  1.00  0.00     0.274 HD
ATOM      9  H11 UNL     1       0.414  41.712 -10.710  1.00  0.00     0.274 HD
ENDBRANCH   1   6
TORSDOF 1
ENDMDL
MODEL 4
REMARK VINA RESULT: -3.726376964      6.858      7.595
REMARK  1 active torsions:
REMARK  status: ('A' for Active; 'I' for Inactive)
REMARK    1  A    between atoms: N1_1  and  C1_5 
ROOT
HETATM    1  C1  UNL     1      -1.112  40.278  -9.436  1.00  0.00     0.192 A 
HETATM    2  C2  UNL     1      -1.864  39.264  -8.793  1.00  0.00     0.022 A 
HETATM    3  C3  UNL     1      -1.395  37.886  -8.330  1.00  0.00     0.007 C 
HETATM    4  C4  UNL     1      -1.473  37.682  -9.861  1.00  0.00     0.007 C 
HETATM    5  C5  UNL     1      -0.671  38.984  -9.806  1.00  0.00     0.022 A 
ENDROOT
BRANCH   1   6
HETATM    6  N1  UNL     1      -1.710  41.111 -10.496  1.00  0.00    -0.074 N 
ATOM      7  H13 UNL     1      -1.679  40.585 -11.369  1.00  0.00     0.274 HD
ATOM      8  H12 UNL     1      -2.713  41.170 -10.323  1.00  0.00     0.274 HD
ATOM      9  H11 UNL     1      -1.364  42.053 -10.681  1.00  0.00     0.274 HD
ENDBRANCH   1   6
TORSDOF 1
ENDMDL
MODEL 5
REMARK VINA RESULT: -3.643906634      1.846      2.926
REMARK  1 active torsions:
REMARK  status: ('A' for Active; 'I' for Inactive)
REMARK    1  A    between atoms: N1_1  and  C1_5 
ROOT
HETATM    1  C1  UNL     1       2.320  33.715 -12.074  1.00  0.00     0.192 A 
HETATM    2  C2  UNL     1       3.629  33.211 -11.881  1.00  0.00     0.022 A 
HETATM    3  C3  UNL     1       4.073  31.755 -11.742  1.00  0.00     0.007 C 
HETATM    4  C4  UNL     1       3.417  32.006 -10.365  1.00  0.00     0.007 C 
HETATM    5  C5  UNL     1       2.317  32.540 -11.284  1.00  0.00     0.022 A 
ENDROOT
BRANCH   1   6
HETATM    6  N1  UNL     1       1.883  34.963 -11.421  1.00  0.00    -0.074 N 
ATOM      7  H13 UNL     1       2.182  34.933 -10.446  1.00  0.00     0.274 HD
ATOM      8  H12 UNL     1       2.448  35.728 -11.790  1.00  0.00     0.274 HD
ATOM      9  H11 UNL     1       0.905  35.253 -11.443  1.00  0.00     0.274 HD
ENDBRANCH   1   6
TORSDOF 1
ENDMDL
