MODEL 1
REMARK VINA RESULT: -4.588811311      0.000      0.000
REMARK  1 active torsions:
REMARK  status: ('A' for Active; 'I' for Inactive)
REMARK    1  A    between atoms: O1_1  and  N1_3 
ROOT
HETATM    1  N1  UNL     1       2.213  33.836 -12.111  1.00  0.00    -0.247 N 
HETATM    2  C1  UNL     1       3.297  33.043 -12.059  1.00  0.00     0.122 A 
HETATM    3  C2  UNL     1       3.499  32.139 -11.051  1.00  0.00     0.020 A 
HETATM    4  C3  UNL     1       2.542  32.069 -10.080  1.00  0.00     0.003 A 
HETATM    5  C4  UNL     1       1.428  32.878 -10.124  1.00  0.00     0.020 A 
HETATM    6  C5  UNL     1       1.290  33.756 -11.159  1.00  0.00     0.122 A 
ENDROOT
BRANCH   1   7
HETATM    7  O1  UNL     1       2.091  34.726 -13.175  1.00  0.00    -0.284 OA
ATOM      8  H1  UNL     1       1.478  35.447 -13.095  1.00  0.00     0.245 HD
ENDBRANCH   1   7
TORSDOF 1
ENDMDL
MODEL 2
REMARK VINA RESULT: -4.584801875      0.045      1.776
REMARK  1 active torsions:
REMARK  status: ('A' for Active; 'I' for Inactive)
REMARK    1  A    between atoms: O1_1  and  N1_3 
ROOT
HETATM    1  N1  UNL     1       2.266  33.825 -12.140  1.00  0.00    -0.247 N 
HETATM    2  C1  UNL     1       1.339  33.736 -11.172  1.00  0.00     0.122 A 
HETATM    3  C2  UNL     1       1.452  32.864 -10.123  1.00  0.00     0.020 A 
HETATM    4  C3  UNL     1       2.562  32.070 -10.093  1.00  0.00     0.003 A 
HETATM    5  C4  UNL     1       3.518  32.154 -11.081  1.00  0.00     0.020 A 
HETATM    6  C5  UNL     1       3.342  33.046 -12.098  1.00  0.00     0.122 A 
ENDROOT
BRANCH   1   7
HETATM    7  O1  UNL     1       2.067  34.742 -13.169  1.00  0.00    -0.284 OA
ATOM      8  H1  UNL     1       2.581  35.541 -13.170  1.00  0.00     0.245 HD
ENDBRANCH   1   7
TORSDOF 1
ENDMDL
MODEL 3
REMARK VINA RESULT: -4.361368726      2.005      2.853
REMARK  1 active torsions:
REMARK  status: ('A' for Active; 'I' for Inactive)
REMARK    1  A    between atoms: O1_1  and  N1_3 
ROOT
HETATM    1  N1  UNL     1       3.261  32.248 -11.230  1.00  0.00    -0.247 N 
HETATM    2  C1  UNL     1       2.251  32.295 -10.346  1.00  0.00     0.122 A 
HETATM    3  C2  UNL     1       1.289  33.269 -10.378  1.00  0.00     0.020 A 
HETATM    4  C3  UNL     1       1.395  34.212 -11.359  1.00  0.00     0.003 A 
HETATM    5  C4  UNL     1       2.427  34.173 -12.270  1.00  0.00     0.020 A 
HETATM    6  C5  UNL     1       3.350  33.172 -12.180  1.00  0.00     0.122 A 
ENDROOT
BRANCH   1   7
HETATM    7  O1  UNL     1       4.193  31.220 -11.120  1.00  0.00    -0.284 OA
ATOM      8  H1  UNL     1       4.294  30.620 -11.850  1.00  0.00     0.245 HD
ENDBRANCH   1   7
TORSDOF 1
ENDMDL
MODEL 4
REMARK VINA RESULT: -4.349694554      2.023      2.511
REMARK  1 active torsions:
REMARK  status: ('A' for Active; 'I' for Inactive)
REMARK    1  A    between atoms: O1_1  and  N1_3 
ROOT
HETATM    1  N1  UNL     1       3.160  32.267 -11.140  1.00  0.00    -0.247 N 
HETATM    2  C1  UNL     1       3.356  33.178 -12.109  1.00  0.00     0.122 A 
HETATM    3  C2  UNL     1       2.504  34.230 -12.313  1.00  0.00     0.020 A 
HETATM    4  C3  UNL     1       1.426  34.325 -11.482  1.00  0.00     0.003 A 
HETATM    5  C4  UNL     1       1.216  33.397 -10.486  1.00  0.00     0.020 A 
HETATM    6  C5  UNL     1       2.106  32.373 -10.338  1.00  0.00     0.122 A 
ENDROOT
BRANCH   1   7
HETATM    7  O1  UNL     1       4.080  31.231 -11.007  1.00  0.00    -0.284 OA
ATOM      8  H1  UNL     1       4.993  31.450 -10.865  1.00  0.00     0.245 HD
ENDBRANCH   1   7
TORSDOF 1
ENDMDL
MODEL 5
REMARK VINA RESULT: -4.290454452      1.281      1.428
REMARK  1 active torsions:
REMARK  status: ('A' for Active; 'I' for Inactive)
REMARK    1  A    between atoms: O1_1  and  N1_3 
ROOT
HETATM    1  N1  UNL     1       3.552  33.788 -12.300  1.00  0.00    -0.247 N 
HETATM    2  C1  UNL     1       3.902  32.707 -11.582  1.00  0.00     0.122 A 
HETATM    3  C2  UNL     1       3.066  32.132 -10.663  1.00  0.00     0.020 A 
HETATM    4  C3  UNL     1       1.838  32.705 -10.497  1.00  0.00     0.003 A 
HETATM    5  C4  UNL     1       1.471  33.813 -11.229  1.00  0.00     0.020 A 
HETATM    6  C5  UNL     1       2.354  34.335 -12.128  1.00  0.00     0.122 A 
ENDROOT
BRANCH   1   7
HETATM    7  O1  UNL     1       4.468  34.305 -13.212  1.00  0.00    -0.284 OA
ATOM      8  H1  UNL     1       4.487  33.942 -14.090  1.00  0.00     0.245 HD
ENDBRANCH   1   7
TORSDOF 1
ENDMDL
