MODEL 1
REMARK VINA RESULT: -7.652941072      0.000      0.000
REMARK  17 active torsions:
REMARK  status: ('A' for Active; 'I' for Inactive)
REMARK    1  A    between atoms: C5_5  and  C6_6 
REMARK    2  A    between atoms: C6_6  and  N1_7 
REMARK    3  A    between atoms: N1_7  and  C7_9 
REMARK    4  A    between atoms: C7_9  and  C8_10 
REMARK    5  A    between atoms: C11_13  and  N2_14 
REMARK    6  A    between atoms: N2_14  and  C12_17 
REMARK    7  A    between atoms: C12_17  and  C13_18 
REMARK    8  A    between atoms: C13_18  and  C14_19 
REMARK    9  A    between atoms: C14_19  and  N3_20 
REMARK   10  A    between atoms: N3_20  and  C15_22 
REMARK   11  A    between atoms: C15_22  and  C16_23 
REMARK   12  A    between atoms: C16_23  and  C17_24 
REMARK   13  A    between atoms: C17_24  and  C18_25 
REMARK   14  A    between atoms: C18_25  and  N4_26 
REMARK   15  A    between atoms: N4_26  and  C19_28 
REMARK   16  A    between atoms: C19_28  and  C20_29 
REMARK   17  A    between atoms: C20_29  and  N5_30 
ROOT
HETATM    1  N2  UNL     1      -0.795  18.300  30.900  1.00  0.00    -0.071 N 
ATOM      2  H21 UNL     1      -1.321  17.801  31.618  1.00  0.00     0.277 HD
ATOM      3  H22 UNL     1      -0.445  19.083  31.450  1.00  0.00     0.277 HD
ENDROOT
BRANCH   1   4
HETATM    4  C11 UNL     1      -1.675  18.767  29.874  1.00  0.00     0.186 C 
HETATM    5  C10 UNL     1      -0.914  18.796  28.548  1.00  0.00     0.034 C 
HETATM    6  C9  UNL     1      -1.691  17.894  27.604  1.00  0.00     0.012 C 
HETATM    7  C8  UNL     1      -3.102  18.092  28.102  1.00  0.00     0.026 C 
HETATM    8  C21 UNL     1      -2.863  17.911  29.630  1.00  0.00     0.042 C 
BRANCH   7   9
HETATM    9  C7  UNL     1      -3.539  19.513  27.876  1.00  0.00     0.060 C 
BRANCH   9  10
HETATM   10  N1  UNL     1      -3.335  19.995  26.573  1.00  0.00    -0.396 N 
ATOM     11  H1  UNL     1      -2.886  19.422  25.859  1.00  0.00     0.159 HD
BRANCH  10  12
HETATM   12  C6  UNL     1      -3.783  21.315  26.291  1.00  0.00     0.183 C 
BRANCH  12  13
HETATM   13  C5  UNL     1      -3.030  22.237  27.228  1.00  0.00     0.070 A 
HETATM   14  C4  UNL     1      -1.706  22.248  27.553  1.00  0.00     0.037 A 
HETATM   15  C3  UNL     1      -1.544  23.295  28.451  1.00  0.00     0.035 A 
HETATM   16  C2  UNL     1      -2.776  23.868  28.626  1.00  0.00     0.049 A 
HETATM   17  C1  UNL     1      -3.145  25.037  29.494  1.00  0.00     0.076 C 
HETATM   18  O1  UNL     1      -3.636  23.221  27.890  1.00  0.00    -0.318 OA
ENDBRANCH  12  13
ENDBRANCH  10  12
ENDBRANCH   9  10
ENDBRANCH   7   9
ENDBRANCH   1   4
BRANCH   1  19
HETATM   19  C12 UNL     1       0.289  17.499  30.435  1.00  0.00     0.237 C 
BRANCH  19  20
HETATM   20  C13 UNL     1       0.154  16.055  30.811  1.00  0.00     0.072 C 
BRANCH  20  21
HETATM   21  C14 UNL     1       1.446  15.361  31.103  1.00  0.00     0.061 C 
BRANCH  21  22
HETATM   22  N3  UNL     1       2.368  15.977  31.940  1.00  0.00    -0.382 N 
ATOM     23  H3  UNL     1       3.133  16.498  31.511  1.00  0.00     0.163 HD
BRANCH  22  24
HETATM   24  C15 UNL     1       2.308  15.926  33.334  1.00  0.00     0.060 C 
BRANCH  24  25
HETATM   25  C16 UNL     1       1.549  17.010  34.037  1.00  0.00     0.046 C 
BRANCH  25  26
HETATM   26  C17 UNL     1       0.381  16.446  34.835  1.00  0.00     0.024 C 
BRANCH  26  27
HETATM   27  C18 UNL     1       0.316  14.927  34.619  1.00  0.00     0.114 C 
BRANCH  27  28
HETATM   28  N4  UNL     1       0.286  14.263  35.872  1.00  0.00    -0.420 N 
ATOM     29  H4  UNL     1      -0.583  13.847  36.206  1.00  0.00     0.153 HD
BRANCH  28  30
HETATM   30  C19 UNL     1       1.450  14.177  36.653  1.00  0.00     0.141 C 
BRANCH  30  31
HETATM   31  C20 UNL     1       1.083  14.578  38.095  1.00  0.00     0.248 C 
BRANCH  31  32
HETATM   32  N5  UNL     1       1.399  13.519  39.025  1.00  0.00    -0.078 N 
ATOM     33  H53 UNL     1       1.151  13.773  39.981  1.00  0.00     0.274 HD
ATOM     34  H52 UNL     1       0.776  12.720  38.910  1.00  0.00     0.274 HD
ATOM     35  H51 UNL     1       2.378  13.246  38.950  1.00  0.00     0.274 HD
ENDBRANCH  31  32
ENDBRANCH  30  31
ENDBRANCH  28  30
ENDBRANCH  27  28
ENDBRANCH  26  27
ENDBRANCH  25  26
ENDBRANCH  24  25
ENDBRANCH  22  24
ENDBRANCH  21  22
ENDBRANCH  20  21
ENDBRANCH  19  20
ENDBRANCH   1  19
TORSDOF 17
ENDMDL
MODEL 2
REMARK VINA RESULT: -7.612017192      1.108      1.362
REMARK  17 active torsions:
REMARK  status: ('A' for Active; 'I' for Inactive)
REMARK    1  A    between atoms: C5_5  and  C6_6 
REMARK    2  A    between atoms: C6_6  and  N1_7 
REMARK    3  A    between atoms: N1_7  and  C7_9 
REMARK    4  A    between atoms: C7_9  and  C8_10 
REMARK    5  A    between atoms: C11_13  and  N2_14 
REMARK    6  A    between atoms: N2_14  and  C12_17 
REMARK    7  A    between atoms: C12_17  and  C13_18 
REMARK    8  A    between atoms: C13_18  and  C14_19 
REMARK    9  A    between atoms: C14_19  and  N3_20 
REMARK   10  A    between atoms: N3_20  and  C15_22 
REMARK   11  A    between atoms: C15_22  and  C16_23 
REMARK   12  A    between atoms: C16_23  and  C17_24 
REMARK   13  A    between atoms: C17_24  and  C18_25 
REMARK   14  A    between atoms: C18_25  and  N4_26 
REMARK   15  A    between atoms: N4_26  and  C19_28 
REMARK   16  A    between atoms: C19_28  and  C20_29 
REMARK   17  A    between atoms: C20_29  and  N5_30 
ROOT
HETATM    1  N2  UNL     1      -0.634  18.113  30.753  1.00  0.00    -0.071 N 
ATOM      2  H21 UNL     1      -0.868  18.337  31.720  1.00  0.00     0.277 HD
ATOM      3  H22 UNL     1       0.278  18.564  30.683  1.00  0.00     0.277 HD
ENDROOT
BRANCH   1   4
HETATM    4  C11 UNL     1      -1.563  18.732  29.859  1.00  0.00     0.186 C 
HETATM    5  C10 UNL     1      -0.896  18.900  28.494  1.00  0.00     0.034 C 
HETATM    6  C9  UNL     1      -1.774  18.149  27.508  1.00  0.00     0.012 C 
HETATM    7  C8  UNL     1      -3.138  18.329  28.130  1.00  0.00     0.026 C 
HETATM    8  C21 UNL     1      -2.800  17.953  29.603  1.00  0.00     0.042 C 
BRANCH   7   9
HETATM    9  C7  UNL     1      -3.529  19.781  28.111  1.00  0.00     0.060 C 
BRANCH   9  10
HETATM   10  N1  UNL     1      -4.158  20.209  26.931  1.00  0.00    -0.396 N 
ATOM     11  H1  UNL     1      -5.061  19.833  26.644  1.00  0.00     0.159 HD
BRANCH  10  12
HETATM   12  C6  UNL     1      -3.482  21.190  26.154  1.00  0.00     0.183 C 
BRANCH  12  13
HETATM   13  C5  UNL     1      -2.872  22.173  27.133  1.00  0.00     0.070 A 
HETATM   14  C4  UNL     1      -1.579  22.292  27.549  1.00  0.00     0.037 A 
HETATM   15  C3  UNL     1      -1.565  23.351  28.447  1.00  0.00     0.035 A 
HETATM   16  C2  UNL     1      -2.849  23.824  28.531  1.00  0.00     0.049 A 
HETATM   17  C1  UNL     1      -3.369  24.962  29.361  1.00  0.00     0.076 C 
HETATM   18  O1  UNL     1      -3.600  23.107  27.743  1.00  0.00    -0.318 OA
ENDBRANCH  12  13
ENDBRANCH  10  12
ENDBRANCH   9  10
ENDBRANCH   7   9
ENDBRANCH   1   4
BRANCH   1  19
HETATM   19  C12 UNL     1      -0.502  16.702  30.590  1.00  0.00     0.237 C 
BRANCH  19  20
HETATM   20  C13 UNL     1       0.899  16.218  30.801  1.00  0.00     0.072 C 
BRANCH  20  21
HETATM   21  C14 UNL     1       1.006  14.860  31.418  1.00  0.00     0.061 C 
BRANCH  21  22
HETATM   22  N3  UNL     1       1.298  14.757  32.773  1.00  0.00    -0.382 N 
ATOM     23  H3  UNL     1       2.215  14.396  33.039  1.00  0.00     0.163 HD
BRANCH  22  24
HETATM   24  C15 UNL     1       0.412  15.117  33.789  1.00  0.00     0.060 C 
BRANCH  24  25
HETATM   25  C16 UNL     1       0.552  16.486  34.380  1.00  0.00     0.046 C 
BRANCH  25  26
HETATM   26  C17 UNL     1       1.998  16.964  34.349  1.00  0.00     0.024 C 
BRANCH  26  27
HETATM   27  C18 UNL     1       2.680  16.576  35.669  1.00  0.00     0.114 C 
BRANCH  27  28
HETATM   28  N4  UNL     1       3.602  15.522  35.444  1.00  0.00    -0.420 N 
ATOM     29  H4  UNL     1       4.361  15.645  34.775  1.00  0.00     0.153 HD
BRANCH  28  30
HETATM   30  C19 UNL     1       3.472  14.311  36.142  1.00  0.00     0.141 C 
BRANCH  30  31
HETATM   31  C20 UNL     1       2.235  14.421  37.055  1.00  0.00     0.248 C 
BRANCH  31  32
HETATM   32  N5  UNL     1       1.324  13.323  36.831  1.00  0.00    -0.078 N 
ATOM     33  H53 UNL     1       1.226  13.112  35.838  1.00  0.00     0.274 HD
ATOM     34  H52 UNL     1       1.722  12.436  37.139  1.00  0.00     0.274 HD
ATOM     35  H51 UNL     1       0.420  13.501  37.268  1.00  0.00     0.274 HD
ENDBRANCH  31  32
ENDBRANCH  30  31
ENDBRANCH  28  30
ENDBRANCH  27  28
ENDBRANCH  26  27
ENDBRANCH  25  26
ENDBRANCH  24  25
ENDBRANCH  22  24
ENDBRANCH  21  22
ENDBRANCH  20  21
ENDBRANCH  19  20
ENDBRANCH   1  19
TORSDOF 17
ENDMDL
MODEL 3
REMARK VINA RESULT: -7.444518344      1.145      1.524
REMARK  17 active torsions:
REMARK  status: ('A' for Active; 'I' for Inactive)
REMARK    1  A    between atoms: C5_5  and  C6_6 
REMARK    2  A    between atoms: C6_6  and  N1_7 
REMARK    3  A    between atoms: N1_7  and  C7_9 
REMARK    4  A    between atoms: C7_9  and  C8_10 
REMARK    5  A    between atoms: C11_13  and  N2_14 
REMARK    6  A    between atoms: N2_14  and  C12_17 
REMARK    7  A    between atoms: C12_17  and  C13_18 
REMARK    8  A    between atoms: C13_18  and  C14_19 
REMARK    9  A    between atoms: C14_19  and  N3_20 
REMARK   10  A    between atoms: N3_20  and  C15_22 
REMARK   11  A    between atoms: C15_22  and  C16_23 
REMARK   12  A    between atoms: C16_23  and  C17_24 
REMARK   13  A    between atoms: C17_24  and  C18_25 
REMARK   14  A    between atoms: C18_25  and  N4_26 
REMARK   15  A    between atoms: N4_26  and  C19_28 
REMARK   16  A    between atoms: C19_28  and  C20_29 
REMARK   17  A    between atoms: C20_29  and  N5_30 
ROOT
HETATM    1  N2  UNL     1      -0.183  17.888  30.036  1.00  0.00    -0.071 N 
ATOM      2  H21 UNL     1       0.709  18.293  29.753  1.00  0.00     0.277 HD
ATOM      3  H22 UNL     1      -0.072  16.944  29.668  1.00  0.00     0.277 HD
ENDROOT
BRANCH   1   4
HETATM    4  C11 UNL     1      -1.263  18.554  29.376  1.00  0.00     0.186 C 
HETATM    5  C10 UNL     1      -0.921  18.694  27.892  1.00  0.00     0.034 C 
HETATM    6  C9  UNL     1      -2.036  17.988  27.140  1.00  0.00     0.012 C 
HETATM    7  C8  UNL     1      -3.210  18.232  28.058  1.00  0.00     0.026 C 
HETATM    8  C21 UNL     1      -2.561  17.835  29.416  1.00  0.00     0.042 C 
BRANCH   7   9
HETATM    9  C7  UNL     1      -3.527  19.701  28.118  1.00  0.00     0.060 C 
BRANCH   9  10
HETATM   10  N1  UNL     1      -4.217  20.203  27.004  1.00  0.00    -0.396 N 
ATOM     11  H1  UNL     1      -5.156  19.878  26.770  1.00  0.00     0.159 HD
BRANCH  10  12
HETATM   12  C6  UNL     1      -3.554  21.184  26.216  1.00  0.00     0.183 C 
BRANCH  12  13
HETATM   13  C5  UNL     1      -2.924  22.164  27.184  1.00  0.00     0.070 A 
HETATM   14  C4  UNL     1      -1.631  22.254  27.606  1.00  0.00     0.037 A 
HETATM   15  C3  UNL     1      -1.594  23.325  28.489  1.00  0.00     0.035 A 
HETATM   16  C2  UNL     1      -2.865  23.832  28.560  1.00  0.00     0.049 A 
HETATM   17  C1  UNL     1      -3.360  24.995  29.372  1.00  0.00     0.076 C 
HETATM   18  O1  UNL     1      -3.630  23.124  27.778  1.00  0.00    -0.318 OA
ENDBRANCH  12  13
ENDBRANCH  10  12
ENDBRANCH   9  10
ENDBRANCH   7   9
ENDBRANCH   1   4
BRANCH   1  19
HETATM   19  C12 UNL     1      -0.284  17.857  31.458  1.00  0.00     0.237 C 
BRANCH  19  20
HETATM   20  C13 UNL     1       0.048  16.517  32.039  1.00  0.00     0.072 C 
BRANCH  20  21
HETATM   21  C14 UNL     1       0.821  15.616  31.131  1.00  0.00     0.061 C 
BRANCH  21  22
HETATM   22  N3  UNL     1       2.154  15.349  31.421  1.00  0.00    -0.382 N 
ATOM     23  H3  UNL     1       2.394  14.417  31.760  1.00  0.00     0.163 HD
BRANCH  22  24
HETATM   24  C15 UNL     1       3.183  16.280  31.275  1.00  0.00     0.060 C 
BRANCH  24  25
HETATM   25  C16 UNL     1       4.072  16.525  32.456  1.00  0.00     0.046 C 
BRANCH  25  26
HETATM   26  C17 UNL     1       3.280  17.027  33.657  1.00  0.00     0.024 C 
BRANCH  26  27
HETATM   27  C18 UNL     1       3.601  16.141  34.870  1.00  0.00     0.114 C 
BRANCH  27  28
HETATM   28  N4  UNL     1       2.752  15.006  34.877  1.00  0.00    -0.420 N 
ATOM     29  H4  UNL     1       3.130  14.086  34.652  1.00  0.00     0.153 HD
BRANCH  28  30
HETATM   30  C19 UNL     1       1.390  15.146  35.193  1.00  0.00     0.141 C 
BRANCH  30  31
HETATM   31  C20 UNL     1       1.204  14.743  36.669  1.00  0.00     0.248 C 
BRANCH  31  32
HETATM   32  N5  UNL     1       1.346  13.315  36.840  1.00  0.00    -0.078 N 
ATOM     33  H53 UNL     1       0.452  12.835  36.746  1.00  0.00     0.274 HD
ATOM     34  H52 UNL     1       1.835  12.889  36.052  1.00  0.00     0.274 HD
ATOM     35  H51 UNL     1       1.800  13.096  37.726  1.00  0.00     0.274 HD
ENDBRANCH  31  32
ENDBRANCH  30  31
ENDBRANCH  28  30
ENDBRANCH  27  28
ENDBRANCH  26  27
ENDBRANCH  25  26
ENDBRANCH  24  25
ENDBRANCH  22  24
ENDBRANCH  21  22
ENDBRANCH  20  21
ENDBRANCH  19  20
ENDBRANCH   1  19
TORSDOF 17
ENDMDL
MODEL 4
REMARK VINA RESULT: -7.295378051      2.659      4.067
REMARK  17 active torsions:
REMARK  status: ('A' for Active; 'I' for Inactive)
REMARK    1  A    between atoms: C5_5  and  C6_6 
REMARK    2  A    between atoms: C6_6  and  N1_7 
REMARK    3  A    between atoms: N1_7  and  C7_9 
REMARK    4  A    between atoms: C7_9  and  C8_10 
REMARK    5  A    between atoms: C11_13  and  N2_14 
REMARK    6  A    between atoms: N2_14  and  C12_17 
REMARK    7  A    between atoms: C12_17  and  C13_18 
REMARK    8  A    between atoms: C13_18  and  C14_19 
REMARK    9  A    between atoms: C14_19  and  N3_20 
REMARK   10  A    between atoms: N3_20  and  C15_22 
REMARK   11  A    between atoms: C15_22  and  C16_23 
REMARK   12  A    between atoms: C16_23  and  C17_24 
REMARK   13  A    between atoms: C17_24  and  C18_25 
REMARK   14  A    between atoms: C18_25  and  N4_26 
REMARK   15  A    between atoms: N4_26  and  C19_28 
REMARK   16  A    between atoms: C19_28  and  C20_29 
REMARK   17  A    between atoms: C20_29  and  N5_30 
ROOT
HETATM    1  N2  UNL     1      -3.347  19.560  29.734  1.00  0.00    -0.071 N 
ATOM      2  H21 UNL     1      -4.304  19.769  30.022  1.00  0.00     0.277 HD
ATOM      3  H22 UNL     1      -2.951  19.282  30.631  1.00  0.00     0.277 HD
ENDROOT
BRANCH   1   4
HETATM    4  C11 UNL     1      -2.704  20.743  29.253  1.00  0.00     0.186 C 
HETATM    5  C10 UNL     1      -2.851  20.799  27.731  1.00  0.00     0.034 C 
HETATM    6  C9  UNL     1      -3.565  22.107  27.432  1.00  0.00     0.012 C 
HETATM    7  C8  UNL     1      -3.058  22.983  28.552  1.00  0.00     0.026 C 
HETATM    8  C21 UNL     1      -3.278  22.017  29.753  1.00  0.00     0.042 C 
BRANCH   7   9
HETATM    9  C7  UNL     1      -1.577  23.202  28.411  1.00  0.00     0.060 C 
BRANCH   9  10
HETATM   10  N1  UNL     1      -1.147  24.516  28.652  1.00  0.00    -0.396 N 
ATOM     11  H1  UNL     1      -0.337  24.907  28.171  1.00  0.00     0.159 HD
BRANCH  10  12
HETATM   12  C6  UNL     1      -1.890  25.279  29.595  1.00  0.00     0.183 C 
BRANCH  12  13
HETATM   13  C5  UNL     1      -1.282  24.998  30.954  1.00  0.00     0.070 A 
HETATM   14  C4  UNL     1      -1.879  24.540  32.091  1.00  0.00     0.037 A 
HETATM   15  C3  UNL     1      -0.871  24.462  33.043  1.00  0.00     0.035 A 
HETATM   16  C2  UNL     1       0.287  24.876  32.438  1.00  0.00     0.049 A 
HETATM   17  C1  UNL     1       1.663  24.977  33.031  1.00  0.00     0.076 C 
HETATM   18  O1  UNL     1       0.012  25.188  31.203  1.00  0.00    -0.318 OA
ENDBRANCH  12  13
ENDBRANCH  10  12
ENDBRANCH   9  10
ENDBRANCH   7   9
ENDBRANCH   1   4
BRANCH   1  19
HETATM   19  C12 UNL     1      -3.333  18.463  28.824  1.00  0.00     0.237 C 
BRANCH  19  20
HETATM   20  C13 UNL     1      -2.375  17.384  29.225  1.00  0.00     0.072 C 
BRANCH  20  21
HETATM   21  C14 UNL     1      -0.936  17.697  28.966  1.00  0.00     0.061 C 
BRANCH  21  22
HETATM   22  N3  UNL     1      -0.047  17.716  30.034  1.00  0.00    -0.382 N 
ATOM     23  H3  UNL     1       0.931  17.495  29.849  1.00  0.00     0.163 HD
BRANCH  22  24
HETATM   24  C15 UNL     1      -0.415  18.019  31.346  1.00  0.00     0.060 C 
BRANCH  24  25
HETATM   25  C16 UNL     1       0.189  17.199  32.445  1.00  0.00     0.046 C 
BRANCH  25  26
HETATM   26  C17 UNL     1       0.291  15.731  32.055  1.00  0.00     0.024 C 
BRANCH  26  27
HETATM   27  C18 UNL     1       1.691  15.214  32.419  1.00  0.00     0.114 C 
BRANCH  27  28
HETATM   28  N4  UNL     1       1.659  14.586  33.689  1.00  0.00    -0.420 N 
ATOM     29  H4  UNL     1       1.260  13.652  33.785  1.00  0.00     0.153 HD
BRANCH  28  30
HETATM   30  C19 UNL     1       2.176  15.246  34.815  1.00  0.00     0.141 C 
BRANCH  30  31
HETATM   31  C20 UNL     1       1.226  14.976  35.999  1.00  0.00     0.248 C 
BRANCH  31  32
HETATM   32  N5  UNL     1       0.054  14.250  35.569  1.00  0.00    -0.078 N 
ATOM     33  H53 UNL     1      -0.796  14.797  35.701  1.00  0.00     0.274 HD
ATOM     34  H52 UNL     1       0.022  14.155  34.554  1.00  0.00     0.274 HD
ATOM     35  H51 UNL     1      -0.006  13.343  36.033  1.00  0.00     0.274 HD
ENDBRANCH  31  32
ENDBRANCH  30  31
ENDBRANCH  28  30
ENDBRANCH  27  28
ENDBRANCH  26  27
ENDBRANCH  25  26
ENDBRANCH  24  25
ENDBRANCH  22  24
ENDBRANCH  21  22
ENDBRANCH  20  21
ENDBRANCH  19  20
ENDBRANCH   1  19
TORSDOF 17
ENDMDL
MODEL 5
REMARK VINA RESULT: -7.253790764      1.368      1.867
REMARK  17 active torsions:
REMARK  status: ('A' for Active; 'I' for Inactive)
REMARK    1  A    between atoms: C5_5  and  C6_6 
REMARK    2  A    between atoms: C6_6  and  N1_7 
REMARK    3  A    between atoms: N1_7  and  C7_9 
REMARK    4  A    between atoms: C7_9  and  C8_10 
REMARK    5  A    between atoms: C11_13  and  N2_14 
REMARK    6  A    between atoms: N2_14  and  C12_17 
REMARK    7  A    between atoms: C12_17  and  C13_18 
REMARK    8  A    between atoms: C13_18  and  C14_19 
REMARK    9  A    between atoms: C14_19  and  N3_20 
REMARK   10  A    between atoms: N3_20  and  C15_22 
REMARK   11  A    between atoms: C15_22  and  C16_23 
REMARK   12  A    between atoms: C16_23  and  C17_24 
REMARK   13  A    between atoms: C17_24  and  C18_25 
REMARK   14  A    between atoms: C18_25  and  N4_26 
REMARK   15  A    between atoms: N4_26  and  C19_28 
REMARK   16  A    between atoms: C19_28  and  C20_29 
REMARK   17  A    between atoms: C20_29  and  N5_30 
ROOT
HETATM    1  N2  UNL     1      -0.715  17.937  31.117  1.00  0.00    -0.071 N 
ATOM      2  H21 UNL     1      -1.421  17.903  31.853  1.00  0.00     0.277 HD
ATOM      3  H22 UNL     1       0.000  18.492  31.586  1.00  0.00     0.277 HD
ENDROOT
BRANCH   1   4
HETATM    4  C11 UNL     1      -1.220  18.639  29.978  1.00  0.00     0.186 C 
HETATM    5  C10 UNL     1      -1.940  17.644  29.067  1.00  0.00     0.034 C 
HETATM    6  C9  UNL     1      -3.363  18.159  28.933  1.00  0.00     0.012 C 
HETATM    7  C8  UNL     1      -3.148  19.650  29.033  1.00  0.00     0.026 C 
HETATM    8  C21 UNL     1      -2.220  19.692  30.282  1.00  0.00     0.042 C 
BRANCH   7   9
HETATM    9  C7  UNL     1      -2.348  20.139  27.856  1.00  0.00     0.060 C 
BRANCH   9  10
HETATM   10  N1  UNL     1      -2.206  21.533  27.776  1.00  0.00    -0.396 N 
ATOM     11  H1  UNL     1      -1.300  21.965  27.593  1.00  0.00     0.159 HD
BRANCH  10  12
HETATM   12  C6  UNL     1      -3.378  22.317  27.961  1.00  0.00     0.183 C 
BRANCH  12  13
HETATM   13  C5  UNL     1      -3.006  23.435  28.914  1.00  0.00     0.070 A 
HETATM   14  C4  UNL     1      -3.150  24.782  28.766  1.00  0.00     0.037 A 
HETATM   15  C3  UNL     1      -2.648  25.347  29.931  1.00  0.00     0.035 A 
HETATM   16  C2  UNL     1      -2.225  24.316  30.728  1.00  0.00     0.049 A 
HETATM   17  C1  UNL     1      -1.605  24.389  32.094  1.00  0.00     0.076 C 
HETATM   18  O1  UNL     1      -2.448  23.197  30.100  1.00  0.00    -0.318 OA
ENDBRANCH  12  13
ENDBRANCH  10  12
ENDBRANCH   9  10
ENDBRANCH   7   9
ENDBRANCH   1   4
BRANCH   1  19
HETATM   19  C12 UNL     1      -0.225  16.627  30.841  1.00  0.00     0.237 C 
BRANCH  19  20
HETATM   20  C13 UNL     1       1.266  16.579  30.701  1.00  0.00     0.072 C 
BRANCH  20  21
HETATM   21  C14 UNL     1       1.905  15.341  31.245  1.00  0.00     0.061 C 
BRANCH  21  22
HETATM   22  N3  UNL     1       2.291  15.313  32.580  1.00  0.00    -0.382 N 
ATOM     23  H3  UNL     1       2.209  14.430  33.084  1.00  0.00     0.163 HD
BRANCH  22  24
HETATM   24  C15 UNL     1       2.783  16.421  33.270  1.00  0.00     0.060 C 
BRANCH  24  25
HETATM   25  C16 UNL     1       1.945  16.977  34.381  1.00  0.00     0.046 C 
BRANCH  25  26
HETATM   26  C17 UNL     1       0.560  16.347  34.406  1.00  0.00     0.024 C 
BRANCH  26  27
HETATM   27  C18 UNL     1       0.277  15.817  35.820  1.00  0.00     0.114 C 
BRANCH  27  28
HETATM   28  N4  UNL     1       0.636  14.449  35.903  1.00  0.00    -0.420 N 
ATOM     29  H4  UNL     1       0.440  13.822  35.123  1.00  0.00     0.153 HD
BRANCH  28  30
HETATM   30  C19 UNL     1       1.262  13.954  37.059  1.00  0.00     0.141 C 
BRANCH  30  31
HETATM   31  C20 UNL     1       2.735  14.407  37.030  1.00  0.00     0.248 C 
BRANCH  31  32
HETATM   32  N5  UNL     1       3.404  13.924  35.845  1.00  0.00    -0.078 N 
ATOM     33  H53 UNL     1       3.918  13.062  36.028  1.00  0.00     0.274 HD
ATOM     34  H52 UNL     1       2.740  13.565  35.158  1.00  0.00     0.274 HD
ATOM     35  H51 UNL     1       4.006  14.643  35.445  1.00  0.00     0.274 HD
ENDBRANCH  31  32
ENDBRANCH  30  31
ENDBRANCH  28  30
ENDBRANCH  27  28
ENDBRANCH  26  27
ENDBRANCH  25  26
ENDBRANCH  24  25
ENDBRANCH  22  24
ENDBRANCH  21  22
ENDBRANCH  20  21
ENDBRANCH  19  20
ENDBRANCH   1  19
TORSDOF 17
ENDMDL
