MODEL 1
REMARK VINA RESULT: -7.249291995      0.000      0.000
REMARK  17 active torsions:
REMARK  status: ('A' for Active; 'I' for Inactive)
REMARK    1  A    between atoms: C2_2  and  C3_6 
REMARK    2  A    between atoms: C3_6  and  C4_7 
REMARK    3  A    between atoms: C4_7  and  C5_9 
REMARK    4  A    between atoms: C5_9  and  C6_10 
REMARK    5  A    between atoms: C6_10  and  C7_11 
REMARK       I    between atoms: C7_11  and  N2_13 
REMARK    6  A    between atoms: N2_13  and  C8_15 
REMARK    7  A    between atoms: C8_15  and  C9_16 
REMARK    8  A    between atoms: C9_16  and  N3_17 
REMARK    9  A    between atoms: N3_17  and  C10_20 
REMARK   10  A    between atoms: C10_20  and  C11_21 
REMARK   11  A    between atoms: C11_21  and  N4_22 
REMARK   12  A    between atoms: N4_22  and  C12_25 
REMARK   13  A    between atoms: C12_25  and  C13_26 
REMARK   14  A    between atoms: C13_26  and  C14_27 
REMARK   15  A    between atoms: C14_27  and  C15_28 
REMARK   16  A    between atoms: C15_28  and  N5_29 
REMARK   17  A    between atoms: N5_29  and  C16_31 
ROOT
HETATM    1  N3  UNL     1       0.817  14.424  32.515  1.00  0.00    -0.072 N 
ATOM      2  H31 UNL     1      -0.171  14.621  32.358  1.00  0.00     0.277 HD
ATOM      3  H32 UNL     1       0.791  13.404  32.512  1.00  0.00     0.277 HD
ENDROOT
BRANCH   1   4
HETATM    4  C9  UNL     1       1.225  14.905  33.774  1.00  0.00     0.252 C 
BRANCH   4   5
HETATM    5  C8  UNL     1       0.140  14.924  34.779  1.00  0.00     0.150 C 
BRANCH   5   6
HETATM    6  N2  UNL     1       0.519  14.437  36.065  1.00  0.00    -0.359 N 
HETATM    7  C7  UNL     1       1.023  15.197  37.116  1.00  0.00     0.217 C 
HETATM    8  O2  UNL     1       1.262  16.403  37.167  1.00  0.00    -0.274 OA
ATOM      9  H2  UNL     1       0.410  13.437  36.229  1.00  0.00     0.162 HD
BRANCH   7  10
HETATM   10  C6  UNL     1       1.324  14.421  38.391  1.00  0.00     0.110 C 
BRANCH  10  11
HETATM   11  C5  UNL     1       2.509  15.059  39.041  1.00  0.00     0.088 C 
BRANCH  11  12
HETATM   12  C4  UNL     1       3.783  14.386  38.677  1.00  0.00     0.132 C 
HETATM   13  O1  UNL     1       3.942  13.224  39.020  1.00  0.00    -0.298 OA
BRANCH  12  14
HETATM   14  C3  UNL     1       4.803  15.151  37.915  1.00  0.00     0.129 C 
BRANCH  14  15
HETATM   15  C2  UNL     1       4.422  15.026  36.468  1.00  0.00    -0.017 C 
HETATM   16  C1  UNL     1       4.437  16.221  35.604  1.00  0.00     0.063 C 
HETATM   17  N1  UNL     1       4.093  13.866  36.029  1.00  0.00    -0.406 N 
ATOM     18  H12 UNL     1       3.833  13.781  35.045  1.00  0.00     0.155 HD
ATOM     19  H11 UNL     1       4.083  13.039  36.626  1.00  0.00     0.155 HD
ENDBRANCH  14  15
ENDBRANCH  12  14
ENDBRANCH  11  12
ENDBRANCH  10  11
ENDBRANCH   7  10
ENDBRANCH   5   6
ENDBRANCH   4   5
ENDBRANCH   1   4
BRANCH   1  20
HETATM   20  C10 UNL     1       1.619  14.918  31.406  1.00  0.00     0.259 C 
BRANCH  20  21
HETATM   21  C11 UNL     1       1.257  16.371  31.244  1.00  0.00     0.259 C 
BRANCH  21  22
HETATM   22  N4  UNL     1      -0.160  16.519  31.204  1.00  0.00    -0.074 N 
ATOM     23  H42 UNL     1      -0.582  15.840  30.570  1.00  0.00     0.277 HD
ATOM     24  H41 UNL     1      -0.586  16.214  32.079  1.00  0.00     0.277 HD
BRANCH  22  25
HETATM   25  C12 UNL     1      -0.561  17.849  30.874  1.00  0.00     0.232 C 
BRANCH  25  26
HETATM   26  C13 UNL     1      -0.607  17.990  29.376  1.00  0.00     0.029 C 
BRANCH  26  27
HETATM   27  C14 UNL     1      -1.813  17.264  28.841  1.00  0.00     0.021 C 
BRANCH  27  28
HETATM   28  C15 UNL     1      -2.429  18.073  27.731  1.00  0.00     0.120 C 
BRANCH  28  29
HETATM   29  N5  UNL     1      -3.476  18.896  28.290  1.00  0.00    -0.390 N 
ATOM     30  H5  UNL     1      -4.356  18.459  28.561  1.00  0.00     0.159 HD
BRANCH  29  31
HETATM   31  C16 UNL     1      -3.320  20.287  28.474  1.00  0.00     0.027 A 
HETATM   32  C17 UNL     1      -3.571  21.181  27.428  1.00  0.00     0.029 A 
HETATM   33  C18 UNL     1      -3.432  22.541  27.621  1.00  0.00     0.002 A 
HETATM   34  C19 UNL     1      -3.046  23.079  28.831  1.00  0.00     0.000 A 
HETATM   35  C20 UNL     1      -2.796  22.204  29.867  1.00  0.00     0.002 A 
HETATM   36  C21 UNL     1      -2.936  20.827  29.672  1.00  0.00     0.029 A 
ENDBRANCH  29  31
ENDBRANCH  28  29
ENDBRANCH  27  28
ENDBRANCH  26  27
ENDBRANCH  25  26
ENDBRANCH  22  25
ENDBRANCH  21  22
ENDBRANCH  20  21
ENDBRANCH   1  20
TORSDOF 17
ENDMDL
MODEL 2
REMARK VINA RESULT: -7.248719079      1.407      2.406
REMARK  17 active torsions:
REMARK  status: ('A' for Active; 'I' for Inactive)
REMARK    1  A    between atoms: C2_2  and  C3_6 
REMARK    2  A    between atoms: C3_6  and  C4_7 
REMARK    3  A    between atoms: C4_7  and  C5_9 
REMARK    4  A    between atoms: C5_9  and  C6_10 
REMARK    5  A    between atoms: C6_10  and  C7_11 
REMARK       I    between atoms: C7_11  and  N2_13 
REMARK    6  A    between atoms: N2_13  and  C8_15 
REMARK    7  A    between atoms: C8_15  and  C9_16 
REMARK    8  A    between atoms: C9_16  and  N3_17 
REMARK    9  A    between atoms: N3_17  and  C10_20 
REMARK   10  A    between atoms: C10_20  and  C11_21 
REMARK   11  A    between atoms: C11_21  and  N4_22 
REMARK   12  A    between atoms: N4_22  and  C12_25 
REMARK   13  A    between atoms: C12_25  and  C13_26 
REMARK   14  A    between atoms: C13_26  and  C14_27 
REMARK   15  A    between atoms: C14_27  and  C15_28 
REMARK   16  A    between atoms: C15_28  and  N5_29 
REMARK   17  A    between atoms: N5_29  and  C16_31 
ROOT
HETATM    1  N3  UNL     1       1.329  16.670  31.682  1.00  0.00    -0.072 N 
ATOM      2  H31 UNL     1       1.287  16.826  30.675  1.00  0.00     0.277 HD
ATOM      3  H32 UNL     1       2.158  17.219  31.908  1.00  0.00     0.277 HD
ENDROOT
BRANCH   1   4
HETATM    4  C9  UNL     1       1.546  15.307  31.964  1.00  0.00     0.252 C 
BRANCH   4   5
HETATM    5  C8  UNL     1       1.531  14.993  33.410  1.00  0.00     0.150 C 
BRANCH   5   6
HETATM    6  N2  UNL     1       2.657  15.486  34.132  1.00  0.00    -0.359 N 
HETATM    7  C7  UNL     1       2.633  16.466  35.121  1.00  0.00     0.217 C 
HETATM    8  O2  UNL     1       1.682  17.110  35.564  1.00  0.00    -0.274 OA
ATOM      9  H2  UNL     1       3.565  15.084  33.903  1.00  0.00     0.162 HD
BRANCH   7  10
HETATM   10  C6  UNL     1       3.983  16.787  35.748  1.00  0.00     0.110 C 
BRANCH  10  11
HETATM   11  C5  UNL     1       3.950  16.313  37.165  1.00  0.00     0.088 C 
BRANCH  11  12
HETATM   12  C4  UNL     1       3.911  14.831  37.264  1.00  0.00     0.132 C 
HETATM   13  O1  UNL     1       4.516  14.180  36.425  1.00  0.00    -0.298 OA
BRANCH  12  14
HETATM   14  C3  UNL     1       3.142  14.209  38.373  1.00  0.00     0.129 C 
BRANCH  14  15
HETATM   15  C2  UNL     1       1.715  14.157  37.911  1.00  0.00    -0.017 C 
HETATM   16  C1  UNL     1       0.708  15.020  38.557  1.00  0.00     0.063 C 
HETATM   17  N1  UNL     1       1.418  13.354  36.956  1.00  0.00    -0.406 N 
ATOM     18  H12 UNL     1       0.448  13.319  36.642  1.00  0.00     0.155 HD
ATOM     19  H11 UNL     1       2.115  12.757  36.508  1.00  0.00     0.155 HD
ENDBRANCH  14  15
ENDBRANCH  12  14
ENDBRANCH  11  12
ENDBRANCH  10  11
ENDBRANCH   7  10
ENDBRANCH   5   6
ENDBRANCH   4   5
ENDBRANCH   1   4
BRANCH   1  20
HETATM   20  C10 UNL     1       0.154  17.227  32.334  1.00  0.00     0.259 C 
BRANCH  20  21
HETATM   21  C11 UNL     1      -0.557  18.044  31.286  1.00  0.00     0.259 C 
BRANCH  21  22
HETATM   22  N4  UNL     1      -0.028  17.749  29.997  1.00  0.00    -0.074 N 
ATOM     23  H42 UNL     1       0.962  17.989  29.943  1.00  0.00     0.277 HD
ATOM     24  H41 UNL     1       0.039  16.742  29.849  1.00  0.00     0.277 HD
BRANCH  22  25
HETATM   25  C12 UNL     1      -0.767  18.375  28.947  1.00  0.00     0.232 C 
BRANCH  25  26
HETATM   26  C13 UNL     1      -1.682  17.358  28.318  1.00  0.00     0.029 C 
BRANCH  26  27
HETATM   27  C14 UNL     1      -2.673  18.060  27.428  1.00  0.00     0.021 C 
BRANCH  27  28
HETATM   28  C15 UNL     1      -3.584  18.911  28.271  1.00  0.00     0.120 C 
BRANCH  28  29
HETATM   29  N5  UNL     1      -3.634  20.236  27.698  1.00  0.00    -0.390 N 
ATOM     30  H5  UNL     1      -4.157  20.382  26.835  1.00  0.00     0.159 HD
BRANCH  29  31
HETATM   31  C16 UNL     1      -2.982  21.337  28.294  1.00  0.00     0.027 A 
HETATM   32  C17 UNL     1      -2.120  22.149  27.550  1.00  0.00     0.029 A 
HETATM   33  C18 UNL     1      -1.499  23.234  28.137  1.00  0.00     0.002 A 
HETATM   34  C19 UNL     1      -1.692  23.567  29.461  1.00  0.00     0.000 A 
HETATM   35  C20 UNL     1      -2.541  22.772  30.202  1.00  0.00     0.002 A 
HETATM   36  C21 UNL     1      -3.170  21.673  29.608  1.00  0.00     0.029 A 
ENDBRANCH  29  31
ENDBRANCH  28  29
ENDBRANCH  27  28
ENDBRANCH  26  27
ENDBRANCH  25  26
ENDBRANCH  22  25
ENDBRANCH  21  22
ENDBRANCH  20  21
ENDBRANCH   1  20
TORSDOF 17
ENDMDL
MODEL 3
REMARK VINA RESULT: -7.195283956      1.700      3.190
REMARK  17 active torsions:
REMARK  status: ('A' for Active; 'I' for Inactive)
REMARK    1  A    between atoms: C2_2  and  C3_6 
REMARK    2  A    between atoms: C3_6  and  C4_7 
REMARK    3  A    between atoms: C4_7  and  C5_9 
REMARK    4  A    between atoms: C5_9  and  C6_10 
REMARK    5  A    between atoms: C6_10  and  C7_11 
REMARK       I    between atoms: C7_11  and  N2_13 
REMARK    6  A    between atoms: N2_13  and  C8_15 
REMARK    7  A    between atoms: C8_15  and  C9_16 
REMARK    8  A    between atoms: C9_16  and  N3_17 
REMARK    9  A    between atoms: N3_17  and  C10_20 
REMARK   10  A    between atoms: C10_20  and  C11_21 
REMARK   11  A    between atoms: C11_21  and  N4_22 
REMARK   12  A    between atoms: N4_22  and  C12_25 
REMARK   13  A    between atoms: C12_25  and  C13_26 
REMARK   14  A    between atoms: C13_26  and  C14_27 
REMARK   15  A    between atoms: C14_27  and  C15_28 
REMARK   16  A    between atoms: C15_28  and  N5_29 
REMARK   17  A    between atoms: N5_29  and  C16_31 
ROOT
HETATM    1  N3  UNL     1       2.301  15.278  32.197  1.00  0.00    -0.072 N 
ATOM      2  H31 UNL     1       2.698  15.415  33.127  1.00  0.00     0.277 HD
ATOM      3  H32 UNL     1       2.546  14.298  32.049  1.00  0.00     0.277 HD
ENDROOT
BRANCH   1   4
HETATM    4  C9  UNL     1       2.951  16.098  31.255  1.00  0.00     0.252 C 
BRANCH   4   5
HETATM    5  C8  UNL     1       4.312  16.506  31.665  1.00  0.00     0.150 C 
BRANCH   5   6
HETATM    6  N2  UNL     1       4.668  16.124  32.992  1.00  0.00    -0.359 N 
HETATM    7  C7  UNL     1       4.840  16.981  34.076  1.00  0.00     0.217 C 
HETATM    8  O2  UNL     1       4.747  18.207  34.128  1.00  0.00    -0.274 OA
ATOM      9  H2  UNL     1       4.809  15.129  33.164  1.00  0.00     0.162 HD
BRANCH   7  10
HETATM   10  C6  UNL     1       5.198  16.300  35.390  1.00  0.00     0.110 C 
BRANCH  10  11
HETATM   11  C5  UNL     1       4.186  16.718  36.408  1.00  0.00     0.088 C 
BRANCH  11  12
HETATM   12  C4  UNL     1       2.848  16.127  36.148  1.00  0.00     0.132 C 
HETATM   13  O1  UNL     1       1.883  16.877  36.107  1.00  0.00    -0.298 OA
BRANCH  12  14
HETATM   14  C3  UNL     1       2.741  14.659  35.951  1.00  0.00     0.129 C 
BRANCH  14  15
HETATM   15  C2  UNL     1       1.519  14.226  36.708  1.00  0.00    -0.017 C 
HETATM   16  C1  UNL     1       1.623  13.921  38.147  1.00  0.00     0.063 C 
HETATM   17  N1  UNL     1       0.412  14.135  36.066  1.00  0.00    -0.406 N 
ATOM     18  H12 UNL     1      -0.419  13.841  36.581  1.00  0.00     0.155 HD
ATOM     19  H11 UNL     1       0.339  14.346  35.070  1.00  0.00     0.155 HD
ENDBRANCH  14  15
ENDBRANCH  12  14
ENDBRANCH  11  12
ENDBRANCH  10  11
ENDBRANCH   7  10
ENDBRANCH   5   6
ENDBRANCH   4   5
ENDBRANCH   1   4
BRANCH   1  20
HETATM   20  C10 UNL     1       0.857  15.445  32.228  1.00  0.00     0.259 C 
BRANCH  20  21
HETATM   21  C11 UNL     1       0.605  16.786  32.867  1.00  0.00     0.259 C 
BRANCH  21  22
HETATM   22  N4  UNL     1      -0.309  17.539  32.076  1.00  0.00    -0.074 N 
ATOM     23  H42 UNL     1      -1.159  17.750  32.598  1.00  0.00     0.277 HD
ATOM     24  H41 UNL     1       0.032  18.489  31.926  1.00  0.00     0.277 HD
BRANCH  22  25
HETATM   25  C12 UNL     1      -0.613  16.901  30.835  1.00  0.00     0.232 C 
BRANCH  25  26
HETATM   26  C13 UNL     1      -0.420  17.888  29.715  1.00  0.00     0.029 C 
BRANCH  26  27
HETATM   27  C14 UNL     1      -1.487  17.680  28.675  1.00  0.00     0.021 C 
BRANCH  27  28
HETATM   28  C15 UNL     1      -2.842  17.842  29.312  1.00  0.00     0.120 C 
BRANCH  28  29
HETATM   29  N5  UNL     1      -3.603  18.793  28.535  1.00  0.00    -0.390 N 
ATOM     30  H5  UNL     1      -4.340  18.451  27.919  1.00  0.00     0.159 HD
BRANCH  29  31
HETATM   31  C16 UNL     1      -3.359  20.182  28.601  1.00  0.00     0.027 A 
HETATM   32  C17 UNL     1      -2.982  20.787  29.804  1.00  0.00     0.029 A 
HETATM   33  C18 UNL     1      -2.729  22.144  29.856  1.00  0.00     0.002 A 
HETATM   34  C19 UNL     1      -2.832  22.957  28.747  1.00  0.00     0.000 A 
HETATM   35  C20 UNL     1      -3.203  22.367  27.557  1.00  0.00     0.002 A 
HETATM   36  C21 UNL     1      -3.460  20.994  27.503  1.00  0.00     0.029 A 
ENDBRANCH  29  31
ENDBRANCH  28  29
ENDBRANCH  27  28
ENDBRANCH  26  27
ENDBRANCH  25  26
ENDBRANCH  22  25
ENDBRANCH  21  22
ENDBRANCH  20  21
ENDBRANCH   1  20
TORSDOF 17
ENDMDL
MODEL 4
REMARK VINA RESULT: -7.137325826      1.617      2.244
REMARK  17 active torsions:
REMARK  status: ('A' for Active; 'I' for Inactive)
REMARK    1  A    between atoms: C2_2  and  C3_6 
REMARK    2  A    between atoms: C3_6  and  C4_7 
REMARK    3  A    between atoms: C4_7  and  C5_9 
REMARK    4  A    between atoms: C5_9  and  C6_10 
REMARK    5  A    between atoms: C6_10  and  C7_11 
REMARK       I    between atoms: C7_11  and  N2_13 
REMARK    6  A    between atoms: N2_13  and  C8_15 
REMARK    7  A    between atoms: C8_15  and  C9_16 
REMARK    8  A    between atoms: C9_16  and  N3_17 
REMARK    9  A    between atoms: N3_17  and  C10_20 
REMARK   10  A    between atoms: C10_20  and  C11_21 
REMARK   11  A    between atoms: C11_21  and  N4_22 
REMARK   12  A    between atoms: N4_22  and  C12_25 
REMARK   13  A    between atoms: C12_25  and  C13_26 
REMARK   14  A    between atoms: C13_26  and  C14_27 
REMARK   15  A    between atoms: C14_27  and  C15_28 
REMARK   16  A    between atoms: C15_28  and  N5_29 
REMARK   17  A    between atoms: N5_29  and  C16_31 
ROOT
HETATM    1  N3  UNL     1       1.642  16.543  31.869  1.00  0.00    -0.072 N 
ATOM      2  H31 UNL     1       2.602  16.886  31.828  1.00  0.00     0.277 HD
ATOM      3  H32 UNL     1       1.364  16.920  32.776  1.00  0.00     0.277 HD
ENDROOT
BRANCH   1   4
HETATM    4  C9  UNL     1       1.619  15.135  31.890  1.00  0.00     0.252 C 
BRANCH   4   5
HETATM    5  C8  UNL     1       0.645  14.574  32.851  1.00  0.00     0.150 C 
BRANCH   5   6
HETATM    6  N2  UNL     1       1.008  14.735  34.221  1.00  0.00    -0.359 N 
HETATM    7  C7  UNL     1       0.707  15.829  35.028  1.00  0.00     0.217 C 
HETATM    8  O2  UNL     1       0.104  16.865  34.750  1.00  0.00    -0.274 OA
ATOM      9  H2  UNL     1       1.537  13.977  34.650  1.00  0.00     0.162 HD
BRANCH   7  10
HETATM   10  C6  UNL     1       1.199  15.728  36.465  1.00  0.00     0.110 C 
BRANCH  10  11
HETATM   11  C5  UNL     1       1.466  14.286  36.754  1.00  0.00     0.088 C 
BRANCH  11  12
HETATM   12  C4  UNL     1       2.694  14.091  37.568  1.00  0.00     0.132 C 
HETATM   13  O1  UNL     1       3.775  14.119  37.000  1.00  0.00    -0.298 OA
BRANCH  12  14
HETATM   14  C3  UNL     1       2.554  13.873  39.031  1.00  0.00     0.129 C 
BRANCH  14  15
HETATM   15  C2  UNL     1       3.871  14.263  39.637  1.00  0.00    -0.017 C 
HETATM   16  C1  UNL     1       4.085  15.654  40.081  1.00  0.00     0.063 C 
HETATM   17  N1  UNL     1       4.775  13.360  39.750  1.00  0.00    -0.406 N 
ATOM     18  H12 UNL     1       5.670  13.626  40.162  1.00  0.00     0.155 HD
ATOM     19  H11 UNL     1       4.627  12.398  39.443  1.00  0.00     0.155 HD
ENDBRANCH  14  15
ENDBRANCH  12  14
ENDBRANCH  11  12
ENDBRANCH  10  11
ENDBRANCH   7  10
ENDBRANCH   5   6
ENDBRANCH   4   5
ENDBRANCH   1   4
BRANCH   1  20
HETATM   20  C10 UNL     1       0.844  17.130  30.805  1.00  0.00     0.259 C 
BRANCH  20  21
HETATM   21  C11 UNL     1      -0.248  17.914  31.486  1.00  0.00     0.259 C 
BRANCH  21  22
HETATM   22  N4  UNL     1      -1.242  18.291  30.537  1.00  0.00    -0.074 N 
ATOM     23  H42 UNL     1      -2.131  17.831  30.735  1.00  0.00     0.277 HD
ATOM     24  H41 UNL     1      -1.526  19.262  30.668  1.00  0.00     0.277 HD
BRANCH  22  25
HETATM   25  C12 UNL     1      -0.830  18.053  29.191  1.00  0.00     0.232 C 
BRANCH  25  26
HETATM   26  C13 UNL     1      -1.922  17.311  28.468  1.00  0.00     0.029 C 
BRANCH  26  27
HETATM   27  C14 UNL     1      -2.509  18.197  27.401  1.00  0.00     0.021 C 
BRANCH  27  28
HETATM   28  C15 UNL     1      -3.689  18.942  27.966  1.00  0.00     0.120 C 
BRANCH  28  29
HETATM   29  N5  UNL     1      -3.678  20.287  27.438  1.00  0.00    -0.390 N 
ATOM     30  H5  UNL     1      -3.954  20.439  26.468  1.00  0.00     0.159 HD
BRANCH  29  31
HETATM   31  C16 UNL     1      -3.298  21.397  28.222  1.00  0.00     0.027 A 
HETATM   32  C17 UNL     1      -3.342  22.694  27.697  1.00  0.00     0.029 A 
HETATM   33  C18 UNL     1      -2.984  23.776  28.476  1.00  0.00     0.002 A 
HETATM   34  C19 UNL     1      -2.573  23.639  29.786  1.00  0.00     0.000 A 
HETATM   35  C20 UNL     1      -2.527  22.365  30.310  1.00  0.00     0.002 A 
HETATM   36  C21 UNL     1      -2.889  21.268  29.522  1.00  0.00     0.029 A 
ENDBRANCH  29  31
ENDBRANCH  28  29
ENDBRANCH  27  28
ENDBRANCH  26  27
ENDBRANCH  25  26
ENDBRANCH  22  25
ENDBRANCH  21  22
ENDBRANCH  20  21
ENDBRANCH   1  20
TORSDOF 17
ENDMDL
MODEL 5
REMARK VINA RESULT: -6.986978892      3.364      6.847
REMARK  17 active torsions:
REMARK  status: ('A' for Active; 'I' for Inactive)
REMARK    1  A    between atoms: C2_2  and  C3_6 
REMARK    2  A    between atoms: C3_6  and  C4_7 
REMARK    3  A    between atoms: C4_7  and  C5_9 
REMARK    4  A    between atoms: C5_9  and  C6_10 
REMARK    5  A    between atoms: C6_10  and  C7_11 
REMARK       I    between atoms: C7_11  and  N2_13 
REMARK    6  A    between atoms: N2_13  and  C8_15 
REMARK    7  A    between atoms: C8_15  and  C9_16 
REMARK    8  A    between atoms: C9_16  and  N3_17 
REMARK    9  A    between atoms: N3_17  and  C10_20 
REMARK   10  A    between atoms: C10_20  and  C11_21 
REMARK   11  A    between atoms: C11_21  and  N4_22 
REMARK   12  A    between atoms: N4_22  and  C12_25 
REMARK   13  A    between atoms: C12_25  and  C13_26 
REMARK   14  A    between atoms: C13_26  and  C14_27 
REMARK   15  A    between atoms: C14_27  and  C15_28 
REMARK   16  A    between atoms: C15_28  and  N5_29 
REMARK   17  A    between atoms: N5_29  and  C16_31 
ROOT
HETATM    1  N3  UNL     1      -3.714  19.037  27.942  1.00  0.00    -0.072 N 
ATOM      2  H31 UNL     1      -4.051  19.391  28.837  1.00  0.00     0.277 HD
ATOM      3  H32 UNL     1      -4.604  18.801  27.504  1.00  0.00     0.277 HD
ENDROOT
BRANCH   1   4
HETATM    4  C9  UNL     1      -2.932  17.881  28.128  1.00  0.00     0.252 C 
BRANCH   4   5
HETATM    5  C8  UNL     1      -1.476  18.139  28.087  1.00  0.00     0.150 C 
BRANCH   5   6
HETATM    6  N2  UNL     1      -0.757  17.650  29.217  1.00  0.00    -0.359 N 
HETATM    7  C7  UNL     1      -0.810  18.165  30.509  1.00  0.00     0.217 C 
HETATM    8  O2  UNL     1      -1.446  19.124  30.946  1.00  0.00    -0.274 OA
ATOM      9  H2  UNL     1      -0.147  16.848  29.064  1.00  0.00     0.162 HD
BRANCH   7  10
HETATM   10  C6  UNL     1       0.045  17.432  31.534  1.00  0.00     0.110 C 
BRANCH  10  11
HETATM   11  C5  UNL     1       0.243  16.034  31.044  1.00  0.00     0.088 C 
BRANCH  11  12
HETATM   12  C4  UNL     1       0.856  15.156  32.075  1.00  0.00     0.132 C 
HETATM   13  O1  UNL     1       1.674  14.324  31.712  1.00  0.00    -0.298 OA
BRANCH  12  14
HETATM   14  C3  UNL     1       0.451  15.329  33.494  1.00  0.00     0.129 C 
BRANCH  14  15
HETATM   15  C2  UNL     1       1.726  15.453  34.277  1.00  0.00    -0.017 C 
HETATM   16  C1  UNL     1       2.380  16.770  34.401  1.00  0.00     0.063 C 
HETATM   17  N1  UNL     1       2.206  14.395  34.820  1.00  0.00    -0.406 N 
ATOM     18  H12 UNL     1       3.073  14.479  35.353  1.00  0.00     0.155 HD
ATOM     19  H11 UNL     1       1.754  13.484  34.735  1.00  0.00     0.155 HD
ENDBRANCH  14  15
ENDBRANCH  12  14
ENDBRANCH  11  12
ENDBRANCH  10  11
ENDBRANCH   7  10
ENDBRANCH   5   6
ENDBRANCH   4   5
ENDBRANCH   1   4
BRANCH   1  20
HETATM   20  C10 UNL     1      -3.041  20.090  27.198  1.00  0.00     0.259 C 
BRANCH  20  21
HETATM   21  C11 UNL     1      -4.132  20.940  26.598  1.00  0.00     0.259 C 
BRANCH  21  22
HETATM   22  N4  UNL     1      -3.887  22.315  26.877  1.00  0.00    -0.074 N 
ATOM     23  H42 UNL     1      -3.768  22.849  26.016  1.00  0.00     0.277 HD
ATOM     24  H41 UNL     1      -4.726  22.771  27.238  1.00  0.00     0.277 HD
BRANCH  22  25
HETATM   25  C12 UNL     1      -2.779  22.506  27.758  1.00  0.00     0.232 C 
BRANCH  25  26
HETATM   26  C13 UNL     1      -3.230  23.316  28.944  1.00  0.00     0.029 C 
BRANCH  26  27
HETATM   27  C14 UNL     1      -3.224  24.778  28.584  1.00  0.00     0.021 C 
BRANCH  27  28
HETATM   28  C15 UNL     1      -2.704  25.576  29.750  1.00  0.00     0.120 C 
BRANCH  28  29
HETATM   29  N5  UNL     1      -1.336  25.184  30.000  1.00  0.00    -0.390 N 
ATOM     30  H5  UNL     1      -0.707  25.056  29.209  1.00  0.00     0.159 HD
BRANCH  29  31
HETATM   31  C16 UNL     1      -0.844  24.973  31.306  1.00  0.00     0.027 A 
HETATM   32  C17 UNL     1       0.491  25.251  31.623  1.00  0.00     0.029 A 
HETATM   33  C18 UNL     1       0.960  25.057  32.907  1.00  0.00     0.002 A 
HETATM   34  C19 UNL     1       0.155  24.588  33.924  1.00  0.00     0.000 A 
HETATM   35  C20 UNL     1      -1.161  24.311  33.620  1.00  0.00     0.002 A 
HETATM   36  C21 UNL     1      -1.638  24.508  32.320  1.00  0.00     0.029 A 
ENDBRANCH  29  31
ENDBRANCH  28  29
ENDBRANCH  27  28
ENDBRANCH  26  27
ENDBRANCH  25  26
ENDBRANCH  22  25
ENDBRANCH  21  22
ENDBRANCH  20  21
ENDBRANCH   1  20
TORSDOF 17
ENDMDL
