MODEL 1
REMARK VINA RESULT: -6.888211193      0.000      0.000
REMARK  18 active torsions:
REMARK  status: ('A' for Active; 'I' for Inactive)
REMARK    1  A    between atoms: C4_4  and  N1_5 
REMARK    2  A    between atoms: N1_5  and  C5_7 
REMARK    3  A    between atoms: C5_7  and  C6_8 
REMARK    4  A    between atoms: C6_8  and  C7_9 
REMARK    5  A    between atoms: C7_9  and  N2_10 
REMARK    6  A    between atoms: N2_10  and  C8_12 
REMARK    7  A    between atoms: C8_12  and  C9_13 
REMARK    8  A    between atoms: C9_13  and  C10_14 
REMARK    9  A    between atoms: C10_14  and  N3_15 
REMARK   10  A    between atoms: N3_15  and  C11_18 
REMARK   11  A    between atoms: C11_18  and  C12_19 
REMARK   12  A    between atoms: C12_19  and  C13_20 
REMARK   13  A    between atoms: C13_20  and  N4_21 
REMARK   14  A    between atoms: N4_21  and  C14_24 
REMARK   15  A    between atoms: C14_24  and  C15_25 
REMARK   16  A    between atoms: C15_25  and  C16_26 
REMARK   17  A    between atoms: C16_26  and  N5_27 
REMARK   18  A    between atoms: N5_27  and  C17_30 
ROOT
HETATM    1  N3  UNL     1      -0.605  17.979  31.201  1.00  0.00    -0.072 N 
ATOM      2  H31 UNL     1      -0.928  18.048  32.166  1.00  0.00     0.277 HD
ATOM      3  H32 UNL     1       0.206  18.593  31.277  1.00  0.00     0.277 HD
ENDROOT
BRANCH   1   4
HETATM    4  C10 UNL     1      -1.574  18.469  30.266  1.00  0.00     0.261 C 
BRANCH   4   5
HETATM    5  C9  UNL     1      -2.139  17.484  29.337  1.00  0.00     0.017 C 
BRANCH   5   6
HETATM    6  C8  UNL     1      -2.293  17.732  27.909  1.00  0.00     0.080 C 
BRANCH   6   7
HETATM    7  N2  UNL     1      -2.555  18.929  27.253  1.00  0.00    -0.399 N 
ATOM      8  H2  UNL     1      -1.872  19.327  26.609  1.00  0.00     0.158 HD
BRANCH   7   9
HETATM    9  C7  UNL     1      -3.794  19.590  27.493  1.00  0.00     0.124 C 
BRANCH   9  10
HETATM   10  C6  UNL     1      -3.946  20.700  26.418  1.00  0.00     0.063 C 
BRANCH  10  11
HETATM   11  C5  UNL     1      -3.716  22.040  27.012  1.00  0.00     0.057 C 
BRANCH  11  12
HETATM   12  N1  UNL     1      -3.557  22.161  28.381  1.00  0.00    -0.398 N 
ATOM     13  H1  UNL     1      -4.340  21.848  28.954  1.00  0.00     0.159 HD
BRANCH  12  14
HETATM   14  C4  UNL     1      -2.454  22.661  29.068  1.00  0.00     0.080 C 
HETATM   15  C3  UNL     1      -2.790  23.820  29.965  1.00  0.00     0.025 C 
HETATM   16  C2  UNL     1      -2.737  25.126  29.162  1.00  0.00     0.002 C 
HETATM   17  C1  UNL     1      -1.274  25.430  28.943  1.00  0.00     0.000 C 
HETATM   18  C22 UNL     1      -0.529  24.183  28.527  1.00  0.00     0.002 C 
HETATM   19  C21 UNL     1      -1.408  23.075  28.030  1.00  0.00     0.025 C 
ENDBRANCH  12  14
ENDBRANCH  11  12
ENDBRANCH  10  11
ENDBRANCH   9  10
ENDBRANCH   7   9
ENDBRANCH   6   7
ENDBRANCH   5   6
ENDBRANCH   4   5
ENDBRANCH   1   4
BRANCH   1  20
HETATM   20  C11 UNL     1      -0.232  16.604  30.831  1.00  0.00     0.234 C 
BRANCH  20  21
HETATM   21  C12 UNL     1       1.262  16.422  30.800  1.00  0.00     0.055 C 
BRANCH  21  22
HETATM   22  C13 UNL     1       1.652  15.033  31.297  1.00  0.00     0.233 C 
BRANCH  22  23
HETATM   23  N4  UNL     1       1.948  15.106  32.717  1.00  0.00    -0.075 N 
ATOM     24  H42 UNL     1       1.107  14.922  33.265  1.00  0.00     0.277 HD
ATOM     25  H41 UNL     1       2.521  14.312  33.002  1.00  0.00     0.277 HD
BRANCH  23  26
HETATM   26  C14 UNL     1       2.554  16.335  33.133  1.00  0.00     0.233 C 
BRANCH  26  27
HETATM   27  C15 UNL     1       1.897  16.922  34.367  1.00  0.00     0.055 C 
BRANCH  27  28
HETATM   28  C16 UNL     1       0.460  16.447  34.492  1.00  0.00     0.234 C 
BRANCH  28  29
HETATM   29  N5  UNL     1       0.211  15.766  35.729  1.00  0.00    -0.071 N 
ATOM     30  H52 UNL     1      -0.497  16.258  36.274  1.00  0.00     0.277 HD
ATOM     31  H51 UNL     1      -0.280  14.887  35.563  1.00  0.00     0.277 HD
BRANCH  29  32
HETATM   32  C17 UNL     1       1.407  15.539  36.529  1.00  0.00     0.185 A 
HETATM   33  C18 UNL     1       1.700  14.066  36.787  1.00  0.00     0.033 A 
HETATM   34  C19 UNL     1       1.464  14.232  38.267  1.00  0.00     0.004 A 
HETATM   35  C20 UNL     1       1.128  15.678  38.012  1.00  0.00     0.033 A 
ENDBRANCH  29  32
ENDBRANCH  28  29
ENDBRANCH  27  28
ENDBRANCH  26  27
ENDBRANCH  23  26
ENDBRANCH  22  23
ENDBRANCH  21  22
ENDBRANCH  20  21
ENDBRANCH   1  20
TORSDOF 18
ENDMDL
MODEL 2
REMARK VINA RESULT: -6.856901737      0.944      1.227
REMARK  18 active torsions:
REMARK  status: ('A' for Active; 'I' for Inactive)
REMARK    1  A    between atoms: C4_4  and  N1_5 
REMARK    2  A    between atoms: N1_5  and  C5_7 
REMARK    3  A    between atoms: C5_7  and  C6_8 
REMARK    4  A    between atoms: C6_8  and  C7_9 
REMARK    5  A    between atoms: C7_9  and  N2_10 
REMARK    6  A    between atoms: N2_10  and  C8_12 
REMARK    7  A    between atoms: C8_12  and  C9_13 
REMARK    8  A    between atoms: C9_13  and  C10_14 
REMARK    9  A    between atoms: C10_14  and  N3_15 
REMARK   10  A    between atoms: N3_15  and  C11_18 
REMARK   11  A    between atoms: C11_18  and  C12_19 
REMARK   12  A    between atoms: C12_19  and  C13_20 
REMARK   13  A    between atoms: C13_20  and  N4_21 
REMARK   14  A    between atoms: N4_21  and  C14_24 
REMARK   15  A    between atoms: C14_24  and  C15_25 
REMARK   16  A    between atoms: C15_25  and  C16_26 
REMARK   17  A    between atoms: C16_26  and  N5_27 
REMARK   18  A    between atoms: N5_27  and  C17_30 
ROOT
HETATM    1  N3  UNL     1      -0.450  17.938  31.357  1.00  0.00    -0.072 N 
ATOM      2  H31 UNL     1      -0.790  18.036  32.314  1.00  0.00     0.277 HD
ATOM      3  H32 UNL     1       0.349  18.569  31.423  1.00  0.00     0.277 HD
ENDROOT
BRANCH   1   4
HETATM    4  C10 UNL     1      -1.413  18.376  30.390  1.00  0.00     0.261 C 
BRANCH   4   5
HETATM    5  C9  UNL     1      -1.972  17.342  29.513  1.00  0.00     0.017 C 
BRANCH   5   6
HETATM    6  C8  UNL     1      -2.201  17.544  28.087  1.00  0.00     0.080 C 
BRANCH   6   7
HETATM    7  N2  UNL     1      -2.541  18.711  27.414  1.00  0.00    -0.399 N 
ATOM      8  H2  UNL     1      -1.936  19.082  26.681  1.00  0.00     0.158 HD
BRANCH   7   9
HETATM    9  C7  UNL     1      -3.749  19.382  27.762  1.00  0.00     0.124 C 
BRANCH   9  10
HETATM   10  C6  UNL     1      -3.934  20.557  26.764  1.00  0.00     0.063 C 
BRANCH  10  11
HETATM   11  C5  UNL     1      -2.969  21.646  27.051  1.00  0.00     0.057 C 
BRANCH  11  12
HETATM   12  N1  UNL     1      -3.436  22.884  27.454  1.00  0.00    -0.398 N 
ATOM     13  H1  UNL     1      -3.744  23.512  26.710  1.00  0.00     0.159 HD
BRANCH  12  14
HETATM   14  C4  UNL     1      -3.535  23.375  28.753  1.00  0.00     0.080 C 
HETATM   15  C3  UNL     1      -3.198  24.836  28.861  1.00  0.00     0.025 C 
HETATM   16  C2  UNL     1      -1.684  25.004  29.037  1.00  0.00     0.002 C 
HETATM   17  C1  UNL     1      -1.374  24.597  30.457  1.00  0.00     0.000 C 
HETATM   18  C22 UNL     1      -2.102  23.323  30.815  1.00  0.00     0.002 C 
HETATM   19  C21 UNL     1      -2.601  22.544  29.636  1.00  0.00     0.025 C 
ENDBRANCH  12  14
ENDBRANCH  11  12
ENDBRANCH  10  11
ENDBRANCH   9  10
ENDBRANCH   7   9
ENDBRANCH   6   7
ENDBRANCH   5   6
ENDBRANCH   4   5
ENDBRANCH   1   4
BRANCH   1  20
HETATM   20  C11 UNL     1      -0.048  16.557  31.044  1.00  0.00     0.234 C 
BRANCH  20  21
HETATM   21  C12 UNL     1       1.444  16.380  31.134  1.00  0.00     0.055 C 
BRANCH  21  22
HETATM   22  C13 UNL     1       1.801  14.935  31.475  1.00  0.00     0.233 C 
BRANCH  22  23
HETATM   23  N4  UNL     1       1.542  14.707  32.886  1.00  0.00    -0.075 N 
ATOM     24  H42 UNL     1       0.541  14.593  33.050  1.00  0.00     0.277 HD
ATOM     25  H41 UNL     1       1.871  13.781  33.163  1.00  0.00     0.277 HD
BRANCH  23  26
HETATM   26  C14 UNL     1       2.080  15.708  33.757  1.00  0.00     0.233 C 
BRANCH  26  27
HETATM   27  C15 UNL     1       1.262  15.882  35.022  1.00  0.00     0.055 C 
BRANCH  27  28
HETATM   28  C16 UNL     1       0.328  14.702  35.229  1.00  0.00     0.234 C 
BRANCH  28  29
HETATM   29  N5  UNL     1       0.512  14.073  36.504  1.00  0.00    -0.071 N 
ATOM     30  H52 UNL     1      -0.385  13.928  36.966  1.00  0.00     0.277 HD
ATOM     31  H51 UNL     1       0.803  13.102  36.387  1.00  0.00     0.277 HD
BRANCH  29  32
HETATM   32  C17 UNL     1       1.433  14.780  37.384  1.00  0.00     0.185 A 
HETATM   33  C18 UNL     1       2.315  13.856  38.215  1.00  0.00     0.033 A 
HETATM   34  C19 UNL     1       1.671  14.321  39.497  1.00  0.00     0.004 A 
HETATM   35  C20 UNL     1       0.766  15.202  38.677  1.00  0.00     0.033 A 
ENDBRANCH  29  32
ENDBRANCH  28  29
ENDBRANCH  27  28
ENDBRANCH  26  27
ENDBRANCH  23  26
ENDBRANCH  22  23
ENDBRANCH  21  22
ENDBRANCH  20  21
ENDBRANCH   1  20
TORSDOF 18
ENDMDL
MODEL 3
REMARK VINA RESULT: -6.820936392      1.348      1.838
REMARK  18 active torsions:
REMARK  status: ('A' for Active; 'I' for Inactive)
REMARK    1  A    between atoms: C4_4  and  N1_5 
REMARK    2  A    between atoms: N1_5  and  C5_7 
REMARK    3  A    between atoms: C5_7  and  C6_8 
REMARK    4  A    between atoms: C6_8  and  C7_9 
REMARK    5  A    between atoms: C7_9  and  N2_10 
REMARK    6  A    between atoms: N2_10  and  C8_12 
REMARK    7  A    between atoms: C8_12  and  C9_13 
REMARK    8  A    between atoms: C9_13  and  C10_14 
REMARK    9  A    between atoms: C10_14  and  N3_15 
REMARK   10  A    between atoms: N3_15  and  C11_18 
REMARK   11  A    between atoms: C11_18  and  C12_19 
REMARK   12  A    between atoms: C12_19  and  C13_20 
REMARK   13  A    between atoms: C13_20  and  N4_21 
REMARK   14  A    between atoms: N4_21  and  C14_24 
REMARK   15  A    between atoms: C14_24  and  C15_25 
REMARK   16  A    between atoms: C15_25  and  C16_26 
REMARK   17  A    between atoms: C16_26  and  N5_27 
REMARK   18  A    between atoms: N5_27  and  C17_30 
ROOT
HETATM    1  N3  UNL     1       0.229  17.430  31.773  1.00  0.00    -0.072 N 
ATOM      2  H31 UNL     1      -0.280  16.875  32.461  1.00  0.00     0.277 HD
ATOM      3  H32 UNL     1       0.782  17.991  32.422  1.00  0.00     0.277 HD
ENDROOT
BRANCH   1   4
HETATM    4  C10 UNL     1      -0.643  18.231  30.967  1.00  0.00     0.261 C 
BRANCH   4   5
HETATM    5  C9  UNL     1      -1.090  17.637  29.702  1.00  0.00     0.017 C 
BRANCH   5   6
HETATM    6  C8  UNL     1      -2.493  17.535  29.320  1.00  0.00     0.080 C 
BRANCH   6   7
HETATM    7  N2  UNL     1      -3.479  18.515  29.343  1.00  0.00    -0.399 N 
ATOM      8  H2  UNL     1      -3.809  18.898  30.229  1.00  0.00     0.158 HD
BRANCH   7   9
HETATM    9  C7  UNL     1      -4.020  18.978  28.109  1.00  0.00     0.124 C 
BRANCH   9  10
HETATM   10  C6  UNL     1      -2.928  19.835  27.412  1.00  0.00     0.063 C 
BRANCH  10  11
HETATM   11  C5  UNL     1      -3.537  20.995  26.717  1.00  0.00     0.057 C 
BRANCH  11  12
HETATM   12  N1  UNL     1      -3.417  22.259  27.265  1.00  0.00    -0.398 N 
ATOM     13  H1  UNL     1      -3.897  23.011  26.771  1.00  0.00     0.159 HD
BRANCH  12  14
HETATM   14  C4  UNL     1      -2.717  22.626  28.411  1.00  0.00     0.080 C 
HETATM   15  C3  UNL     1      -3.450  23.631  29.256  1.00  0.00     0.025 C 
HETATM   16  C2  UNL     1      -3.142  25.048  28.754  1.00  0.00     0.002 C 
HETATM   17  C1  UNL     1      -1.735  25.361  29.203  1.00  0.00     0.000 C 
HETATM   18  C22 UNL     1      -0.821  24.187  28.944  1.00  0.00     0.002 C 
HETATM   19  C21 UNL     1      -1.362  23.186  27.969  1.00  0.00     0.025 C 
ENDBRANCH  12  14
ENDBRANCH  11  12
ENDBRANCH  10  11
ENDBRANCH   9  10
ENDBRANCH   7   9
ENDBRANCH   6   7
ENDBRANCH   5   6
ENDBRANCH   4   5
ENDBRANCH   1   4
BRANCH   1  20
HETATM   20  C11 UNL     1       1.070  16.600  30.895  1.00  0.00     0.234 C 
BRANCH  20  21
HETATM   21  C12 UNL     1       0.932  15.136  31.215  1.00  0.00     0.055 C 
BRANCH  21  22
HETATM   22  C13 UNL     1       0.544  14.933  32.677  1.00  0.00     0.233 C 
BRANCH  22  23
HETATM   23  N4  UNL     1       1.726  14.547  33.429  1.00  0.00    -0.075 N 
ATOM     24  H42 UNL     1       1.704  13.549  33.638  1.00  0.00     0.277 HD
ATOM     25  H41 UNL     1       2.554  14.584  32.833  1.00  0.00     0.277 HD
BRANCH  23  26
HETATM   26  C14 UNL     1       1.940  15.303  34.626  1.00  0.00     0.233 C 
BRANCH  26  27
HETATM   27  C15 UNL     1       2.395  14.441  35.787  1.00  0.00     0.055 C 
BRANCH  27  28
HETATM   28  C16 UNL     1       1.265  14.231  36.781  1.00  0.00     0.234 C 
BRANCH  28  29
HETATM   29  N5  UNL     1       1.667  13.446  37.912  1.00  0.00    -0.071 N 
ATOM     30  H52 UNL     1       0.878  12.913  38.277  1.00  0.00     0.277 HD
ATOM     31  H51 UNL     1       2.272  12.679  37.620  1.00  0.00     0.277 HD
BRANCH  29  32
HETATM   32  C17 UNL     1       2.298  14.220  38.973  1.00  0.00     0.185 A 
HETATM   33  C18 UNL     1       1.638  14.042  40.335  1.00  0.00     0.033 A 
HETATM   34  C19 UNL     1       1.197  15.484  40.359  1.00  0.00     0.004 A 
HETATM   35  C20 UNL     1       1.807  15.653  38.993  1.00  0.00     0.033 A 
ENDBRANCH  29  32
ENDBRANCH  28  29
ENDBRANCH  27  28
ENDBRANCH  26  27
ENDBRANCH  23  26
ENDBRANCH  22  23
ENDBRANCH  21  22
ENDBRANCH  20  21
ENDBRANCH   1  20
TORSDOF 18
ENDMDL
MODEL 4
REMARK VINA RESULT: -6.571127107      1.539      2.271
REMARK  18 active torsions:
REMARK  status: ('A' for Active; 'I' for Inactive)
REMARK    1  A    between atoms: C4_4  and  N1_5 
REMARK    2  A    between atoms: N1_5  and  C5_7 
REMARK    3  A    between atoms: C5_7  and  C6_8 
REMARK    4  A    between atoms: C6_8  and  C7_9 
REMARK    5  A    between atoms: C7_9  and  N2_10 
REMARK    6  A    between atoms: N2_10  and  C8_12 
REMARK    7  A    between atoms: C8_12  and  C9_13 
REMARK    8  A    between atoms: C9_13  and  C10_14 
REMARK    9  A    between atoms: C10_14  and  N3_15 
REMARK   10  A    between atoms: N3_15  and  C11_18 
REMARK   11  A    between atoms: C11_18  and  C12_19 
REMARK   12  A    between atoms: C12_19  and  C13_20 
REMARK   13  A    between atoms: C13_20  and  N4_21 
REMARK   14  A    between atoms: N4_21  and  C14_24 
REMARK   15  A    between atoms: C14_24  and  C15_25 
REMARK   16  A    between atoms: C15_25  and  C16_26 
REMARK   17  A    between atoms: C16_26  and  N5_27 
REMARK   18  A    between atoms: N5_27  and  C17_30 
ROOT
HETATM    1  N3  UNL     1       1.147  16.666  30.801  1.00  0.00    -0.072 N 
ATOM      2  H31 UNL     1       1.491  17.349  31.477  1.00  0.00     0.277 HD
ATOM      3  H32 UNL     1       1.735  16.937  30.013  1.00  0.00     0.277 HD
ENDROOT
BRANCH   1   4
HETATM    4  C10 UNL     1      -0.249  16.831  30.522  1.00  0.00     0.261 C 
BRANCH   4   5
HETATM    5  C9  UNL     1      -0.875  18.055  31.034  1.00  0.00     0.017 C 
BRANCH   5   6
HETATM    6  C8  UNL     1      -1.732  18.912  30.224  1.00  0.00     0.080 C 
BRANCH   6   7
HETATM    7  N2  UNL     1      -3.115  18.887  30.087  1.00  0.00    -0.399 N 
ATOM      8  H2  UNL     1      -3.718  18.973  30.905  1.00  0.00     0.158 HD
BRANCH   7   9
HETATM    9  C7  UNL     1      -3.677  18.740  28.786  1.00  0.00     0.124 C 
BRANCH   9  10
HETATM   10  C6  UNL     1      -2.683  19.373  27.774  1.00  0.00     0.063 C 
BRANCH  10  11
HETATM   11  C5  UNL     1      -3.343  20.449  26.995  1.00  0.00     0.057 C 
BRANCH  11  12
HETATM   12  N1  UNL     1      -3.092  21.772  27.311  1.00  0.00    -0.398 N 
ATOM     13  H1  UNL     1      -3.497  22.469  26.685  1.00  0.00     0.159 HD
BRANCH  12  14
HETATM   14  C4  UNL     1      -2.352  22.265  28.383  1.00  0.00     0.080 C 
HETATM   15  C3  UNL     1      -3.167  23.102  29.329  1.00  0.00     0.025 C 
HETATM   16  C2  UNL     1      -3.202  24.553  28.835  1.00  0.00     0.002 C 
HETATM   17  C1  UNL     1      -1.841  25.137  29.135  1.00  0.00     0.000 C 
HETATM   18  C22 UNL     1      -0.751  24.167  28.746  1.00  0.00     0.002 C 
HETATM   19  C21 UNL     1      -1.192  23.083  27.810  1.00  0.00     0.025 C 
ENDBRANCH  12  14
ENDBRANCH  11  12
ENDBRANCH  10  11
ENDBRANCH   9  10
ENDBRANCH   7   9
ENDBRANCH   6   7
ENDBRANCH   5   6
ENDBRANCH   4   5
ENDBRANCH   1   4
BRANCH   1  20
HETATM   20  C11 UNL     1       1.392  15.280  31.231  1.00  0.00     0.234 C 
BRANCH  20  21
HETATM   21  C12 UNL     1       0.401  14.839  32.275  1.00  0.00     0.055 C 
BRANCH  21  22
HETATM   22  C13 UNL     1       0.809  15.340  33.658  1.00  0.00     0.233 C 
BRANCH  22  23
HETATM   23  N4  UNL     1       1.971  14.593  34.106  1.00  0.00    -0.075 N 
ATOM     24  H42 UNL     1       1.891  13.614  33.834  1.00  0.00     0.277 HD
ATOM     25  H41 UNL     1       2.795  14.858  33.565  1.00  0.00     0.277 HD
BRANCH  23  26
HETATM   26  C14 UNL     1       2.239  14.700  35.509  1.00  0.00     0.233 C 
BRANCH  26  27
HETATM   27  C15 UNL     1       0.997  15.017  36.318  1.00  0.00     0.055 C 
BRANCH  27  28
HETATM   28  C16 UNL     1       1.348  15.830  37.552  1.00  0.00     0.234 C 
BRANCH  28  29
HETATM   29  N5  UNL     1       0.509  15.518  38.673  1.00  0.00    -0.071 N 
ATOM     30  H52 UNL     1      -0.311  16.124  38.687  1.00  0.00     0.277 HD
ATOM     31  H51 UNL     1       0.053  14.615  38.539  1.00  0.00     0.277 HD
BRANCH  29  32
HETATM   32  C17 UNL     1       1.198  15.558  39.955  1.00  0.00     0.185 A 
HETATM   33  C18 UNL     1       2.710  15.706  39.831  1.00  0.00     0.033 A 
HETATM   34  C19 UNL     1       2.937  14.338  40.425  1.00  0.00     0.004 A 
HETATM   35  C20 UNL     1       1.444  14.168  40.507  1.00  0.00     0.033 A 
ENDBRANCH  29  32
ENDBRANCH  28  29
ENDBRANCH  27  28
ENDBRANCH  26  27
ENDBRANCH  23  26
ENDBRANCH  22  23
ENDBRANCH  21  22
ENDBRANCH  20  21
ENDBRANCH   1  20
TORSDOF 18
ENDMDL
MODEL 5
REMARK VINA RESULT: -6.535571228      1.171      1.518
REMARK  18 active torsions:
REMARK  status: ('A' for Active; 'I' for Inactive)
REMARK    1  A    between atoms: C4_4  and  N1_5 
REMARK    2  A    between atoms: N1_5  and  C5_7 
REMARK    3  A    between atoms: C5_7  and  C6_8 
REMARK    4  A    between atoms: C6_8  and  C7_9 
REMARK    5  A    between atoms: C7_9  and  N2_10 
REMARK    6  A    between atoms: N2_10  and  C8_12 
REMARK    7  A    between atoms: C8_12  and  C9_13 
REMARK    8  A    between atoms: C9_13  and  C10_14 
REMARK    9  A    between atoms: C10_14  and  N3_15 
REMARK   10  A    between atoms: N3_15  and  C11_18 
REMARK   11  A    between atoms: C11_18  and  C12_19 
REMARK   12  A    between atoms: C12_19  and  C13_20 
REMARK   13  A    between atoms: C13_20  and  N4_21 
REMARK   14  A    between atoms: N4_21  and  C14_24 
REMARK   15  A    between atoms: C14_24  and  C15_25 
REMARK   16  A    between atoms: C15_25  and  C16_26 
REMARK   17  A    between atoms: C16_26  and  N5_27 
REMARK   18  A    between atoms: N5_27  and  C17_30 
ROOT
HETATM    1  N3  UNL     1      -1.124  18.280  30.844  1.00  0.00    -0.072 N 
ATOM      2  H31 UNL     1      -2.091  18.082  31.103  1.00  0.00     0.277 HD
ATOM      3  H32 UNL     1      -1.166  19.297  30.903  1.00  0.00     0.277 HD
ENDROOT
BRANCH   1   4
HETATM    4  C10 UNL     1      -0.811  17.824  29.522  1.00  0.00     0.261 C 
BRANCH   4   5
HETATM    5  C9  UNL     1      -1.931  17.305  28.729  1.00  0.00     0.017 C 
BRANCH   5   6
HETATM    6  C8  UNL     1      -2.261  17.797  27.397  1.00  0.00     0.080 C 
BRANCH   6   7
HETATM    7  N2  UNL     1      -2.593  19.087  27.000  1.00  0.00    -0.399 N 
ATOM      8  H2  UNL     1      -1.958  19.628  26.413  1.00  0.00     0.158 HD
BRANCH   7   9
HETATM    9  C7  UNL     1      -3.834  19.641  27.424  1.00  0.00     0.124 C 
BRANCH   9  10
HETATM   10  C6  UNL     1      -4.147  20.849  26.499  1.00  0.00     0.063 C 
BRANCH  10  11
HETATM   11  C5  UNL     1      -3.608  22.105  27.075  1.00  0.00     0.057 C 
BRANCH  11  12
HETATM   12  N1  UNL     1      -3.250  22.144  28.411  1.00  0.00    -0.398 N 
ATOM     13  H1  UNL     1      -2.912  21.268  28.812  1.00  0.00     0.159 HD
BRANCH  12  14
HETATM   14  C4  UNL     1      -3.296  23.236  29.272  1.00  0.00     0.080 C 
HETATM   15  C3  UNL     1      -2.828  24.514  28.633  1.00  0.00     0.025 C 
HETATM   16  C2  UNL     1      -1.304  24.625  28.761  1.00  0.00     0.002 C 
HETATM   17  C1  UNL     1      -1.023  24.979  30.202  1.00  0.00     0.000 C 
HETATM   18  C22 UNL     1      -1.861  24.132  31.130  1.00  0.00     0.002 C 
HETATM   19  C21 UNL     1      -2.436  22.903  30.493  1.00  0.00     0.025 C 
ENDBRANCH  12  14
ENDBRANCH  11  12
ENDBRANCH  10  11
ENDBRANCH   9  10
ENDBRANCH   7   9
ENDBRANCH   6   7
ENDBRANCH   5   6
ENDBRANCH   4   5
ENDBRANCH   1   4
BRANCH   1  20
HETATM   20  C11 UNL     1      -0.160  17.703  31.793  1.00  0.00     0.234 C 
BRANCH  20  21
HETATM   21  C12 UNL     1       0.885  16.877  31.092  1.00  0.00     0.055 C 
BRANCH  21  22
HETATM   22  C13 UNL     1       0.939  15.465  31.667  1.00  0.00     0.233 C 
BRANCH  22  23
HETATM   23  N4  UNL     1       2.234  15.260  32.293  1.00  0.00    -0.075 N 
ATOM     24  H42 UNL     1       2.117  14.958  33.260  1.00  0.00     0.277 HD
ATOM     25  H41 UNL     1       2.690  14.434  31.905  1.00  0.00     0.277 HD
BRANCH  23  26
HETATM   26  C14 UNL     1       3.110  16.392  32.226  1.00  0.00     0.233 C 
BRANCH  26  27
HETATM   27  C15 UNL     1       3.721  16.737  33.569  1.00  0.00     0.055 C 
BRANCH  27  28
HETATM   28  C16 UNL     1       2.853  16.225  34.706  1.00  0.00     0.234 C 
BRANCH  28  29
HETATM   29  N5  UNL     1       3.487  15.177  35.453  1.00  0.00    -0.071 N 
ATOM     30  H52 UNL     1       4.206  14.722  34.892  1.00  0.00     0.277 HD
ATOM     31  H51 UNL     1       4.069  15.566  36.195  1.00  0.00     0.277 HD
BRANCH  29  32
HETATM   32  C17 UNL     1       2.559  14.194  35.994  1.00  0.00     0.185 A 
HETATM   33  C18 UNL     1       1.126  14.702  36.103  1.00  0.00     0.033 A 
HETATM   34  C19 UNL     1       1.162  14.617  37.608  1.00  0.00     0.004 A 
HETATM   35  C20 UNL     1       2.594  14.159  37.508  1.00  0.00     0.033 A 
ENDBRANCH  29  32
ENDBRANCH  28  29
ENDBRANCH  27  28
ENDBRANCH  26  27
ENDBRANCH  23  26
ENDBRANCH  22  23
ENDBRANCH  21  22
ENDBRANCH  20  21
ENDBRANCH   1  20
TORSDOF 18
ENDMDL
