MODEL 1
REMARK VINA RESULT: -6.596869967      0.000      0.000
REMARK  18 active torsions:
REMARK  status: ('A' for Active; 'I' for Inactive)
REMARK    1  A    between atoms: C2_2  and  C4_4 
REMARK    2  A    between atoms: C4_4  and  S1_5 
REMARK    3  A    between atoms: S1_5  and  C5_6 
REMARK    4  A    between atoms: C5_6  and  C6_7 
REMARK    5  A    between atoms: C6_7  and  C7_8 
REMARK    6  A    between atoms: C7_8  and  N2_12 
REMARK    7  A    between atoms: N2_12  and  C8_14 
REMARK    8  A    between atoms: C8_14  and  C9_15 
REMARK    9  A    between atoms: C9_15  and  C10_16 
REMARK   10  A    between atoms: C10_16  and  C11_17 
REMARK   11  A    between atoms: C11_17  and  N3_18 
REMARK   12  A    between atoms: N3_18  and  C12_21 
REMARK   13  A    between atoms: C12_21  and  C13_22 
REMARK   14  A    between atoms: C13_22  and  C14_23 
REMARK   15  A    between atoms: C14_23  and  N4_24 
REMARK   16  A    between atoms: N4_24  and  C15_27 
REMARK   17  A    between atoms: C15_27  and  C16_28 
REMARK   18  A    between atoms: C16_28  and  C17_29 
ROOT
HETATM    1  N3  UNL     1      -1.165  18.442  30.540  1.00  0.00    -0.075 N 
ATOM      2  H31 UNL     1      -1.335  19.433  30.709  1.00  0.00     0.277 HD
ATOM      3  H32 UNL     1      -2.120  18.102  30.650  1.00  0.00     0.277 HD
ENDROOT
BRANCH   1   4
HETATM    4  C11 UNL     1      -0.265  17.867  31.544  1.00  0.00     0.236 C 
BRANCH   4   5
HETATM    5  C10 UNL     1       0.561  16.778  30.993  1.00  0.00     0.056 C 
BRANCH   5   6
HETATM    6  C9  UNL     1       0.346  15.402  31.401  1.00  0.00    -0.008 C 
BRANCH   6   7
HETATM    7  C8  UNL     1       1.282  14.537  32.094  1.00  0.00     0.085 C 
BRANCH   7   8
HETATM    8  N2  UNL     1       1.593  14.552  33.452  1.00  0.00    -0.356 N 
ATOM      9  H2  UNL     1       2.454  14.051  33.672  1.00  0.00     0.166 HD
BRANCH   8  10
HETATM   10  C7  UNL     1       0.974  15.109  34.583  1.00  0.00     0.075 C 
HETATM   11  N1  UNL     1       0.138  14.341  35.264  1.00  0.00    -0.389 N 
ATOM     12  H12 UNL     1      -0.312  14.745  36.085  1.00  0.00     0.157 HD
ATOM     13  H11 UNL     1      -0.009  13.401  34.895  1.00  0.00     0.157 HD
BRANCH  10  14
HETATM   14  C6  UNL     1       1.185  16.456  35.113  1.00  0.00     0.086 C 
BRANCH  14  15
HETATM   15  C5  UNL     1       2.100  17.358  34.358  1.00  0.00     0.081 C 
BRANCH  15  16
HETATM   16  S1  UNL     1       3.700  17.335  35.196  1.00  0.00    -0.164 SA
BRANCH  16  17
HETATM   17  C4  UNL     1       4.943  16.514  34.198  1.00  0.00     0.106 C 
BRANCH  17  18
HETATM   18  C2  UNL     1       5.048  17.093  32.864  1.00  0.00    -0.084 C 
HETATM   19  C1  UNL     1       5.719  18.223  32.697  1.00  0.00     0.014 C 
HETATM   20  C3  UNL     1       4.470  16.467  31.667  1.00  0.00     0.043 C 
ENDBRANCH  17  18
ENDBRANCH  16  17
ENDBRANCH  15  16
ENDBRANCH  14  15
ENDBRANCH  10  14
ENDBRANCH   8  10
ENDBRANCH   7   8
ENDBRANCH   6   7
ENDBRANCH   5   6
ENDBRANCH   4   5
ENDBRANCH   1   4
BRANCH   1  21
HETATM   21  C12 UNL     1      -0.659  18.203  29.200  1.00  0.00     0.233 C 
BRANCH  21  22
HETATM   22  C13 UNL     1      -1.833  17.871  28.309  1.00  0.00     0.055 C 
BRANCH  22  23
HETATM   23  C14 UNL     1      -3.141  18.214  28.942  1.00  0.00     0.233 C 
BRANCH  23  24
HETATM   24  N4  UNL     1      -3.968  18.967  28.025  1.00  0.00    -0.075 N 
ATOM     25  H42 UNL     1      -4.499  18.349  27.411  1.00  0.00     0.277 HD
ATOM     26  H41 UNL     1      -4.744  19.416  28.509  1.00  0.00     0.277 HD
BRANCH  24  27
HETATM   27  C15 UNL     1      -3.197  19.922  27.268  1.00  0.00     0.234 C 
BRANCH  27  28
HETATM   28  C16 UNL     1      -3.723  21.344  27.505  1.00  0.00     0.060 C 
BRANCH  28  29
HETATM   29  C17 UNL     1      -2.734  22.168  28.283  1.00  0.00     0.187 C 
HETATM   30  C18 UNL     1      -2.754  21.820  29.759  1.00  0.00     0.034 C 
HETATM   31  C19 UNL     1      -2.341  23.147  30.375  1.00  0.00     0.029 C 
HETATM   32  C20 UNL     1      -2.983  24.155  29.473  1.00  0.00     0.233 C 
HETATM   33  N5  UNL     1      -3.098  23.547  28.190  1.00  0.00    -0.071 N 
ATOM     34  H52 UNL     1      -2.558  24.041  27.479  1.00  0.00     0.277 HD
ATOM     35  H51 UNL     1      -4.025  23.675  27.784  1.00  0.00     0.277 HD
ENDBRANCH  28  29
ENDBRANCH  27  28
ENDBRANCH  24  27
ENDBRANCH  23  24
ENDBRANCH  22  23
ENDBRANCH  21  22
ENDBRANCH   1  21
TORSDOF 18
ENDMDL
MODEL 2
REMARK VINA RESULT: -6.577914954      1.172      1.538
REMARK  18 active torsions:
REMARK  status: ('A' for Active; 'I' for Inactive)
REMARK    1  A    between atoms: C2_2  and  C4_4 
REMARK    2  A    between atoms: C4_4  and  S1_5 
REMARK    3  A    between atoms: S1_5  and  C5_6 
REMARK    4  A    between atoms: C5_6  and  C6_7 
REMARK    5  A    between atoms: C6_7  and  C7_8 
REMARK    6  A    between atoms: C7_8  and  N2_12 
REMARK    7  A    between atoms: N2_12  and  C8_14 
REMARK    8  A    between atoms: C8_14  and  C9_15 
REMARK    9  A    between atoms: C9_15  and  C10_16 
REMARK   10  A    between atoms: C10_16  and  C11_17 
REMARK   11  A    between atoms: C11_17  and  N3_18 
REMARK   12  A    between atoms: N3_18  and  C12_21 
REMARK   13  A    between atoms: C12_21  and  C13_22 
REMARK   14  A    between atoms: C13_22  and  C14_23 
REMARK   15  A    between atoms: C14_23  and  N4_24 
REMARK   16  A    between atoms: N4_24  and  C15_27 
REMARK   17  A    between atoms: C15_27  and  C16_28 
REMARK   18  A    between atoms: C16_28  and  C17_29 
ROOT
HETATM    1  N3  UNL     1      -0.860  18.369  31.025  1.00  0.00    -0.075 N 
ATOM      2  H31 UNL     1      -0.751  19.373  31.166  1.00  0.00     0.277 HD
ATOM      3  H32 UNL     1      -1.814  18.268  31.371  1.00  0.00     0.277 HD
ENDROOT
BRANCH   1   4
HETATM    4  C11 UNL     1       0.094  17.600  31.830  1.00  0.00     0.236 C 
BRANCH   4   5
HETATM    5  C10 UNL     1       0.864  16.640  31.018  1.00  0.00     0.056 C 
BRANCH   5   6
HETATM    6  C9  UNL     1       0.887  15.230  31.356  1.00  0.00    -0.008 C 
BRANCH   6   7
HETATM    7  C8  UNL     1       0.408  14.614  32.579  1.00  0.00     0.085 C 
BRANCH   7   8
HETATM    8  N2  UNL     1       1.045  14.601  33.819  1.00  0.00    -0.356 N 
ATOM      9  H2  UNL     1       1.962  14.155  33.795  1.00  0.00     0.166 HD
BRANCH   8  10
HETATM   10  C7  UNL     1       0.693  15.072  35.095  1.00  0.00     0.075 C 
HETATM   11  N1  UNL     1      -0.124  16.112  35.160  1.00  0.00    -0.389 N 
ATOM     12  H12 UNL     1      -0.379  16.454  36.087  1.00  0.00     0.157 HD
ATOM     13  H11 UNL     1      -0.419  16.507  34.268  1.00  0.00     0.157 HD
BRANCH  10  14
HETATM   14  C6  UNL     1       1.116  14.505  36.375  1.00  0.00     0.086 C 
BRANCH  14  15
HETATM   15  C5  UNL     1       2.561  14.181  36.542  1.00  0.00     0.081 C 
BRANCH  15  16
HETATM   16  S1  UNL     1       3.445  15.740  36.775  1.00  0.00    -0.164 SA
BRANCH  16  17
HETATM   17  C4  UNL     1       4.490  16.110  35.366  1.00  0.00     0.106 C 
BRANCH  17  18
HETATM   18  C2  UNL     1       3.813  16.949  34.384  1.00  0.00    -0.084 C 
HETATM   19  C1  UNL     1       3.004  17.912  34.800  1.00  0.00     0.014 C 
HETATM   20  C3  UNL     1       4.005  16.806  32.934  1.00  0.00     0.043 C 
ENDBRANCH  17  18
ENDBRANCH  16  17
ENDBRANCH  15  16
ENDBRANCH  14  15
ENDBRANCH  10  14
ENDBRANCH   8  10
ENDBRANCH   7   8
ENDBRANCH   6   7
ENDBRANCH   5   6
ENDBRANCH   4   5
ENDBRANCH   1   4
BRANCH   1  21
HETATM   21  C12 UNL     1      -0.755  18.007  29.622  1.00  0.00     0.233 C 
BRANCH  21  22
HETATM   22  C13 UNL     1      -2.109  17.521  29.162  1.00  0.00     0.055 C 
BRANCH  22  23
HETATM   23  C14 UNL     1      -2.182  17.359  27.680  1.00  0.00     0.233 C 
BRANCH  23  24
HETATM   24  N4  UNL     1      -2.512  18.616  27.046  1.00  0.00    -0.075 N 
ATOM     25  H42 UNL     1      -1.693  19.219  26.968  1.00  0.00     0.277 HD
ATOM     26  H41 UNL     1      -2.713  18.490  26.054  1.00  0.00     0.277 HD
BRANCH  24  27
HETATM   27  C15 UNL     1      -3.596  19.289  27.719  1.00  0.00     0.234 C 
BRANCH  27  28
HETATM   28  C16 UNL     1      -3.678  20.754  27.273  1.00  0.00     0.060 C 
BRANCH  28  29
HETATM   29  C17 UNL     1      -2.759  21.624  28.086  1.00  0.00     0.187 C 
HETATM   30  C18 UNL     1      -2.850  21.305  29.566  1.00  0.00     0.034 C 
HETATM   31  C19 UNL     1      -2.512  22.657  30.173  1.00  0.00     0.029 C 
HETATM   32  C20 UNL     1      -3.133  23.626  29.215  1.00  0.00     0.233 C 
HETATM   33  N5  UNL     1      -3.158  22.989  27.942  1.00  0.00    -0.071 N 
ATOM     34  H52 UNL     1      -2.595  23.485  27.251  1.00  0.00     0.277 HD
ATOM     35  H51 UNL     1      -4.065  23.080  27.483  1.00  0.00     0.277 HD
ENDBRANCH  28  29
ENDBRANCH  27  28
ENDBRANCH  24  27
ENDBRANCH  23  24
ENDBRANCH  22  23
ENDBRANCH  21  22
ENDBRANCH   1  21
TORSDOF 18
ENDMDL
MODEL 3
REMARK VINA RESULT: -6.566536817      2.811      9.743
REMARK  18 active torsions:
REMARK  status: ('A' for Active; 'I' for Inactive)
REMARK    1  A    between atoms: C2_2  and  C4_4 
REMARK    2  A    between atoms: C4_4  and  S1_5 
REMARK    3  A    between atoms: S1_5  and  C5_6 
REMARK    4  A    between atoms: C5_6  and  C6_7 
REMARK    5  A    between atoms: C6_7  and  C7_8 
REMARK    6  A    between atoms: C7_8  and  N2_12 
REMARK    7  A    between atoms: N2_12  and  C8_14 
REMARK    8  A    between atoms: C8_14  and  C9_15 
REMARK    9  A    between atoms: C9_15  and  C10_16 
REMARK   10  A    between atoms: C10_16  and  C11_17 
REMARK   11  A    between atoms: C11_17  and  N3_18 
REMARK   12  A    between atoms: N3_18  and  C12_21 
REMARK   13  A    between atoms: C12_21  and  C13_22 
REMARK   14  A    between atoms: C13_22  and  C14_23 
REMARK   15  A    between atoms: C14_23  and  N4_24 
REMARK   16  A    between atoms: N4_24  and  C15_27 
REMARK   17  A    between atoms: C15_27  and  C16_28 
REMARK   18  A    between atoms: C16_28  and  C17_29 
ROOT
HETATM    1  N3  UNL     1       0.529  17.431  30.674  1.00  0.00    -0.075 N 
ATOM      2  H31 UNL     1       1.427  17.913  30.721  1.00  0.00     0.277 HD
ATOM      3  H32 UNL     1       0.873  16.484  30.515  1.00  0.00     0.277 HD
ENDROOT
BRANCH   1   4
HETATM    4  C11 UNL     1      -0.286  17.908  29.554  1.00  0.00     0.236 C 
BRANCH   4   5
HETATM    5  C10 UNL     1      -1.624  17.291  29.535  1.00  0.00     0.056 C 
BRANCH   5   6
HETATM    6  C9  UNL     1      -2.524  17.500  28.416  1.00  0.00    -0.008 C 
BRANCH   6   7
HETATM    7  C8  UNL     1      -3.250  18.713  28.090  1.00  0.00     0.085 C 
BRANCH   7   8
HETATM    8  N2  UNL     1      -3.133  19.477  26.931  1.00  0.00    -0.356 N 
ATOM      9  H2  UNL     1      -2.746  18.955  26.144  1.00  0.00     0.166 HD
BRANCH   8  10
HETATM   10  C7  UNL     1      -3.433  20.812  26.614  1.00  0.00     0.075 C 
HETATM   11  N1  UNL     1      -3.858  21.069  25.386  1.00  0.00    -0.389 N 
ATOM     12  H12 UNL     1      -4.075  22.038  25.155  1.00  0.00     0.157 HD
ATOM     13  H11 UNL     1      -3.913  20.270  24.754  1.00  0.00     0.157 HD
BRANCH  10  14
HETATM   14  C6  UNL     1      -3.354  21.958  27.519  1.00  0.00     0.086 C 
BRANCH  14  15
HETATM   15  C5  UNL     1      -2.096  22.135  28.299  1.00  0.00     0.081 C 
BRANCH  15  16
HETATM   16  S1  UNL     1      -2.552  22.276  30.041  1.00  0.00    -0.164 SA
BRANCH  16  17
HETATM   17  C4  UNL     1      -2.148  23.899  30.687  1.00  0.00     0.106 C 
BRANCH  17  18
HETATM   18  C2  UNL     1      -2.048  24.902  29.634  1.00  0.00    -0.084 C 
HETATM   19  C1  UNL     1      -0.854  25.349  29.275  1.00  0.00     0.014 C 
HETATM   20  C3  UNL     1      -3.213  25.431  28.912  1.00  0.00     0.043 C 
ENDBRANCH  17  18
ENDBRANCH  16  17
ENDBRANCH  15  16
ENDBRANCH  14  15
ENDBRANCH  10  14
ENDBRANCH   8  10
ENDBRANCH   7   8
ENDBRANCH   6   7
ENDBRANCH   5   6
ENDBRANCH   4   5
ENDBRANCH   1   4
BRANCH   1  21
HETATM   21  C12 UNL     1      -0.204  17.535  31.924  1.00  0.00     0.233 C 
BRANCH  21  22
HETATM   22  C13 UNL     1       0.493  16.673  32.949  1.00  0.00     0.055 C 
BRANCH  22  23
HETATM   23  C14 UNL     1       0.934  15.364  32.385  1.00  0.00     0.233 C 
BRANCH  23  24
HETATM   24  N4  UNL     1       1.644  14.593  33.381  1.00  0.00    -0.075 N 
ATOM     25  H42 UNL     1       1.176  13.707  33.569  1.00  0.00     0.277 HD
ATOM     26  H41 UNL     1       2.525  14.233  33.014  1.00  0.00     0.277 HD
BRANCH  24  27
HETATM   27  C15 UNL     1       1.850  15.345  34.595  1.00  0.00     0.234 C 
BRANCH  27  28
HETATM   28  C16 UNL     1       2.324  14.422  35.724  1.00  0.00     0.060 C 
BRANCH  28  29
HETATM   29  C17 UNL     1       1.324  14.377  36.847  1.00  0.00     0.187 C 
HETATM   30  C18 UNL     1       1.171  15.730  37.514  1.00  0.00     0.034 C 
HETATM   31  C19 UNL     1       0.796  15.315  38.928  1.00  0.00     0.029 C 
HETATM   32  C20 UNL     1       1.597  14.068  39.140  1.00  0.00     0.233 C 
HETATM   33  N5  UNL     1       1.795  13.481  37.858  1.00  0.00    -0.071 N 
ATOM     34  H52 UNL     1       1.367  12.558  37.785  1.00  0.00     0.277 HD
ATOM     35  H51 UNL     1       2.765  13.204  37.706  1.00  0.00     0.277 HD
ENDBRANCH  28  29
ENDBRANCH  27  28
ENDBRANCH  24  27
ENDBRANCH  23  24
ENDBRANCH  22  23
ENDBRANCH  21  22
ENDBRANCH   1  21
TORSDOF 18
ENDMDL
MODEL 4
REMARK VINA RESULT: -6.558397958      1.464      1.903
REMARK  18 active torsions:
REMARK  status: ('A' for Active; 'I' for Inactive)
REMARK    1  A    between atoms: C2_2  and  C4_4 
REMARK    2  A    between atoms: C4_4  and  S1_5 
REMARK    3  A    between atoms: S1_5  and  C5_6 
REMARK    4  A    between atoms: C5_6  and  C6_7 
REMARK    5  A    between atoms: C6_7  and  C7_8 
REMARK    6  A    between atoms: C7_8  and  N2_12 
REMARK    7  A    between atoms: N2_12  and  C8_14 
REMARK    8  A    between atoms: C8_14  and  C9_15 
REMARK    9  A    between atoms: C9_15  and  C10_16 
REMARK   10  A    between atoms: C10_16  and  C11_17 
REMARK   11  A    between atoms: C11_17  and  N3_18 
REMARK   12  A    between atoms: N3_18  and  C12_21 
REMARK   13  A    between atoms: C12_21  and  C13_22 
REMARK   14  A    between atoms: C13_22  and  C14_23 
REMARK   15  A    between atoms: C14_23  and  N4_24 
REMARK   16  A    between atoms: N4_24  and  C15_27 
REMARK   17  A    between atoms: C15_27  and  C16_28 
REMARK   18  A    between atoms: C16_28  and  C17_29 
ROOT
HETATM    1  N3  UNL     1      -0.530  18.118  31.187  1.00  0.00    -0.075 N 
ATOM      2  H31 UNL     1      -0.387  19.126  31.237  1.00  0.00     0.277 HD
ATOM      3  H32 UNL     1      -1.546  18.103  31.273  1.00  0.00     0.277 HD
ENDROOT
BRANCH   1   4
HETATM    4  C11 UNL     1       0.120  17.421  32.301  1.00  0.00     0.236 C 
BRANCH   4   5
HETATM    5  C10 UNL     1       0.358  15.997  32.005  1.00  0.00     0.056 C 
BRANCH   5   6
HETATM    6  C9  UNL     1       0.495  15.027  33.076  1.00  0.00    -0.008 C 
BRANCH   6   7
HETATM    7  C8  UNL     1       0.120  15.199  34.467  1.00  0.00     0.085 C 
BRANCH   7   8
HETATM    8  N2  UNL     1       0.265  14.273  35.497  1.00  0.00    -0.356 N 
ATOM      9  H2  UNL     1      -0.360  13.471  35.407  1.00  0.00     0.166 HD
BRANCH   8  10
HETATM   10  C7  UNL     1       1.088  14.206  36.634  1.00  0.00     0.075 C 
HETATM   11  N1  UNL     1       0.495  14.162  37.817  1.00  0.00    -0.389 N 
ATOM     12  H12 UNL     1       1.092  14.113  38.642  1.00  0.00     0.157 HD
ATOM     13  H11 UNL     1      -0.524  14.201  37.809  1.00  0.00     0.157 HD
BRANCH  10  14
HETATM   14  C6  UNL     1       2.549  14.149  36.645  1.00  0.00     0.086 C 
BRANCH  14  15
HETATM   15  C5  UNL     1       3.259  14.865  37.742  1.00  0.00     0.081 C 
BRANCH  15  16
HETATM   16  S1  UNL     1       4.011  16.345  37.027  1.00  0.00    -0.164 SA
BRANCH  16  17
HETATM   17  C4  UNL     1       4.494  16.067  35.323  1.00  0.00     0.106 C 
BRANCH  17  18
HETATM   18  C2  UNL     1       3.695  16.853  34.389  1.00  0.00    -0.084 C 
HETATM   19  C1  UNL     1       2.787  17.694  34.859  1.00  0.00     0.014 C 
HETATM   20  C3  UNL     1       3.865  16.786  32.931  1.00  0.00     0.043 C 
ENDBRANCH  17  18
ENDBRANCH  16  17
ENDBRANCH  15  16
ENDBRANCH  14  15
ENDBRANCH  10  14
ENDBRANCH   8  10
ENDBRANCH   7   8
ENDBRANCH   6   7
ENDBRANCH   5   6
ENDBRANCH   4   5
ENDBRANCH   1   4
BRANCH   1  21
HETATM   21  C12 UNL     1      -0.090  17.573  29.914  1.00  0.00     0.233 C 
BRANCH  21  22
HETATM   22  C13 UNL     1      -1.126  17.922  28.873  1.00  0.00     0.055 C 
BRANCH  22  23
HETATM   23  C14 UNL     1      -2.505  17.537  29.292  1.00  0.00     0.233 C 
BRANCH  23  24
HETATM   24  N4  UNL     1      -3.493  18.226  28.491  1.00  0.00    -0.075 N 
ATOM     25  H42 UNL     1      -4.151  17.572  28.068  1.00  0.00     0.277 HD
ATOM     26  H41 UNL     1      -4.143  18.752  29.075  1.00  0.00     0.277 HD
BRANCH  24  27
HETATM   27  C15 UNL     1      -2.881  19.071  27.495  1.00  0.00     0.234 C 
BRANCH  27  28
HETATM   28  C16 UNL     1      -3.564  20.444  27.463  1.00  0.00     0.060 C 
BRANCH  28  29
HETATM   29  C17 UNL     1      -2.709  21.494  28.119  1.00  0.00     0.187 C 
HETATM   30  C18 UNL     1      -2.732  21.371  29.630  1.00  0.00     0.034 C 
HETATM   31  C19 UNL     1      -2.505  22.816  30.041  1.00  0.00     0.029 C 
HETATM   32  C20 UNL     1      -3.238  23.589  28.989  1.00  0.00     0.233 C 
HETATM   33  N5  UNL     1      -3.237  22.787  27.812  1.00  0.00    -0.071 N 
ATOM     34  H52 UNL     1      -2.740  23.233  27.041  1.00  0.00     0.277 HD
ATOM     35  H51 UNL     1      -4.159  22.734  27.380  1.00  0.00     0.277 HD
ENDBRANCH  28  29
ENDBRANCH  27  28
ENDBRANCH  24  27
ENDBRANCH  23  24
ENDBRANCH  22  23
ENDBRANCH  21  22
ENDBRANCH   1  21
TORSDOF 18
ENDMDL
MODEL 5
REMARK VINA RESULT: -6.555754186      1.601      2.743
REMARK  18 active torsions:
REMARK  status: ('A' for Active; 'I' for Inactive)
REMARK    1  A    between atoms: C2_2  and  C4_4 
REMARK    2  A    between atoms: C4_4  and  S1_5 
REMARK    3  A    between atoms: S1_5  and  C5_6 
REMARK    4  A    between atoms: C5_6  and  C6_7 
REMARK    5  A    between atoms: C6_7  and  C7_8 
REMARK    6  A    between atoms: C7_8  and  N2_12 
REMARK    7  A    between atoms: N2_12  and  C8_14 
REMARK    8  A    between atoms: C8_14  and  C9_15 
REMARK    9  A    between atoms: C9_15  and  C10_16 
REMARK   10  A    between atoms: C10_16  and  C11_17 
REMARK   11  A    between atoms: C11_17  and  N3_18 
REMARK   12  A    between atoms: N3_18  and  C12_21 
REMARK   13  A    between atoms: C12_21  and  C13_22 
REMARK   14  A    between atoms: C13_22  and  C14_23 
REMARK   15  A    between atoms: C14_23  and  N4_24 
REMARK   16  A    between atoms: N4_24  and  C15_27 
REMARK   17  A    between atoms: C15_27  and  C16_28 
REMARK   18  A    between atoms: C16_28  and  C17_29 
ROOT
HETATM    1  N3  UNL     1      -1.447  18.254  30.500  1.00  0.00    -0.075 N 
ATOM      2  H31 UNL     1      -1.255  19.147  30.048  1.00  0.00     0.277 HD
ATOM      3  H32 UNL     1      -2.253  18.535  31.058  1.00  0.00     0.277 HD
ENDROOT
BRANCH   1   4
HETATM    4  C11 UNL     1      -0.329  17.819  31.342  1.00  0.00     0.236 C 
BRANCH   4   5
HETATM    5  C10 UNL     1       0.713  17.119  30.568  1.00  0.00     0.056 C 
BRANCH   5   6
HETATM    6  C9  UNL     1       1.267  15.863  31.034  1.00  0.00    -0.008 C 
BRANCH   6   7
HETATM    7  C8  UNL     1       0.589  14.837  31.803  1.00  0.00     0.085 C 
BRANCH   7   8
HETATM    8  N2  UNL     1       0.820  14.491  33.133  1.00  0.00    -0.356 N 
ATOM      9  H2  UNL     1       1.324  13.610  33.237  1.00  0.00     0.166 HD
BRANCH   8  10
HETATM   10  C7  UNL     1       0.508  15.097  34.361  1.00  0.00     0.075 C 
HETATM   11  N1  UNL     1       0.043  14.318  35.327  1.00  0.00    -0.389 N 
ATOM     12  H12 UNL     1      -0.184  14.757  36.219  1.00  0.00     0.157 HD
ATOM     13  H11 UNL     1      -0.073  13.333  35.091  1.00  0.00     0.157 HD
BRANCH  10  14
HETATM   14  C6  UNL     1       0.675  16.510  34.699  1.00  0.00     0.086 C 
BRANCH  14  15
HETATM   15  C5  UNL     1       2.019  17.116  34.486  1.00  0.00     0.081 C 
BRANCH  15  16
HETATM   16  S1  UNL     1       3.146  16.377  35.690  1.00  0.00    -0.164 SA
BRANCH  16  17
HETATM   17  C4  UNL     1       2.591  16.679  37.368  1.00  0.00     0.106 C 
BRANCH  17  18
HETATM   18  C2  UNL     1       2.083  15.471  38.006  1.00  0.00    -0.084 C 
HETATM   19  C1  UNL     1       0.915  15.507  38.630  1.00  0.00     0.014 C 
HETATM   20  C3  UNL     1       2.789  14.183  37.969  1.00  0.00     0.043 C 
ENDBRANCH  17  18
ENDBRANCH  16  17
ENDBRANCH  15  16
ENDBRANCH  14  15
ENDBRANCH  10  14
ENDBRANCH   8  10
ENDBRANCH   7   8
ENDBRANCH   6   7
ENDBRANCH   5   6
ENDBRANCH   4   5
ENDBRANCH   1   4
BRANCH   1  21
HETATM   21  C12 UNL     1      -1.793  17.225  29.535  1.00  0.00     0.233 C 
BRANCH  21  22
HETATM   22  C13 UNL     1      -2.397  17.901  28.327  1.00  0.00     0.055 C 
BRANCH  22  23
HETATM   23  C14 UNL     1      -3.579  18.742  28.678  1.00  0.00     0.233 C 
BRANCH  23  24
HETATM   24  N4  UNL     1      -3.611  19.939  27.869  1.00  0.00    -0.075 N 
ATOM     25  H42 UNL     1      -3.659  19.715  26.875  1.00  0.00     0.277 HD
ATOM     26  H41 UNL     1      -4.500  20.429  27.965  1.00  0.00     0.277 HD
BRANCH  24  27
HETATM   27  C15 UNL     1      -2.499  20.811  28.156  1.00  0.00     0.234 C 
BRANCH  27  28
HETATM   28  C16 UNL     1      -2.777  21.638  29.418  1.00  0.00     0.060 C 
BRANCH  28  29
HETATM   29  C17 UNL     1      -2.210  23.026  29.296  1.00  0.00     0.187 C 
HETATM   30  C18 UNL     1      -2.209  23.749  30.629  1.00  0.00     0.034 C 
HETATM   31  C19 UNL     1      -2.348  25.193  30.175  1.00  0.00     0.029 C 
HETATM   32  C20 UNL     1      -3.243  25.089  28.980  1.00  0.00     0.233 C 
HETATM   33  N5  UNL     1      -3.039  23.795  28.421  1.00  0.00    -0.071 N 
ATOM     34  H52 UNL     1      -2.665  23.838  27.474  1.00  0.00     0.277 HD
ATOM     35  H51 UNL     1      -3.919  23.324  28.209  1.00  0.00     0.277 HD
ENDBRANCH  28  29
ENDBRANCH  27  28
ENDBRANCH  24  27
ENDBRANCH  23  24
ENDBRANCH  22  23
ENDBRANCH  21  22
ENDBRANCH   1  21
TORSDOF 18
ENDMDL
