MODEL 1
REMARK VINA RESULT: -7.032344419      0.000      0.000
REMARK  17 active torsions:
REMARK  status: ('A' for Active; 'I' for Inactive)
REMARK    1  A    between atoms: C4_4  and  N1_5 
REMARK    2  A    between atoms: N1_5  and  C5_7 
REMARK    3  A    between atoms: C5_7  and  C6_8 
REMARK    4  A    between atoms: C6_8  and  C7_9 
REMARK    5  A    between atoms: C7_9  and  N2_10 
REMARK    6  A    between atoms: N2_10  and  C8_13 
REMARK    7  A    between atoms: C8_13  and  C9_14 
REMARK    8  A    between atoms: C9_14  and  C10_15 
REMARK    9  A    between atoms: C10_15  and  N3_16 
REMARK   10  A    between atoms: N3_16  and  C11_19 
REMARK   11  A    between atoms: C11_19  and  C12_20 
REMARK   12  A    between atoms: C12_20  and  N4_21 
REMARK   13  A    between atoms: N4_21  and  C13_24 
REMARK   14  A    between atoms: C13_24  and  C14_25 
REMARK   15  A    between atoms: C14_25  and  C15_26 
REMARK   16  A    between atoms: C15_26  and  N5_27 
REMARK   17  A    between atoms: N5_27  and  C16_29 
ROOT
HETATM    1  N3  UNL     1       3.440  15.625  31.730  1.00  0.00    -0.073 N 
ATOM      2  H31 UNL     1       3.935  14.823  31.342  1.00  0.00     0.277 HD
ATOM      3  H32 UNL     1       3.081  15.181  32.575  1.00  0.00     0.277 HD
ENDROOT
BRANCH   1   4
HETATM    4  C10 UNL     1       2.357  16.094  30.844  1.00  0.00     0.234 C 
BRANCH   4   5
HETATM    5  C9  UNL     1       1.181  15.207  31.156  1.00  0.00     0.055 C 
BRANCH   5   6
HETATM    6  C8  UNL     1      -0.072  16.005  31.358  1.00  0.00     0.233 C 
BRANCH   6   7
HETATM    7  N2  UNL     1       0.209  17.407  31.523  1.00  0.00    -0.075 N 
ATOM      8  H22 UNL     1       1.140  17.636  31.176  1.00  0.00     0.277 HD
ATOM      9  H21 UNL     1       0.337  17.641  32.508  1.00  0.00     0.277 HD
BRANCH   7  10
HETATM   10  C7  UNL     1      -0.795  18.257  30.916  1.00  0.00     0.234 C 
BRANCH  10  11
HETATM   11  C6  UNL     1      -1.049  17.861  29.478  1.00  0.00     0.047 C 
BRANCH  11  12
HETATM   12  C5  UNL     1      -2.532  17.665  29.290  1.00  0.00     0.121 C 
BRANCH  12  13
HETATM   13  N1  UNL     1      -3.237  18.857  29.738  1.00  0.00    -0.390 N 
ATOM     14  H1  UNL     1      -3.634  18.914  30.676  1.00  0.00     0.159 HD
BRANCH  13  15
HETATM   15  C4  UNL     1      -3.356  19.958  28.808  1.00  0.00     0.027 A 
HETATM   16  C3  UNL     1      -3.069  21.239  29.211  1.00  0.00     0.029 A 
HETATM   17  C2  UNL     1      -3.172  22.291  28.296  1.00  0.00     0.002 A 
HETATM   18  C1  UNL     1      -3.549  22.109  27.005  1.00  0.00     0.000 A 
HETATM   19  C22 UNL     1      -3.841  20.813  26.595  1.00  0.00     0.002 A 
HETATM   20  C21 UNL     1      -3.734  19.767  27.517  1.00  0.00     0.029 A 
ENDBRANCH  13  15
ENDBRANCH  12  13
ENDBRANCH  11  12
ENDBRANCH  10  11
ENDBRANCH   7  10
ENDBRANCH   6   7
ENDBRANCH   5   6
ENDBRANCH   4   5
ENDBRANCH   1   4
BRANCH   1  21
HETATM   21  C11 UNL     1       4.311  16.705  32.020  1.00  0.00     0.259 C 
BRANCH  21  22
HETATM   22  C12 UNL     1       4.395  16.949  33.515  1.00  0.00     0.259 C 
BRANCH  22  23
HETATM   23  N4  UNL     1       3.386  16.220  34.251  1.00  0.00    -0.073 N 
ATOM     24  H42 UNL     1       2.956  15.502  33.669  1.00  0.00     0.277 HD
ATOM     25  H41 UNL     1       3.810  15.624  34.962  1.00  0.00     0.277 HD
BRANCH  23  26
HETATM   26  C13 UNL     1       2.398  17.077  34.823  1.00  0.00     0.234 C 
BRANCH  26  27
HETATM   27  C14 UNL     1       1.046  16.379  34.840  1.00  0.00     0.046 C 
BRANCH  27  28
HETATM   28  C15 UNL     1       1.309  14.878  34.948  1.00  0.00     0.115 C 
BRANCH  28  29
HETATM   29  N5  UNL     1       0.517  14.325  35.993  1.00  0.00    -0.417 N 
ATOM     30  H5  UNL     1      -0.473  14.113  35.863  1.00  0.00     0.153 HD
BRANCH  29  31
HETATM   31  C16 UNL     1       1.181  14.082  37.229  1.00  0.00     0.076 C 
HETATM   32  C17 UNL     1       2.690  14.140  37.183  1.00  0.00     0.024 C 
HETATM   33  C18 UNL     1       2.994  13.907  38.676  1.00  0.00     0.002 C 
HETATM   34  C19 UNL     1       2.014  14.854  39.346  1.00  0.00     0.002 C 
HETATM   35  C20 UNL     1       0.893  15.066  38.323  1.00  0.00     0.024 C 
ENDBRANCH  29  31
ENDBRANCH  28  29
ENDBRANCH  27  28
ENDBRANCH  26  27
ENDBRANCH  23  26
ENDBRANCH  22  23
ENDBRANCH  21  22
ENDBRANCH   1  21
TORSDOF 17
ENDMDL
MODEL 2
REMARK VINA RESULT: -6.773876717      2.075      4.740
REMARK  17 active torsions:
REMARK  status: ('A' for Active; 'I' for Inactive)
REMARK    1  A    between atoms: C4_4  and  N1_5 
REMARK    2  A    between atoms: N1_5  and  C5_7 
REMARK    3  A    between atoms: C5_7  and  C6_8 
REMARK    4  A    between atoms: C6_8  and  C7_9 
REMARK    5  A    between atoms: C7_9  and  N2_10 
REMARK    6  A    between atoms: N2_10  and  C8_13 
REMARK    7  A    between atoms: C8_13  and  C9_14 
REMARK    8  A    between atoms: C9_14  and  C10_15 
REMARK    9  A    between atoms: C10_15  and  N3_16 
REMARK   10  A    between atoms: N3_16  and  C11_19 
REMARK   11  A    between atoms: C11_19  and  C12_20 
REMARK   12  A    between atoms: C12_20  and  N4_21 
REMARK   13  A    between atoms: N4_21  and  C13_24 
REMARK   14  A    between atoms: C13_24  and  C14_25 
REMARK   15  A    between atoms: C14_25  and  C15_26 
REMARK   16  A    between atoms: C15_26  and  N5_27 
REMARK   17  A    between atoms: N5_27  and  C16_29 
ROOT
HETATM    1  N3  UNL     1       0.866  15.225  30.948  1.00  0.00    -0.073 N 
ATOM      2  H31 UNL     1       1.667  15.611  30.450  1.00  0.00     0.277 HD
ATOM      3  H32 UNL     1       0.455  14.698  30.176  1.00  0.00     0.277 HD
ENDROOT
BRANCH   1   4
HETATM    4  C10 UNL     1      -0.039  16.277  31.449  1.00  0.00     0.234 C 
BRANCH   4   5
HETATM    5  C9  UNL     1       0.150  17.439  30.510  1.00  0.00     0.055 C 
BRANCH   5   6
HETATM    6  C8  UNL     1      -1.017  18.379  30.558  1.00  0.00     0.233 C 
BRANCH   6   7
HETATM    7  N2  UNL     1      -2.126  17.896  29.779  1.00  0.00    -0.075 N 
ATOM      8  H22 UNL     1      -2.871  18.591  29.735  1.00  0.00     0.277 HD
ATOM      9  H21 UNL     1      -2.622  17.153  30.272  1.00  0.00     0.277 HD
BRANCH   7  10
HETATM   10  C7  UNL     1      -1.737  17.467  28.451  1.00  0.00     0.234 C 
BRANCH  10  11
HETATM   11  C6  UNL     1      -2.445  18.276  27.387  1.00  0.00     0.047 C 
BRANCH  11  12
HETATM   12  C5  UNL     1      -3.579  19.030  28.033  1.00  0.00     0.121 C 
BRANCH  12  13
HETATM   13  N1  UNL     1      -3.683  20.353  27.434  1.00  0.00    -0.390 N 
ATOM     14  H1  UNL     1      -4.002  20.473  26.472  1.00  0.00     0.159 HD
BRANCH  13  15
HETATM   15  C4  UNL     1      -3.318  21.491  28.248  1.00  0.00     0.027 A 
HETATM   16  C3  UNL     1      -2.915  21.312  29.548  1.00  0.00     0.029 A 
HETATM   17  C2  UNL     1      -2.549  22.421  30.317  1.00  0.00     0.002 A 
HETATM   18  C1  UNL     1      -2.573  23.690  29.836  1.00  0.00     0.000 A 
HETATM   19  C22 UNL     1      -2.980  23.873  28.520  1.00  0.00     0.002 A 
HETATM   20  C21 UNL     1      -3.344  22.758  27.758  1.00  0.00     0.029 A 
ENDBRANCH  13  15
ENDBRANCH  12  13
ENDBRANCH  11  12
ENDBRANCH  10  11
ENDBRANCH   7  10
ENDBRANCH   6   7
ENDBRANCH   5   6
ENDBRANCH   4   5
ENDBRANCH   1   4
BRANCH   1  21
HETATM   21  C11 UNL     1       1.254  14.386  32.023  1.00  0.00     0.259 C 
BRANCH  21  22
HETATM   22  C12 UNL     1       1.061  15.087  33.355  1.00  0.00     0.259 C 
BRANCH  22  23
HETATM   23  N4  UNL     1       2.036  14.676  34.341  1.00  0.00    -0.073 N 
ATOM     24  H42 UNL     1       1.603  14.108  35.069  1.00  0.00     0.277 HD
ATOM     25  H41 UNL     1       2.680  13.985  33.954  1.00  0.00     0.277 HD
BRANCH  23  26
HETATM   26  C13 UNL     1       2.745  15.780  34.903  1.00  0.00     0.234 C 
BRANCH  26  27
HETATM   27  C14 UNL     1       2.786  16.934  33.914  1.00  0.00     0.046 C 
BRANCH  27  28
HETATM   28  C15 UNL     1       4.239  17.105  33.471  1.00  0.00     0.115 C 
BRANCH  28  29
HETATM   29  N5  UNL     1       4.606  16.039  32.603  1.00  0.00    -0.417 N 
ATOM     30  H5  UNL     1       4.520  15.062  32.884  1.00  0.00     0.153 HD
BRANCH  29  31
HETATM   31  C16 UNL     1       5.097  16.410  31.318  1.00  0.00     0.076 C 
HETATM   32  C17 UNL     1       4.044  16.721  30.280  1.00  0.00     0.024 C 
HETATM   33  C18 UNL     1       4.960  17.132  29.111  1.00  0.00     0.002 C 
HETATM   34  C19 UNL     1       5.942  18.066  29.796  1.00  0.00     0.002 C 
HETATM   35  C20 UNL     1       5.916  17.664  31.275  1.00  0.00     0.024 C 
ENDBRANCH  29  31
ENDBRANCH  28  29
ENDBRANCH  27  28
ENDBRANCH  26  27
ENDBRANCH  23  26
ENDBRANCH  22  23
ENDBRANCH  21  22
ENDBRANCH   1  21
TORSDOF 17
ENDMDL
MODEL 3
REMARK VINA RESULT: -6.729192236      1.734      2.901
REMARK  17 active torsions:
REMARK  status: ('A' for Active; 'I' for Inactive)
REMARK    1  A    between atoms: C4_4  and  N1_5 
REMARK    2  A    between atoms: N1_5  and  C5_7 
REMARK    3  A    between atoms: C5_7  and  C6_8 
REMARK    4  A    between atoms: C6_8  and  C7_9 
REMARK    5  A    between atoms: C7_9  and  N2_10 
REMARK    6  A    between atoms: N2_10  and  C8_13 
REMARK    7  A    between atoms: C8_13  and  C9_14 
REMARK    8  A    between atoms: C9_14  and  C10_15 
REMARK    9  A    between atoms: C10_15  and  N3_16 
REMARK   10  A    between atoms: N3_16  and  C11_19 
REMARK   11  A    between atoms: C11_19  and  C12_20 
REMARK   12  A    between atoms: C12_20  and  N4_21 
REMARK   13  A    between atoms: N4_21  and  C13_24 
REMARK   14  A    between atoms: C13_24  and  C14_25 
REMARK   15  A    between atoms: C14_25  and  C15_26 
REMARK   16  A    between atoms: C15_26  and  N5_27 
REMARK   17  A    between atoms: N5_27  and  C16_29 
ROOT
HETATM    1  N3  UNL     1       1.089  14.320  32.783  1.00  0.00    -0.073 N 
ATOM      2  H31 UNL     1       1.328  13.345  32.965  1.00  0.00     0.277 HD
ATOM      3  H32 UNL     1       0.074  14.225  32.787  1.00  0.00     0.277 HD
ENDROOT
BRANCH   1   4
HETATM    4  C10 UNL     1       1.601  14.786  31.480  1.00  0.00     0.234 C 
BRANCH   4   5
HETATM    5  C9  UNL     1       1.877  16.254  31.667  1.00  0.00     0.055 C 
BRANCH   5   6
HETATM    6  C8  UNL     1       0.980  17.096  30.812  1.00  0.00     0.233 C 
BRANCH   6   7
HETATM    7  N2  UNL     1      -0.042  17.748  31.588  1.00  0.00    -0.075 N 
ATOM      8  H22 UNL     1       0.353  18.501  32.152  1.00  0.00     0.277 HD
ATOM      9  H21 UNL     1      -0.378  17.140  32.334  1.00  0.00     0.277 HD
BRANCH   7  10
HETATM   10  C7  UNL     1      -1.143  18.230  30.778  1.00  0.00     0.234 C 
BRANCH  10  11
HETATM   11  C6  UNL     1      -1.544  17.208  29.738  1.00  0.00     0.047 C 
BRANCH  11  12
HETATM   12  C5  UNL     1      -2.566  17.833  28.822  1.00  0.00     0.121 C 
BRANCH  12  13
HETATM   13  N1  UNL     1      -3.294  18.866  29.545  1.00  0.00    -0.390 N 
ATOM     14  H1  UNL     1      -3.800  18.652  30.405  1.00  0.00     0.159 HD
BRANCH  13  15
HETATM   15  C4  UNL     1      -3.276  20.207  29.004  1.00  0.00     0.027 A 
HETATM   16  C3  UNL     1      -3.537  20.419  27.673  1.00  0.00     0.029 A 
HETATM   17  C2  UNL     1      -3.533  21.724  27.167  1.00  0.00     0.002 A 
HETATM   18  C1  UNL     1      -3.277  22.810  27.938  1.00  0.00     0.000 A 
HETATM   19  C22 UNL     1      -3.013  22.597  29.286  1.00  0.00     0.002 A 
HETATM   20  C21 UNL     1      -3.020  21.290  29.783  1.00  0.00     0.029 A 
ENDBRANCH  13  15
ENDBRANCH  12  13
ENDBRANCH  11  12
ENDBRANCH  10  11
ENDBRANCH   7  10
ENDBRANCH   6   7
ENDBRANCH   5   6
ENDBRANCH   4   5
ENDBRANCH   1   4
BRANCH   1  21
HETATM   21  C11 UNL     1       1.551  15.185  33.807  1.00  0.00     0.259 C 
BRANCH  21  22
HETATM   22  C12 UNL     1       0.490  15.379  34.874  1.00  0.00     0.259 C 
BRANCH  22  23
HETATM   23  N4  UNL     1       0.334  14.214  35.716  1.00  0.00    -0.073 N 
ATOM     24  H42 UNL     1      -0.627  14.127  36.046  1.00  0.00     0.277 HD
ATOM     25  H41 UNL     1       0.399  13.355  35.169  1.00  0.00     0.277 HD
BRANCH  23  26
HETATM   26  C13 UNL     1       1.255  14.200  36.807  1.00  0.00     0.234 C 
BRANCH  26  27
HETATM   27  C14 UNL     1       1.259  15.550  37.507  1.00  0.00     0.046 C 
BRANCH  27  28
HETATM   28  C15 UNL     1       0.805  15.319  38.948  1.00  0.00     0.115 C 
BRANCH  28  29
HETATM   29  N5  UNL     1       1.198  14.019  39.373  1.00  0.00    -0.417 N 
ATOM     30  H5  UNL     1       1.202  13.223  38.736  1.00  0.00     0.153 HD
BRANCH  29  31
HETATM   31  C16 UNL     1       1.586  13.891  40.738  1.00  0.00     0.076 C 
HETATM   32  C17 UNL     1       1.367  15.115  41.598  1.00  0.00     0.024 C 
HETATM   33  C18 UNL     1       1.828  14.550  42.956  1.00  0.00     0.002 C 
HETATM   34  C19 UNL     1       1.120  13.208  42.993  1.00  0.00     0.002 C 
HETATM   35  C20 UNL     1       0.847  12.854  41.528  1.00  0.00     0.024 C 
ENDBRANCH  29  31
ENDBRANCH  28  29
ENDBRANCH  27  28
ENDBRANCH  26  27
ENDBRANCH  23  26
ENDBRANCH  22  23
ENDBRANCH  21  22
ENDBRANCH   1  21
TORSDOF 17
ENDMDL
MODEL 4
REMARK VINA RESULT: -6.675602945      1.749      3.134
REMARK  17 active torsions:
REMARK  status: ('A' for Active; 'I' for Inactive)
REMARK    1  A    between atoms: C4_4  and  N1_5 
REMARK    2  A    between atoms: N1_5  and  C5_7 
REMARK    3  A    between atoms: C5_7  and  C6_8 
REMARK    4  A    between atoms: C6_8  and  C7_9 
REMARK    5  A    between atoms: C7_9  and  N2_10 
REMARK    6  A    between atoms: N2_10  and  C8_13 
REMARK    7  A    between atoms: C8_13  and  C9_14 
REMARK    8  A    between atoms: C9_14  and  C10_15 
REMARK    9  A    between atoms: C10_15  and  N3_16 
REMARK   10  A    between atoms: N3_16  and  C11_19 
REMARK   11  A    between atoms: C11_19  and  C12_20 
REMARK   12  A    between atoms: C12_20  and  N4_21 
REMARK   13  A    between atoms: N4_21  and  C13_24 
REMARK   14  A    between atoms: C13_24  and  C14_25 
REMARK   15  A    between atoms: C14_25  and  C15_26 
REMARK   16  A    between atoms: C15_26  and  N5_27 
REMARK   17  A    between atoms: N5_27  and  C16_29 
ROOT
HETATM    1  N3  UNL     1       0.897  16.915  30.437  1.00  0.00    -0.073 N 
ATOM      2  H31 UNL     1       1.421  17.579  31.007  1.00  0.00     0.277 HD
ATOM      3  H32 UNL     1       1.639  16.669  29.781  1.00  0.00     0.277 HD
ENDROOT
BRANCH   1   4
HETATM    4  C10 UNL     1      -0.255  17.544  29.765  1.00  0.00     0.234 C 
BRANCH   4   5
HETATM    5  C9  UNL     1      -1.027  18.228  30.863  1.00  0.00     0.055 C 
BRANCH   5   6
HETATM    6  C8  UNL     1      -2.129  19.082  30.311  1.00  0.00     0.233 C 
BRANCH   6   7
HETATM    7  N2  UNL     1      -3.157  18.291  29.687  1.00  0.00    -0.075 N 
ATOM      8  H22 UNL     1      -3.881  18.037  30.360  1.00  0.00     0.277 HD
ATOM      9  H21 UNL     1      -2.811  17.359  29.457  1.00  0.00     0.277 HD
BRANCH   7  10
HETATM   10  C7  UNL     1      -3.732  18.932  28.523  1.00  0.00     0.234 C 
BRANCH  10  11
HETATM   11  C6  UNL     1      -2.655  19.473  27.609  1.00  0.00     0.047 C 
BRANCH  11  12
HETATM   12  C5  UNL     1      -2.922  20.938  27.368  1.00  0.00     0.121 C 
BRANCH  12  13
HETATM   13  N1  UNL     1      -1.775  21.717  27.812  1.00  0.00    -0.390 N 
ATOM     14  H1  UNL     1      -0.825  21.358  27.718  1.00  0.00     0.159 HD
BRANCH  13  15
HETATM   15  C4  UNL     1      -2.028  23.018  28.391  1.00  0.00     0.027 A 
HETATM   16  C3  UNL     1      -1.000  23.911  28.561  1.00  0.00     0.029 A 
HETATM   17  C2  UNL     1      -1.263  25.173  29.106  1.00  0.00     0.002 A 
HETATM   18  C1  UNL     1      -2.506  25.565  29.484  1.00  0.00     0.000 A 
HETATM   19  C22 UNL     1      -3.548  24.661  29.312  1.00  0.00     0.002 A 
HETATM   20  C21 UNL     1      -3.275  23.403  28.766  1.00  0.00     0.029 A 
ENDBRANCH  13  15
ENDBRANCH  12  13
ENDBRANCH  11  12
ENDBRANCH  10  11
ENDBRANCH   7  10
ENDBRANCH   6   7
ENDBRANCH   5   6
ENDBRANCH   4   5
ENDBRANCH   1   4
BRANCH   1  21
HETATM   21  C11 UNL     1       0.452  15.797  31.187  1.00  0.00     0.259 C 
BRANCH  21  22
HETATM   22  C12 UNL     1       1.613  14.891  31.553  1.00  0.00     0.259 C 
BRANCH  22  23
HETATM   23  N4  UNL     1       1.618  14.538  32.955  1.00  0.00    -0.073 N 
ATOM     24  H42 UNL     1       1.189  13.625  33.104  1.00  0.00     0.277 HD
ATOM     25  H41 UNL     1       2.563  14.331  33.277  1.00  0.00     0.277 HD
BRANCH  23  26
HETATM   26  C13 UNL     1       1.004  15.534  33.772  1.00  0.00     0.234 C 
BRANCH  26  27
HETATM   27  C14 UNL     1       0.498  14.912  35.065  1.00  0.00     0.046 C 
BRANCH  27  28
HETATM   28  C15 UNL     1       1.714  14.378  35.821  1.00  0.00     0.115 C 
BRANCH  28  29
HETATM   29  N5  UNL     1       1.294  13.447  36.812  1.00  0.00    -0.417 N 
ATOM     30  H5  UNL     1       0.809  12.584  36.567  1.00  0.00     0.153 HD
BRANCH  29  31
HETATM   31  C16 UNL     1       1.587  13.786  38.164  1.00  0.00     0.076 C 
HETATM   32  C17 UNL     1       3.023  14.162  38.447  1.00  0.00     0.024 C 
HETATM   33  C18 UNL     1       2.898  14.515  39.942  1.00  0.00     0.002 C 
HETATM   34  C19 UNL     1       1.655  15.387  39.955  1.00  0.00     0.002 C 
HETATM   35  C20 UNL     1       0.870  14.988  38.701  1.00  0.00     0.024 C 
ENDBRANCH  29  31
ENDBRANCH  28  29
ENDBRANCH  27  28
ENDBRANCH  26  27
ENDBRANCH  23  26
ENDBRANCH  22  23
ENDBRANCH  21  22
ENDBRANCH   1  21
TORSDOF 17
ENDMDL
MODEL 5
REMARK VINA RESULT: -6.582094131      1.786     10.586
REMARK  17 active torsions:
REMARK  status: ('A' for Active; 'I' for Inactive)
REMARK    1  A    between atoms: C4_4  and  N1_5 
REMARK    2  A    between atoms: N1_5  and  C5_7 
REMARK    3  A    between atoms: C5_7  and  C6_8 
REMARK    4  A    between atoms: C6_8  and  C7_9 
REMARK    5  A    between atoms: C7_9  and  N2_10 
REMARK    6  A    between atoms: N2_10  and  C8_13 
REMARK    7  A    between atoms: C8_13  and  C9_14 
REMARK    8  A    between atoms: C9_14  and  C10_15 
REMARK    9  A    between atoms: C10_15  and  N3_16 
REMARK   10  A    between atoms: N3_16  and  C11_19 
REMARK   11  A    between atoms: C11_19  and  C12_20 
REMARK   12  A    between atoms: C12_20  and  N4_21 
REMARK   13  A    between atoms: N4_21  and  C13_24 
REMARK   14  A    between atoms: C13_24  and  C14_25 
REMARK   15  A    between atoms: C14_25  and  C15_26 
REMARK   16  A    between atoms: C15_26  and  N5_27 
REMARK   17  A    between atoms: N5_27  and  C16_29 
ROOT
HETATM    1  N3  UNL     1      -1.338  18.716  30.654  1.00  0.00    -0.073 N 
ATOM      2  H31 UNL     1      -0.777  19.381  31.186  1.00  0.00     0.277 HD
ATOM      3  H32 UNL     1      -1.620  18.112  31.426  1.00  0.00     0.277 HD
ENDROOT
BRANCH   1   4
HETATM    4  C10 UNL     1      -0.541  17.996  29.643  1.00  0.00     0.234 C 
BRANCH   4   5
HETATM    5  C9  UNL     1       0.509  17.253  30.426  1.00  0.00     0.055 C 
BRANCH   5   6
HETATM    6  C8  UNL     1       0.262  17.343  31.901  1.00  0.00     0.233 C 
BRANCH   6   7
HETATM    7  N2  UNL     1       1.413  16.934  32.663  1.00  0.00    -0.075 N 
ATOM      8  H22 UNL     1       1.408  17.361  33.589  1.00  0.00     0.277 HD
ATOM      9  H21 UNL     1       2.265  17.355  32.291  1.00  0.00     0.277 HD
BRANCH   7  10
HETATM   10  C7  UNL     1       1.545  15.495  32.756  1.00  0.00     0.234 C 
BRANCH  10  11
HETATM   11  C6  UNL     1       0.338  14.878  33.427  1.00  0.00     0.047 C 
BRANCH  11  12
HETATM   12  C5  UNL     1       0.282  15.365  34.853  1.00  0.00     0.121 C 
BRANCH  12  13
HETATM   13  N1  UNL     1       0.477  14.240  35.756  1.00  0.00    -0.390 N 
ATOM     14  H1  UNL     1      -0.145  13.432  35.734  1.00  0.00     0.159 HD
BRANCH  13  15
HETATM   15  C4  UNL     1       1.582  14.307  36.686  1.00  0.00     0.027 A 
HETATM   16  C3  UNL     1       1.399  13.973  38.004  1.00  0.00     0.029 A 
HETATM   17  C2  UNL     1       2.482  14.025  38.888  1.00  0.00     0.002 A 
HETATM   18  C1  UNL     1       3.728  14.398  38.502  1.00  0.00     0.000 A 
HETATM   19  C22 UNL     1       3.916  14.737  37.167  1.00  0.00     0.002 A 
HETATM   20  C21 UNL     1       2.827  14.681  36.291  1.00  0.00     0.029 A 
ENDBRANCH  13  15
ENDBRANCH  12  13
ENDBRANCH  11  12
ENDBRANCH  10  11
ENDBRANCH   7  10
ENDBRANCH   6   7
ENDBRANCH   5   6
ENDBRANCH   4   5
ENDBRANCH   1   4
BRANCH   1  21
HETATM   21  C11 UNL     1      -2.448  19.335  30.025  1.00  0.00     0.259 C 
BRANCH  21  22
HETATM   22  C12 UNL     1      -3.220  18.337  29.181  1.00  0.00     0.259 C 
BRANCH  22  23
HETATM   23  N4  UNL     1      -3.947  18.971  28.104  1.00  0.00    -0.073 N 
ATOM     24  H42 UNL     1      -4.493  18.287  27.579  1.00  0.00     0.277 HD
ATOM     25  H41 UNL     1      -4.709  19.546  28.465  1.00  0.00     0.277 HD
BRANCH  23  26
HETATM   26  C13 UNL     1      -3.099  19.725  27.239  1.00  0.00     0.234 C 
BRANCH  26  27
HETATM   27  C14 UNL     1      -3.924  20.712  26.427  1.00  0.00     0.046 C 
BRANCH  27  28
HETATM   28  C15 UNL     1      -3.612  22.112  26.955  1.00  0.00     0.115 C 
BRANCH  28  29
HETATM   29  N5  UNL     1      -2.383  22.093  27.671  1.00  0.00    -0.417 N 
ATOM     30  H5  UNL     1      -1.689  21.358  27.530  1.00  0.00     0.153 HD
BRANCH  29  31
HETATM   31  C16 UNL     1      -2.173  23.156  28.596  1.00  0.00     0.076 C 
HETATM   32  C17 UNL     1      -0.910  23.960  28.393  1.00  0.00     0.024 C 
HETATM   33  C18 UNL     1      -1.100  25.008  29.506  1.00  0.00     0.002 C 
HETATM   34  C19 UNL     1      -2.547  25.421  29.304  1.00  0.00     0.002 C 
HETATM   35  C20 UNL     1      -3.206  24.242  28.580  1.00  0.00     0.024 C 
ENDBRANCH  29  31
ENDBRANCH  28  29
ENDBRANCH  27  28
ENDBRANCH  26  27
ENDBRANCH  23  26
ENDBRANCH  22  23
ENDBRANCH  21  22
ENDBRANCH   1  21
TORSDOF 17
ENDMDL
