MODEL 1
REMARK VINA RESULT: -7.527523360      0.000      0.000
REMARK  17 active torsions:
REMARK  status: ('A' for Active; 'I' for Inactive)
REMARK    1  A    between atoms: C4_5  and  C5_6 
REMARK    2  A    between atoms: C5_6  and  N1_7 
REMARK    3  A    between atoms: N1_7  and  C6_10 
REMARK    4  A    between atoms: C6_10  and  C7_11 
REMARK    5  A    between atoms: C7_11  and  C8_12 
REMARK    6  A    between atoms: C8_12  and  C9_13 
REMARK    7  A    between atoms: C9_13  and  N2_14 
REMARK    8  A    between atoms: N2_14  and  C10_16 
REMARK    9  A    between atoms: C10_16  and  C11_17 
REMARK   10  A    between atoms: C11_17  and  C12_18 
REMARK   11  A    between atoms: C12_18  and  C13_19 
REMARK   12  A    between atoms: C13_19  and  N3_20 
REMARK   13  A    between atoms: N3_20  and  C14_23 
REMARK   14  A    between atoms: C14_23  and  C15_24 
REMARK   15  A    between atoms: C15_24  and  C16_25 
REMARK   16  A    between atoms: C16_25  and  N4_26 
REMARK   17  A    between atoms: N4_26  and  C17_28 
ROOT
HETATM    1  N2  UNL     1      -1.046  18.323  30.810  1.00  0.00    -0.402 N 
ATOM      2  H2  UNL     1      -1.684  19.003  31.225  1.00  0.00     0.158 HD
ENDROOT
BRANCH   1   3
HETATM    3  C9  UNL     1      -0.161  17.548  31.589  1.00  0.00     0.055 C 
BRANCH   3   4
HETATM    4  C8  UNL     1       0.893  16.714  30.997  1.00  0.00     0.046 C 
BRANCH   4   5
HETATM    5  C7  UNL     1       0.874  15.256  31.284  1.00  0.00     0.032 C 
BRANCH   5   6
HETATM    6  C6  UNL     1       1.490  14.916  32.550  1.00  0.00     0.233 C 
BRANCH   6   7
HETATM    7  N1  UNL     1       0.622  14.665  33.669  1.00  0.00    -0.071 N 
ATOM      8  H12 UNL     1       0.713  13.706  34.005  1.00  0.00     0.277 HD
ATOM      9  H11 UNL     1      -0.357  14.640  33.385  1.00  0.00     0.277 HD
BRANCH   7  10
HETATM   10  C5  UNL     1       0.841  15.628  34.740  1.00  0.00     0.272 C 
BRANCH  10  11
HETATM   11  C4  UNL     1       1.578  14.916  35.850  1.00  0.00    -0.017 A 
HETATM   12  C3  UNL     1       2.961  15.142  35.987  1.00  0.00     0.015 A 
HETATM   13  C2  UNL     1       3.623  14.628  37.073  1.00  0.00     0.075 A 
HETATM   14  C1  UNL     1       2.898  13.891  37.995  1.00  0.00     0.245 A 
HETATM   15  O1  UNL     1       3.555  13.442  38.963  1.00  0.00    -0.268 OA
HETATM   16  N5  UNL     1       1.580  13.658  37.883  1.00  0.00    -0.333 N 
HETATM   17  C22 UNL     1       0.927  14.178  36.805  1.00  0.00     0.100 A 
ATOM     18  H5  UNL     1       1.083  13.109  38.584  1.00  0.00     0.168 HD
ENDBRANCH  10  11
ENDBRANCH   7  10
ENDBRANCH   6   7
ENDBRANCH   5   6
ENDBRANCH   4   5
ENDBRANCH   3   4
ENDBRANCH   1   3
BRANCH   1  19
HETATM   19  C10 UNL     1      -0.990  18.093  29.417  1.00  0.00     0.118 C 
BRANCH  19  20
HETATM   20  C11 UNL     1      -2.109  17.194  28.905  1.00  0.00     0.021 C 
BRANCH  20  21
HETATM   21  C12 UNL     1      -2.279  17.540  27.445  1.00  0.00     0.029 C 
BRANCH  21  22
HETATM   22  C13 UNL     1      -2.528  18.940  27.135  1.00  0.00     0.232 C 
BRANCH  22  23
HETATM   23  N3  UNL     1      -3.747  19.577  27.472  1.00  0.00    -0.075 N 
ATOM     24  H32 UNL     1      -4.513  18.921  27.621  1.00  0.00     0.277 HD
ATOM     25  H31 UNL     1      -3.741  19.985  28.407  1.00  0.00     0.277 HD
BRANCH  23  26
HETATM   26  C14 UNL     1      -4.029  20.571  26.404  1.00  0.00     0.237 C 
BRANCH  26  27
HETATM   27  C15 UNL     1      -3.299  21.836  26.775  1.00  0.00     0.071 C 
BRANCH  27  28
HETATM   28  C16 UNL     1      -3.643  22.309  28.181  1.00  0.00     0.057 C 
BRANCH  28  29
HETATM   29  N4  UNL     1      -2.560  22.576  29.009  1.00  0.00    -0.398 N 
ATOM     30  H4  UNL     1      -1.943  21.792  29.224  1.00  0.00     0.159 HD
BRANCH  29  31
HETATM   31  C17 UNL     1      -2.232  23.802  29.576  1.00  0.00     0.080 C 
HETATM   32  C18 UNL     1      -0.903  24.337  28.970  1.00  0.00     0.025 C 
HETATM   33  C19 UNL     1      -0.868  25.785  29.381  1.00  0.00     0.002 C 
HETATM   34  C20 UNL     1      -2.255  26.170  29.769  1.00  0.00     0.002 C 
HETATM   35  C21 UNL     1      -3.135  24.961  29.427  1.00  0.00     0.025 C 
ENDBRANCH  29  31
ENDBRANCH  28  29
ENDBRANCH  27  28
ENDBRANCH  26  27
ENDBRANCH  23  26
ENDBRANCH  22  23
ENDBRANCH  21  22
ENDBRANCH  20  21
ENDBRANCH  19  20
ENDBRANCH   1  19
TORSDOF 17
ENDMDL
MODEL 2
REMARK VINA RESULT: -7.472545132      1.162      1.552
REMARK  17 active torsions:
REMARK  status: ('A' for Active; 'I' for Inactive)
REMARK    1  A    between atoms: C4_5  and  C5_6 
REMARK    2  A    between atoms: C5_6  and  N1_7 
REMARK    3  A    between atoms: N1_7  and  C6_10 
REMARK    4  A    between atoms: C6_10  and  C7_11 
REMARK    5  A    between atoms: C7_11  and  C8_12 
REMARK    6  A    between atoms: C8_12  and  C9_13 
REMARK    7  A    between atoms: C9_13  and  N2_14 
REMARK    8  A    between atoms: N2_14  and  C10_16 
REMARK    9  A    between atoms: C10_16  and  C11_17 
REMARK   10  A    between atoms: C11_17  and  C12_18 
REMARK   11  A    between atoms: C12_18  and  C13_19 
REMARK   12  A    between atoms: C13_19  and  N3_20 
REMARK   13  A    between atoms: N3_20  and  C14_23 
REMARK   14  A    between atoms: C14_23  and  C15_24 
REMARK   15  A    between atoms: C15_24  and  C16_25 
REMARK   16  A    between atoms: C16_25  and  N4_26 
REMARK   17  A    between atoms: N4_26  and  C17_28 
ROOT
HETATM    1  N2  UNL     1       0.664  17.388  30.124  1.00  0.00    -0.402 N 
ATOM      2  H2  UNL     1       1.090  18.088  29.516  1.00  0.00     0.158 HD
ENDROOT
BRANCH   1   3
HETATM    3  C9  UNL     1       1.426  16.582  30.995  1.00  0.00     0.055 C 
BRANCH   3   4
HETATM    4  C8  UNL     1       1.521  15.123  30.845  1.00  0.00     0.046 C 
BRANCH   4   5
HETATM    5  C7  UNL     1       1.175  14.277  32.017  1.00  0.00     0.032 C 
BRANCH   5   6
HETATM    6  C6  UNL     1       0.366  14.968  33.000  1.00  0.00     0.233 C 
BRANCH   6   7
HETATM    7  N1  UNL     1       0.666  14.744  34.389  1.00  0.00    -0.071 N 
ATOM      8  H12 UNL     1       0.515  13.770  34.651  1.00  0.00     0.277 HD
ATOM      9  H11 UNL     1      -0.027  15.180  34.996  1.00  0.00     0.277 HD
BRANCH   7  10
HETATM   10  C5  UNL     1       2.016  15.182  34.720  1.00  0.00     0.272 C 
BRANCH  10  11
HETATM   11  C4  UNL     1       2.349  14.636  36.088  1.00  0.00    -0.017 A 
HETATM   12  C3  UNL     1       3.525  15.085  36.719  1.00  0.00     0.015 A 
HETATM   13  C2  UNL     1       3.773  14.721  38.018  1.00  0.00     0.075 A 
HETATM   14  C1  UNL     1       2.851  13.910  38.660  1.00  0.00     0.245 A 
HETATM   15  O1  UNL     1       3.131  13.606  39.844  1.00  0.00    -0.268 OA
HETATM   16  N5  UNL     1       1.726  13.466  38.078  1.00  0.00    -0.333 N 
HETATM   17  C22 UNL     1       1.482  13.837  36.788  1.00  0.00     0.100 A 
ATOM     18  H5  UNL     1       1.072  12.869  38.585  1.00  0.00     0.168 HD
ENDBRANCH  10  11
ENDBRANCH   7  10
ENDBRANCH   6   7
ENDBRANCH   5   6
ENDBRANCH   4   5
ENDBRANCH   3   4
ENDBRANCH   1   3
BRANCH   1  19
HETATM   19  C10 UNL     1      -0.731  17.162  30.152  1.00  0.00     0.118 C 
BRANCH  19  20
HETATM   20  C11 UNL     1      -1.539  18.397  30.530  1.00  0.00     0.021 C 
BRANCH  20  21
HETATM   21  C12 UNL     1      -2.741  18.398  29.617  1.00  0.00     0.029 C 
BRANCH  21  22
HETATM   22  C13 UNL     1      -2.537  17.875  28.274  1.00  0.00     0.232 C 
BRANCH  22  23
HETATM   23  N3  UNL     1      -2.739  18.672  27.121  1.00  0.00    -0.075 N 
ATOM     24  H32 UNL     1      -1.871  19.045  26.736  1.00  0.00     0.277 HD
ATOM     25  H31 UNL     1      -3.023  18.131  26.304  1.00  0.00     0.277 HD
BRANCH  23  26
HETATM   26  C14 UNL     1      -3.717  19.730  27.487  1.00  0.00     0.237 C 
BRANCH  26  27
HETATM   27  C15 UNL     1      -3.727  20.729  26.360  1.00  0.00     0.071 C 
BRANCH  27  28
HETATM   28  C16 UNL     1      -3.685  22.166  26.861  1.00  0.00     0.057 C 
BRANCH  28  29
HETATM   29  N4  UNL     1      -3.682  22.323  28.242  1.00  0.00    -0.398 N 
ATOM     30  H4  UNL     1      -4.383  21.797  28.764  1.00  0.00     0.159 HD
BRANCH  29  31
HETATM   31  C17 UNL     1      -2.822  23.123  28.983  1.00  0.00     0.080 C 
HETATM   32  C18 UNL     1      -3.414  24.555  29.133  1.00  0.00     0.025 C 
HETATM   33  C19 UNL     1      -2.592  25.179  30.230  1.00  0.00     0.002 C 
HETATM   34  C20 UNL     1      -1.920  24.071  30.967  1.00  0.00     0.002 C 
HETATM   35  C21 UNL     1      -2.488  22.773  30.378  1.00  0.00     0.025 C 
ENDBRANCH  29  31
ENDBRANCH  28  29
ENDBRANCH  27  28
ENDBRANCH  26  27
ENDBRANCH  23  26
ENDBRANCH  22  23
ENDBRANCH  21  22
ENDBRANCH  20  21
ENDBRANCH  19  20
ENDBRANCH   1  19
TORSDOF 17
ENDMDL
MODEL 3
REMARK VINA RESULT: -7.233558603      0.885      1.170
REMARK  17 active torsions:
REMARK  status: ('A' for Active; 'I' for Inactive)
REMARK    1  A    between atoms: C4_5  and  C5_6 
REMARK    2  A    between atoms: C5_6  and  N1_7 
REMARK    3  A    between atoms: N1_7  and  C6_10 
REMARK    4  A    between atoms: C6_10  and  C7_11 
REMARK    5  A    between atoms: C7_11  and  C8_12 
REMARK    6  A    between atoms: C8_12  and  C9_13 
REMARK    7  A    between atoms: C9_13  and  N2_14 
REMARK    8  A    between atoms: N2_14  and  C10_16 
REMARK    9  A    between atoms: C10_16  and  C11_17 
REMARK   10  A    between atoms: C11_17  and  C12_18 
REMARK   11  A    between atoms: C12_18  and  C13_19 
REMARK   12  A    between atoms: C13_19  and  N3_20 
REMARK   13  A    between atoms: N3_20  and  C14_23 
REMARK   14  A    between atoms: C14_23  and  C15_24 
REMARK   15  A    between atoms: C15_24  and  C16_25 
REMARK   16  A    between atoms: C16_25  and  N4_26 
REMARK   17  A    between atoms: N4_26  and  C17_28 
ROOT
HETATM    1  N2  UNL     1      -1.247  18.437  30.501  1.00  0.00    -0.402 N 
ATOM      2  H2  UNL     1      -2.096  18.884  30.848  1.00  0.00     0.158 HD
ENDROOT
BRANCH   1   3
HETATM    3  C9  UNL     1      -0.265  17.912  31.367  1.00  0.00     0.055 C 
BRANCH   3   4
HETATM    4  C8  UNL     1       0.573  16.760  31.010  1.00  0.00     0.046 C 
BRANCH   4   5
HETATM    5  C7  UNL     1       0.368  15.490  31.753  1.00  0.00     0.032 C 
BRANCH   5   6
HETATM    6  C6  UNL     1       1.607  14.849  32.140  1.00  0.00     0.233 C 
BRANCH   6   7
HETATM    7  N1  UNL     1       2.241  15.296  33.352  1.00  0.00    -0.071 N 
ATOM      8  H12 UNL     1       2.842  16.102  33.183  1.00  0.00     0.277 HD
ATOM      9  H11 UNL     1       2.950  14.634  33.668  1.00  0.00     0.277 HD
BRANCH   7  10
HETATM   10  C5  UNL     1       1.262  15.568  34.396  1.00  0.00     0.272 C 
BRANCH  10  11
HETATM   11  C4  UNL     1       1.738  14.885  35.656  1.00  0.00    -0.017 A 
HETATM   12  C3  UNL     1       3.067  15.095  36.070  1.00  0.00     0.015 A 
HETATM   13  C2  UNL     1       3.477  14.610  37.286  1.00  0.00     0.075 A 
HETATM   14  C1  UNL     1       2.560  13.918  38.060  1.00  0.00     0.245 A 
HETATM   15  O1  UNL     1       2.993  13.493  39.158  1.00  0.00    -0.268 OA
HETATM   16  N5  UNL     1       1.290  13.701  37.684  1.00  0.00    -0.333 N 
HETATM   17  C22 UNL     1       0.886  14.192  36.477  1.00  0.00     0.100 A 
ATOM     18  H5  UNL     1       0.646  13.185  38.283  1.00  0.00     0.168 HD
ENDBRANCH  10  11
ENDBRANCH   7  10
ENDBRANCH   6   7
ENDBRANCH   5   6
ENDBRANCH   4   5
ENDBRANCH   3   4
ENDBRANCH   1   3
BRANCH   1  19
HETATM   19  C10 UNL     1      -0.975  18.301  29.121  1.00  0.00     0.118 C 
BRANCH  19  20
HETATM   20  C11 UNL     1      -1.977  17.417  28.389  1.00  0.00     0.021 C 
BRANCH  20  21
HETATM   21  C12 UNL     1      -2.363  18.176  27.142  1.00  0.00     0.029 C 
BRANCH  21  22
HETATM   22  C13 UNL     1      -2.942  19.496  27.340  1.00  0.00     0.232 C 
BRANCH  22  23
HETATM   23  N3  UNL     1      -3.518  20.229  26.273  1.00  0.00    -0.075 N 
ATOM     24  H32 UNL     1      -3.024  20.103  25.390  1.00  0.00     0.277 HD
ATOM     25  H31 UNL     1      -4.420  19.858  25.973  1.00  0.00     0.277 HD
BRANCH  23  26
HETATM   26  C14 UNL     1      -3.587  21.649  26.706  1.00  0.00     0.237 C 
BRANCH  26  27
HETATM   27  C15 UNL     1      -2.932  21.729  28.061  1.00  0.00     0.071 C 
BRANCH  27  28
HETATM   28  C16 UNL     1      -3.499  22.858  28.911  1.00  0.00     0.057 C 
BRANCH  28  29
HETATM   29  N4  UNL     1      -3.086  24.139  28.564  1.00  0.00    -0.398 N 
ATOM     30  H4  UNL     1      -3.621  24.611  27.834  1.00  0.00     0.159 HD
BRANCH  29  31
HETATM   31  C17 UNL     1      -2.019  24.841  29.109  1.00  0.00     0.080 C 
HETATM   32  C18 UNL     1      -1.862  24.496  30.619  1.00  0.00     0.025 C 
HETATM   33  C19 UNL     1      -0.495  25.017  30.975  1.00  0.00     0.002 C 
HETATM   34  C20 UNL     1       0.253  25.208  29.700  1.00  0.00     0.002 C 
HETATM   35  C21 UNL     1      -0.649  24.640  28.596  1.00  0.00     0.025 C 
ENDBRANCH  29  31
ENDBRANCH  28  29
ENDBRANCH  27  28
ENDBRANCH  26  27
ENDBRANCH  23  26
ENDBRANCH  22  23
ENDBRANCH  21  22
ENDBRANCH  20  21
ENDBRANCH  19  20
ENDBRANCH   1  19
TORSDOF 17
ENDMDL
MODEL 4
REMARK VINA RESULT: -7.222862909      1.523      2.467
REMARK  17 active torsions:
REMARK  status: ('A' for Active; 'I' for Inactive)
REMARK    1  A    between atoms: C4_5  and  C5_6 
REMARK    2  A    between atoms: C5_6  and  N1_7 
REMARK    3  A    between atoms: N1_7  and  C6_10 
REMARK    4  A    between atoms: C6_10  and  C7_11 
REMARK    5  A    between atoms: C7_11  and  C8_12 
REMARK    6  A    between atoms: C8_12  and  C9_13 
REMARK    7  A    between atoms: C9_13  and  N2_14 
REMARK    8  A    between atoms: N2_14  and  C10_16 
REMARK    9  A    between atoms: C10_16  and  C11_17 
REMARK   10  A    between atoms: C11_17  and  C12_18 
REMARK   11  A    between atoms: C12_18  and  C13_19 
REMARK   12  A    between atoms: C13_19  and  N3_20 
REMARK   13  A    between atoms: N3_20  and  C14_23 
REMARK   14  A    between atoms: C14_23  and  C15_24 
REMARK   15  A    between atoms: C15_24  and  C16_25 
REMARK   16  A    between atoms: C16_25  and  N4_26 
REMARK   17  A    between atoms: N4_26  and  C17_28 
ROOT
HETATM    1  N2  UNL     1       0.899  15.253  30.979  1.00  0.00    -0.402 N 
ATOM      2  H2  UNL     1       1.390  14.845  30.184  1.00  0.00     0.158 HD
ENDROOT
BRANCH   1   3
HETATM    3  C9  UNL     1       1.293  15.011  32.312  1.00  0.00     0.055 C 
BRANCH   3   4
HETATM    4  C8  UNL     1       0.385  15.193  33.453  1.00  0.00     0.046 C 
BRANCH   4   5
HETATM    5  C7  UNL     1       0.521  16.431  34.263  1.00  0.00     0.032 C 
BRANCH   5   6
HETATM    6  C6  UNL     1       1.828  17.045  34.151  1.00  0.00     0.233 C 
BRANCH   6   7
HETATM    7  N1  UNL     1       2.678  17.024  35.312  1.00  0.00    -0.071 N 
ATOM      8  H12 UNL     1       2.145  17.175  36.168  1.00  0.00     0.277 HD
ATOM      9  H11 UNL     1       3.277  17.848  35.351  1.00  0.00     0.277 HD
BRANCH   7  10
HETATM   10  C5  UNL     1       3.457  15.795  35.379  1.00  0.00     0.272 C 
BRANCH  10  11
HETATM   11  C4  UNL     1       3.041  15.059  36.631  1.00  0.00    -0.017 A 
HETATM   12  C3  UNL     1       3.476  15.554  37.875  1.00  0.00     0.015 A 
HETATM   13  C2  UNL     1       2.991  14.994  39.029  1.00  0.00     0.075 A 
HETATM   14  C1  UNL     1       2.089  13.947  38.923  1.00  0.00     0.245 A 
HETATM   15  O1  UNL     1       1.684  13.472  40.010  1.00  0.00    -0.268 OA
HETATM   16  N5  UNL     1       1.663  13.456  37.749  1.00  0.00    -0.333 N 
HETATM   17  C22 UNL     1       2.145  14.020  36.604  1.00  0.00     0.100 A 
ATOM     18  H5  UNL     1       0.999  12.682  37.713  1.00  0.00     0.168 HD
ENDBRANCH  10  11
ENDBRANCH   7  10
ENDBRANCH   6   7
ENDBRANCH   5   6
ENDBRANCH   4   5
ENDBRANCH   3   4
ENDBRANCH   1   3
BRANCH   1  19
HETATM   19  C10 UNL     1      -0.221  16.100  30.821  1.00  0.00     0.118 C 
BRANCH  19  20
HETATM   20  C11 UNL     1       0.150  17.556  30.568  1.00  0.00     0.021 C 
BRANCH  20  21
HETATM   21  C12 UNL     1      -0.933  18.107  29.673  1.00  0.00     0.029 C 
BRANCH  21  22
HETATM   22  C13 UNL     1      -2.083  18.705  30.337  1.00  0.00     0.232 C 
BRANCH  22  23
HETATM   23  N3  UNL     1      -3.348  18.795  29.707  1.00  0.00    -0.075 N 
ATOM     24  H32 UNL     1      -4.019  18.111  30.057  1.00  0.00     0.277 HD
ATOM     25  H31 UNL     1      -3.867  19.633  29.970  1.00  0.00     0.277 HD
BRANCH  23  26
HETATM   26  C14 UNL     1      -3.116  18.689  28.243  1.00  0.00     0.237 C 
BRANCH  26  27
HETATM   27  C15 UNL     1      -3.946  19.761  27.586  1.00  0.00     0.071 C 
BRANCH  27  28
HETATM   28  C16 UNL     1      -3.102  20.937  27.114  1.00  0.00     0.057 C 
BRANCH  28  29
HETATM   29  N4  UNL     1      -3.412  22.167  27.682  1.00  0.00    -0.398 N 
ATOM     30  H4  UNL     1      -4.279  22.608  27.375  1.00  0.00     0.159 HD
BRANCH  29  31
HETATM   31  C17 UNL     1      -2.659  22.857  28.624  1.00  0.00     0.080 C 
HETATM   32  C18 UNL     1      -3.182  24.315  28.769  1.00  0.00     0.025 C 
HETATM   33  C19 UNL     1      -2.545  24.811  30.040  1.00  0.00     0.002 C 
HETATM   34  C20 UNL     1      -2.089  23.614  30.803  1.00  0.00     0.002 C 
HETATM   35  C21 UNL     1      -2.613  22.398  30.027  1.00  0.00     0.025 C 
ENDBRANCH  29  31
ENDBRANCH  28  29
ENDBRANCH  27  28
ENDBRANCH  26  27
ENDBRANCH  23  26
ENDBRANCH  22  23
ENDBRANCH  21  22
ENDBRANCH  20  21
ENDBRANCH  19  20
ENDBRANCH   1  19
TORSDOF 17
ENDMDL
MODEL 5
REMARK VINA RESULT: -7.209870996      1.144      1.356
REMARK  17 active torsions:
REMARK  status: ('A' for Active; 'I' for Inactive)
REMARK    1  A    between atoms: C4_5  and  C5_6 
REMARK    2  A    between atoms: C5_6  and  N1_7 
REMARK    3  A    between atoms: N1_7  and  C6_10 
REMARK    4  A    between atoms: C6_10  and  C7_11 
REMARK    5  A    between atoms: C7_11  and  C8_12 
REMARK    6  A    between atoms: C8_12  and  C9_13 
REMARK    7  A    between atoms: C9_13  and  N2_14 
REMARK    8  A    between atoms: N2_14  and  C10_16 
REMARK    9  A    between atoms: C10_16  and  C11_17 
REMARK   10  A    between atoms: C11_17  and  C12_18 
REMARK   11  A    between atoms: C12_18  and  C13_19 
REMARK   12  A    between atoms: C13_19  and  N3_20 
REMARK   13  A    between atoms: N3_20  and  C14_23 
REMARK   14  A    between atoms: C14_23  and  C15_24 
REMARK   15  A    between atoms: C15_24  and  C16_25 
REMARK   16  A    between atoms: C16_25  and  N4_26 
REMARK   17  A    between atoms: N4_26  and  C17_28 
ROOT
HETATM    1  N2  UNL     1       0.003  17.891  31.257  1.00  0.00    -0.402 N 
ATOM      2  H2  UNL     1       0.172  18.157  32.227  1.00  0.00     0.158 HD
ENDROOT
BRANCH   1   3
HETATM    3  C9  UNL     1       0.909  17.093  30.527  1.00  0.00     0.055 C 
BRANCH   3   4
HETATM    4  C8  UNL     1       1.657  15.984  31.135  1.00  0.00     0.046 C 
BRANCH   4   5
HETATM    5  C7  UNL     1       0.924  14.724  31.427  1.00  0.00     0.032 C 
BRANCH   5   6
HETATM    6  C6  UNL     1       0.470  14.634  32.798  1.00  0.00     0.233 C 
BRANCH   6   7
HETATM    7  N1  UNL     1       1.446  14.821  33.840  1.00  0.00    -0.071 N 
ATOM      8  H12 UNL     1       2.343  15.123  33.460  1.00  0.00     0.277 HD
ATOM      9  H11 UNL     1       1.736  13.931  34.243  1.00  0.00     0.277 HD
BRANCH   7  10
HETATM   10  C5  UNL     1       0.963  15.738  34.863  1.00  0.00     0.272 C 
BRANCH  10  11
HETATM   11  C4  UNL     1       1.376  15.183  36.205  1.00  0.00    -0.017 A 
HETATM   12  C3  UNL     1       1.086  15.935  37.359  1.00  0.00     0.015 A 
HETATM   13  C2  UNL     1       1.315  15.387  38.596  1.00  0.00     0.075 A 
HETATM   14  C1  UNL     1       1.836  14.105  38.659  1.00  0.00     0.245 A 
HETATM   15  O1  UNL     1       2.030  13.657  39.814  1.00  0.00    -0.268 OA
HETATM   16  N5  UNL     1       2.125  13.370  37.573  1.00  0.00    -0.333 N 
HETATM   17  C22 UNL     1       1.889  13.918  36.346  1.00  0.00     0.100 A 
ATOM     18  H5  UNL     1       2.509  12.429  37.662  1.00  0.00     0.168 HD
ENDBRANCH  10  11
ENDBRANCH   7  10
ENDBRANCH   6   7
ENDBRANCH   5   6
ENDBRANCH   4   5
ENDBRANCH   3   4
ENDBRANCH   1   3
BRANCH   1  19
HETATM   19  C10 UNL     1      -1.154  18.295  30.554  1.00  0.00     0.118 C 
BRANCH  19  20
HETATM   20  C11 UNL     1      -1.564  17.324  29.453  1.00  0.00     0.021 C 
BRANCH  20  21
HETATM   21  C12 UNL     1      -1.555  18.126  28.174  1.00  0.00     0.029 C 
BRANCH  21  22
HETATM   22  C13 UNL     1      -2.854  18.487  27.625  1.00  0.00     0.232 C 
BRANCH  22  23
HETATM   23  N3  UNL     1      -3.529  19.669  28.013  1.00  0.00    -0.075 N 
ATOM     24  H32 UNL     1      -4.197  19.518  28.769  1.00  0.00     0.277 HD
ATOM     25  H31 UNL     1      -2.927  20.333  28.501  1.00  0.00     0.277 HD
BRANCH  23  26
HETATM   26  C14 UNL     1      -4.152  20.239  26.790  1.00  0.00     0.237 C 
BRANCH  26  27
HETATM   27  C15 UNL     1      -3.538  21.598  26.576  1.00  0.00     0.071 C 
BRANCH  27  28
HETATM   28  C16 UNL     1      -2.927  22.163  27.852  1.00  0.00     0.057 C 
BRANCH  28  29
HETATM   29  N4  UNL     1      -3.197  23.501  28.109  1.00  0.00    -0.398 N 
ATOM     30  H4  UNL     1      -3.432  24.084  27.305  1.00  0.00     0.159 HD
BRANCH  29  31
HETATM   31  C17 UNL     1      -3.178  24.127  29.349  1.00  0.00     0.080 C 
HETATM   32  C18 UNL     1      -2.248  23.353  30.329  1.00  0.00     0.025 C 
HETATM   33  C19 UNL     1      -2.036  24.313  31.469  1.00  0.00     0.002 C 
HETATM   34  C20 UNL     1      -2.405  25.672  30.981  1.00  0.00     0.002 C 
HETATM   35  C21 UNL     1      -2.690  25.514  29.481  1.00  0.00     0.025 C 
ENDBRANCH  29  31
ENDBRANCH  28  29
ENDBRANCH  27  28
ENDBRANCH  26  27
ENDBRANCH  23  26
ENDBRANCH  22  23
ENDBRANCH  21  22
ENDBRANCH  20  21
ENDBRANCH  19  20
ENDBRANCH   1  19
TORSDOF 17
ENDMDL
