MODEL 1
REMARK VINA RESULT: -10.345894246      0.000      0.000
REMARK  15 active torsions:
REMARK  status: ('A' for Active; 'I' for Inactive)
REMARK       I    between atoms: N1_2  and  C2_4 
REMARK    1  A    between atoms: C2_4  and  C3_6 
REMARK    2  A    between atoms: C7_15  and  N4_16 
REMARK    3  A    between atoms: N4_16  and  C8_18 
REMARK    4  A    between atoms: C8_18  and  C9_19 
REMARK    5  A    between atoms: C8_18  and  C10_26 
REMARK       I    between atoms: C9_19  and  N5_21 
REMARK    6  A    between atoms: N5_21  and  N6_23 
REMARK    7  A    between atoms: C10_26  and  C11_28 
REMARK    8  A    between atoms: C11_28  and  C12_29 
REMARK    9  A    between atoms: C11_28  and  N11_49 
REMARK   10  A    between atoms: C12_29  and  C13_30 
REMARK   11  A    between atoms: N7_32  and  C15_33 
REMARK   12  A    between atoms: C15_33  and  C16_34 
REMARK   13  A    between atoms: C16_34  and  O4_35 
REMARK   14  A    between atoms: C18_40  and  N9_41 
REMARK       I    between atoms: N11_49  and  C21_51 
REMARK   15  A    between atoms: C21_51  and  C22_53 
ROOT
HETATM    1  C11 UNL     1      -0.529 -43.947 -24.031  1.00  0.00     0.161 C 
ENDROOT
BRANCH   1   2
HETATM    2  C10 UNL     1      -0.180 -42.692 -24.593  1.00  0.00     0.181 C 
HETATM    3  O3  UNL     1      -0.236 -42.335 -25.721  1.00  0.00    -0.293 OA
BRANCH   2   4
HETATM    4  C8  UNL     1       0.382 -41.554 -23.690  1.00  0.00     0.248 C 
BRANCH   4   5
HETATM    5  N4  UNL     1      -0.175 -40.286 -24.042  1.00  0.00    -0.370 N 
ATOM      6  H4  UNL     1       0.442 -39.655 -24.553  1.00  0.00     0.161 HD
BRANCH   5   7
HETATM    7  C7  UNL     1      -1.480 -39.793 -23.770  1.00  0.00     0.049 A 
HETATM    8  C3  UNL     1      -1.863 -39.558 -22.450  1.00  0.00     0.073 A 
HETATM    9  C4  UNL     1      -3.193 -39.151 -22.214  1.00  0.00     0.109 A 
HETATM   10  N2  UNL     1      -4.068 -38.993 -23.185  1.00  0.00    -0.352 N 
HETATM   11  C5  UNL     1      -3.723 -39.211 -24.469  1.00  0.00     0.100 A 
ATOM     12  H2  UNL     1      -5.019 -38.701 -22.961  1.00  0.00     0.166 HD
HETATM   13  N3  UNL     1      -4.542 -39.082 -25.387  1.00  0.00    -0.385 N 
HETATM   14  C6  UNL     1      -2.408 -39.615 -24.750  1.00  0.00     0.078 A 
ATOM     15  H32 UNL     1      -5.497 -38.789 -25.183  1.00  0.00     0.157 HD
ATOM     16  H31 UNL     1      -4.281 -39.247 -26.359  1.00  0.00     0.157 HD
BRANCH   8  17
HETATM   17  C2  UNL     1      -0.982 -39.548 -21.311  1.00  0.00     0.254 C 
HETATM   18  N1  UNL     1      -1.325 -40.196 -20.100  1.00  0.00    -0.361 N 
HETATM   19  C1  UNL     1      -0.366 -40.128 -18.986  1.00  0.00     0.149 C 
ATOM     20  H1  UNL     1      -2.210 -40.693 -20.002  1.00  0.00     0.162 HD
HETATM   21  O1  UNL     1       0.139 -38.940 -21.374  1.00  0.00    -0.268 OA
ENDBRANCH   8  17
ENDBRANCH   5   7
ENDBRANCH   4   5
BRANCH   4  22
HETATM   22  C9  UNL     1       1.836 -41.599 -24.122  1.00  0.00     0.265 C 
HETATM   23  O2  UNL     1       2.690 -41.096 -23.388  1.00  0.00    -0.269 OA
HETATM   24  N5  UNL     1       2.190 -42.205 -25.342  1.00  0.00    -0.275 N 
ATOM     25  H5  UNL     1       1.488 -42.623 -25.953  1.00  0.00     0.189 HD
BRANCH  24  26
HETATM   26  N6  UNL     1       3.564 -42.207 -25.683  1.00  0.00    -0.343 N 
ATOM     27  H62 UNL     1       4.153 -41.402 -25.470  1.00  0.00     0.176 HD
ATOM     28  H61 UNL     1       3.924 -43.042 -26.144  1.00  0.00     0.176 HD
ENDBRANCH  24  26
ENDBRANCH   4  22
ENDBRANCH   2   4
ENDBRANCH   1   2
BRANCH   1  29
HETATM   29  C12 UNL     1       0.361 -45.129 -24.395  1.00  0.00     0.074 C 
BRANCH  29  30
HETATM   30  C13 UNL     1       0.544 -45.404 -25.803  1.00  0.00    -0.021 A 
HETATM   31  C14 UNL     1      -0.449 -45.635 -26.763  1.00  0.00     0.101 A 
HETATM   32  N7  UNL     1       0.104 -46.008 -27.932  1.00  0.00    -0.339 N 
HETATM   33  C17 UNL     1       1.436 -46.032 -27.790  1.00  0.00     0.139 A 
HETATM   34  N8  UNL     1       2.455 -46.308 -28.665  1.00  0.00    -0.176 N 
HETATM   35  C20 UNL     1       1.721 -45.658 -26.482  1.00  0.00     0.085 A 
HETATM   36  C18 UNL     1       3.718 -46.221 -28.289  1.00  0.00     0.680 A 
ATOM     37  H8  UNL     1       2.234 -46.584 -29.621  1.00  0.00     0.186 HD
HETATM   38  N10 UNL     1       4.023 -45.859 -27.047  1.00  0.00    -0.155 N 
HETATM   39  C19 UNL     1       3.056 -45.586 -26.176  1.00  0.00     0.274 A 
ATOM     40  H10 UNL     1       5.000 -45.792 -26.761  1.00  0.00     0.187 HD
HETATM   41  O5  UNL     1       3.418 -45.235 -25.017  1.00  0.00    -0.267 OA
BRANCH  32  42
HETATM   42  C15 UNL     1      -0.619 -46.356 -29.137  1.00  0.00     0.156 C 
BRANCH  42  43
HETATM   43  C16 UNL     1      -1.785 -47.296 -28.911  1.00  0.00     0.184 C 
BRANCH  43  44
HETATM   44  O4  UNL     1      -1.428 -48.596 -28.662  1.00  0.00    -0.399 OA
ATOM     45  H4  UNL     1      -2.075 -49.097 -28.180  1.00  0.00     0.209 HD
ENDBRANCH  43  44
ENDBRANCH  42  43
ENDBRANCH  32  42
BRANCH  36  46
HETATM   46  N9  UNL     1       4.686 -46.485 -29.092  1.00  0.00    -0.234 N 
ATOM     47  H92 UNL     1       4.559 -46.265 -30.080  1.00  0.00     0.174 HD
ATOM     48  H91 UNL     1       5.561 -46.895 -28.765  1.00  0.00     0.174 HD
ENDBRANCH  36  46
ENDBRANCH  29  30
ENDBRANCH   1  29
BRANCH   1  49
HETATM   49  N11 UNL     1      -0.733 -43.978 -22.571  1.00  0.00    -0.343 N 
HETATM   50  C21 UNL     1      -1.961 -43.451 -22.133  1.00  0.00     0.276 C 
HETATM   51  O6  UNL     1      -2.765 -42.987 -23.017  1.00  0.00    -0.265 OA
ATOM     52  H11 UNL     1      -0.037 -44.354 -21.928  1.00  0.00     0.163 HD
BRANCH  50  53
HETATM   53  C22 UNL     1      -2.370 -43.395 -20.757  1.00  0.00     0.146 A 
HETATM   54  C23 UNL     1      -1.691 -44.108 -19.723  1.00  0.00     0.059 A 
HETATM   55  C24 UNL     1      -2.327 -43.834 -18.544  1.00  0.00     0.018 A 
HETATM   56  C25 UNL     1      -2.123 -44.233 -17.239  1.00  0.00     0.021 A 
HETATM   57  C28 UNL     1      -3.357 -42.984 -18.866  1.00  0.00     0.161 A 
HETATM   58  C26 UNL     1      -2.960 -43.770 -16.232  1.00  0.00     0.075 A 
HETATM   59  C27 UNL     1      -3.985 -42.914 -16.586  1.00  0.00     0.247 A 
HETATM   60  O7  UNL     1      -4.735 -42.494 -15.677  1.00  0.00    -0.268 OA
HETATM   61  N12 UNL     1      -4.154 -42.549 -17.876  1.00  0.00    -0.303 N 
ATOM     62  H12 UNL     1      -4.920 -41.916 -18.109  1.00  0.00     0.171 HD
HETATM   63  O8  UNL     1      -3.343 -42.756 -20.170  1.00  0.00    -0.287 OA
ENDBRANCH  50  53
ENDBRANCH   1  49
TORSDOF 15
ENDMDL
MODEL 2
REMARK VINA RESULT: -10.126168880      2.247      5.284
REMARK  15 active torsions:
REMARK  status: ('A' for Active; 'I' for Inactive)
REMARK       I    between atoms: N1_2  and  C2_4 
REMARK    1  A    between atoms: C2_4  and  C3_6 
REMARK    2  A    between atoms: C7_15  and  N4_16 
REMARK    3  A    between atoms: N4_16  and  C8_18 
REMARK    4  A    between atoms: C8_18  and  C9_19 
REMARK    5  A    between atoms: C8_18  and  C10_26 
REMARK       I    between atoms: C9_19  and  N5_21 
REMARK    6  A    between atoms: N5_21  and  N6_23 
REMARK    7  A    between atoms: C10_26  and  C11_28 
REMARK    8  A    between atoms: C11_28  and  C12_29 
REMARK    9  A    between atoms: C11_28  and  N11_49 
REMARK   10  A    between atoms: C12_29  and  C13_30 
REMARK   11  A    between atoms: N7_32  and  C15_33 
REMARK   12  A    between atoms: C15_33  and  C16_34 
REMARK   13  A    between atoms: C16_34  and  O4_35 
REMARK   14  A    between atoms: C18_40  and  N9_41 
REMARK       I    between atoms: N11_49  and  C21_51 
REMARK   15  A    between atoms: C21_51  and  C22_53 
ROOT
HETATM    1  C11 UNL     1       0.804 -42.994 -23.566  1.00  0.00     0.161 C 
ENDROOT
BRANCH   1   2
HETATM    2  C10 UNL     1       0.682 -44.223 -22.869  1.00  0.00     0.181 C 
HETATM    3  O3  UNL     1       1.483 -45.081 -22.718  1.00  0.00    -0.293 OA
BRANCH   2   4
HETATM    4  C8  UNL     1      -0.661 -44.606 -22.179  1.00  0.00     0.248 C 
BRANCH   4   5
HETATM    5  N4  UNL     1      -0.795 -43.967 -20.907  1.00  0.00    -0.370 N 
ATOM      6  H4  UNL     1      -0.010 -44.079 -20.267  1.00  0.00     0.161 HD
BRANCH   5   7
HETATM    7  C7  UNL     1      -1.886 -43.195 -20.423  1.00  0.00     0.049 A 
HETATM    8  C3  UNL     1      -2.450 -43.504 -19.187  1.00  0.00     0.073 A 
HETATM    9  C4  UNL     1      -3.585 -42.772 -18.779  1.00  0.00     0.109 A 
HETATM   10  N2  UNL     1      -4.118 -41.824 -19.520  1.00  0.00    -0.352 N 
HETATM   11  C5  UNL     1      -3.591 -41.503 -20.718  1.00  0.00     0.100 A 
ATOM     12  H2  UNL     1      -4.942 -41.325 -19.182  1.00  0.00     0.166 HD
HETATM   13  N3  UNL     1      -4.095 -40.626 -21.430  1.00  0.00    -0.385 N 
HETATM   14  C6  UNL     1      -2.460 -42.205 -21.162  1.00  0.00     0.078 A 
ATOM     15  H32 UNL     1      -4.918 -40.115 -21.107  1.00  0.00     0.157 HD
ATOM     16  H31 UNL     1      -3.696 -40.383 -22.337  1.00  0.00     0.157 HD
BRANCH   8  17
HETATM   17  C2  UNL     1      -1.892 -44.407 -18.214  1.00  0.00     0.254 C 
HETATM   18  N1  UNL     1      -2.668 -44.927 -17.149  1.00  0.00    -0.361 N 
HETATM   19  C1  UNL     1      -2.013 -45.838 -16.198  1.00  0.00     0.149 C 
ATOM     20  H1  UNL     1      -3.651 -44.677 -17.045  1.00  0.00     0.162 HD
HETATM   21  O1  UNL     1      -0.667 -44.755 -18.292  1.00  0.00    -0.268 OA
ENDBRANCH   8  17
ENDBRANCH   5   7
ENDBRANCH   4   5
BRANCH   4  22
HETATM   22  C9  UNL     1      -0.411 -46.088 -21.969  1.00  0.00     0.265 C 
HETATM   23  O2  UNL     1      -0.788 -46.883 -22.832  1.00  0.00    -0.269 OA
HETATM   24  N5  UNL     1       0.238 -46.534 -20.802  1.00  0.00    -0.275 N 
ATOM     25  H5  UNL     1       0.552 -45.881 -20.084  1.00  0.00     0.189 HD
BRANCH  24  26
HETATM   26  N6  UNL     1       0.435 -47.930 -20.670  1.00  0.00    -0.343 N 
ATOM     27  H62 UNL     1      -0.245 -48.588 -21.052  1.00  0.00     0.176 HD
ATOM     28  H61 UNL     1       1.277 -48.234 -20.182  1.00  0.00     0.176 HD
ENDBRANCH  24  26
ENDBRANCH   4  22
ENDBRANCH   2   4
ENDBRANCH   1   2
BRANCH   1  29
HETATM   29  C12 UNL     1       1.723 -42.987 -24.782  1.00  0.00     0.074 C 
BRANCH  29  30
HETATM   30  C13 UNL     1       1.487 -44.000 -25.788  1.00  0.00    -0.021 A 
HETATM   31  C14 UNL     1       0.284 -44.660 -26.068  1.00  0.00     0.101 A 
HETATM   32  N7  UNL     1       0.484 -45.644 -26.963  1.00  0.00    -0.339 N 
HETATM   33  C17 UNL     1       1.782 -45.667 -27.295  1.00  0.00     0.139 A 
HETATM   34  N8  UNL     1       2.500 -46.438 -28.174  1.00  0.00    -0.176 N 
HETATM   35  C20 UNL     1       2.412 -44.654 -26.579  1.00  0.00     0.085 A 
HETATM   36  C18 UNL     1       3.792 -46.234 -28.360  1.00  0.00     0.680 A 
ATOM     37  H8  UNL     1       2.029 -47.179 -28.691  1.00  0.00     0.186 HD
HETATM   38  N10 UNL     1       4.420 -45.270 -27.695  1.00  0.00    -0.155 N 
HETATM   39  C19 UNL     1       3.750 -44.507 -26.837  1.00  0.00     0.274 A 
ATOM     40  H10 UNL     1       5.417 -45.115 -27.844  1.00  0.00     0.187 HD
HETATM   41  O5  UNL     1       4.407 -43.600 -26.250  1.00  0.00    -0.267 OA
BRANCH  32  42
HETATM   42  C15 UNL     1      -0.526 -46.552 -27.463  1.00  0.00     0.156 C 
BRANCH  42  43
HETATM   43  C16 UNL     1      -0.901 -46.325 -28.912  1.00  0.00     0.184 C 
BRANCH  43  44
HETATM   44  O4  UNL     1      -1.874 -45.379 -29.106  1.00  0.00    -0.399 OA
ATOM     45  H4  UNL     1      -1.663 -44.725 -29.762  1.00  0.00     0.209 HD
ENDBRANCH  43  44
ENDBRANCH  42  43
ENDBRANCH  32  42
BRANCH  36  46
HETATM   46  N9  UNL     1       4.482 -46.953 -29.171  1.00  0.00    -0.234 N 
ATOM     47  H92 UNL     1       3.983 -47.463 -29.900  1.00  0.00     0.174 HD
ATOM     48  H91 UNL     1       5.498 -47.016 -29.105  1.00  0.00     0.174 HD
ENDBRANCH  36  46
ENDBRANCH  29  30
ENDBRANCH   1  29
BRANCH   1  49
HETATM   49  N11 UNL     1      -0.455 -42.333 -23.957  1.00  0.00    -0.343 N 
HETATM   50  C21 UNL     1      -0.524 -40.962 -23.653  1.00  0.00     0.276 C 
HETATM   51  O6  UNL     1       0.480 -40.428 -23.062  1.00  0.00    -0.265 OA
ATOM     52  H11 UNL     1      -1.217 -42.833 -24.415  1.00  0.00     0.163 HD
BRANCH  50  53
HETATM   53  C22 UNL     1      -1.651 -40.124 -23.958  1.00  0.00     0.146 A 
HETATM   54  C23 UNL     1      -1.822 -38.827 -23.387  1.00  0.00     0.059 A 
HETATM   55  C24 UNL     1      -2.981 -38.304 -23.887  1.00  0.00     0.018 A 
HETATM   56  C25 UNL     1      -3.644 -37.108 -23.696  1.00  0.00     0.021 A 
HETATM   57  C28 UNL     1      -3.488 -39.261 -24.731  1.00  0.00     0.161 A 
HETATM   58  C26 UNL     1      -4.835 -36.860 -24.366  1.00  0.00     0.075 A 
HETATM   59  C27 UNL     1      -5.318 -37.841 -25.211  1.00  0.00     0.247 A 
HETATM   60  O7  UNL     1      -6.389 -37.614 -25.818  1.00  0.00    -0.268 OA
HETATM   61  N12 UNL     1      -4.641 -39.000 -25.369  1.00  0.00    -0.303 N 
ATOM     62  H12 UNL     1      -5.022 -39.707 -25.998  1.00  0.00     0.171 HD
HETATM   63  O8  UNL     1      -2.677 -40.308 -24.740  1.00  0.00    -0.287 OA
ENDBRANCH  50  53
ENDBRANCH   1  49
TORSDOF 15
ENDMDL
MODEL 3
REMARK VINA RESULT: -10.123029669      2.382      5.355
REMARK  15 active torsions:
REMARK  status: ('A' for Active; 'I' for Inactive)
REMARK       I    between atoms: N1_2  and  C2_4 
REMARK    1  A    between atoms: C2_4  and  C3_6 
REMARK    2  A    between atoms: C7_15  and  N4_16 
REMARK    3  A    between atoms: N4_16  and  C8_18 
REMARK    4  A    between atoms: C8_18  and  C9_19 
REMARK    5  A    between atoms: C8_18  and  C10_26 
REMARK       I    between atoms: C9_19  and  N5_21 
REMARK    6  A    between atoms: N5_21  and  N6_23 
REMARK    7  A    between atoms: C10_26  and  C11_28 
REMARK    8  A    between atoms: C11_28  and  C12_29 
REMARK    9  A    between atoms: C11_28  and  N11_49 
REMARK   10  A    between atoms: C12_29  and  C13_30 
REMARK   11  A    between atoms: N7_32  and  C15_33 
REMARK   12  A    between atoms: C15_33  and  C16_34 
REMARK   13  A    between atoms: C16_34  and  O4_35 
REMARK   14  A    between atoms: C18_40  and  N9_41 
REMARK       I    between atoms: N11_49  and  C21_51 
REMARK   15  A    between atoms: C21_51  and  C22_53 
ROOT
HETATM    1  C11 UNL     1       0.152 -42.110 -23.275  1.00  0.00     0.161 C 
ENDROOT
BRANCH   1   2
HETATM    2  C10 UNL     1       0.172 -43.390 -22.666  1.00  0.00     0.181 C 
HETATM    3  O3  UNL     1       0.999 -44.236 -22.726  1.00  0.00    -0.293 OA
BRANCH   2   4
HETATM    4  C8  UNL     1      -1.022 -43.860 -21.783  1.00  0.00     0.248 C 
BRANCH   4   5
HETATM    5  N4  UNL     1      -0.868 -43.435 -20.428  1.00  0.00    -0.370 N 
ATOM      6  H4  UNL     1      -0.017 -43.743 -19.957  1.00  0.00     0.161 HD
BRANCH   5   7
HETATM    7  C7  UNL     1      -1.752 -42.636 -19.652  1.00  0.00     0.049 A 
HETATM    8  C3  UNL     1      -2.276 -43.147 -18.466  1.00  0.00     0.073 A 
HETATM    9  C4  UNL     1      -3.216 -42.359 -17.768  1.00  0.00     0.109 A 
HETATM   10  N2  UNL     1      -3.606 -41.178 -18.199  1.00  0.00    -0.352 N 
HETATM   11  C5  UNL     1      -3.113 -40.659 -19.340  1.00  0.00     0.100 A 
ATOM     12  H2  UNL     1      -4.292 -40.648 -17.660  1.00  0.00     0.166 HD
HETATM   13  N3  UNL     1      -3.486 -39.558 -19.762  1.00  0.00    -0.385 N 
HETATM   14  C6  UNL     1      -2.173 -41.408 -20.065  1.00  0.00     0.078 A 
ATOM     15  H32 UNL     1      -4.169 -39.013 -19.235  1.00  0.00     0.157 HD
ATOM     16  H31 UNL     1      -3.112 -39.165 -20.626  1.00  0.00     0.157 HD
BRANCH   8  17
HETATM   17  C2  UNL     1      -1.837 -44.348 -17.805  1.00  0.00     0.254 C 
HETATM   18  N1  UNL     1      -2.605 -44.960 -16.785  1.00  0.00    -0.361 N 
HETATM   19  C1  UNL     1      -2.075 -46.182 -16.160  1.00  0.00     0.149 C 
ATOM     20  H1  UNL     1      -3.499 -44.566 -16.493  1.00  0.00     0.162 HD
HETATM   21  O1  UNL     1      -0.725 -44.887 -18.127  1.00  0.00    -0.268 OA
ENDBRANCH   8  17
ENDBRANCH   5   7
ENDBRANCH   4   5
BRANCH   4  22
HETATM   22  C9  UNL     1      -0.806 -45.361 -21.862  1.00  0.00     0.265 C 
HETATM   23  O2  UNL     1      -1.358 -45.994 -22.765  1.00  0.00    -0.269 OA
HETATM   24  N5  UNL     1       0.010 -46.006 -20.914  1.00  0.00    -0.275 N 
ATOM     25  H5  UNL     1       0.470 -45.487 -20.165  1.00  0.00     0.189 HD
BRANCH  24  26
HETATM   26  N6  UNL     1       0.164 -47.407 -21.047  1.00  0.00    -0.343 N 
ATOM     27  H62 UNL     1       0.625 -47.803 -21.866  1.00  0.00     0.176 HD
ATOM     28  H61 UNL     1      -0.205 -47.986 -20.292  1.00  0.00     0.176 HD
ENDBRANCH  24  26
ENDBRANCH   4  22
ENDBRANCH   2   4
ENDBRANCH   1   2
BRANCH   1  29
HETATM   29  C12 UNL     1       0.907 -41.969 -24.592  1.00  0.00     0.074 C 
BRANCH  29  30
HETATM   30  C13 UNL     1       0.966 -43.137 -25.443  1.00  0.00    -0.021 A 
HETATM   31  C14 UNL     1      -0.096 -43.964 -25.830  1.00  0.00     0.101 A 
HETATM   32  N7  UNL     1       0.364 -45.039 -26.496  1.00  0.00    -0.339 N 
HETATM   33  C17 UNL     1       1.699 -44.959 -26.573  1.00  0.00     0.139 A 
HETATM   34  N8  UNL     1       2.642 -45.762 -27.163  1.00  0.00    -0.176 N 
HETATM   35  C20 UNL     1       2.083 -43.788 -25.930  1.00  0.00     0.085 A 
HETATM   36  C18 UNL     1       3.923 -45.440 -27.137  1.00  0.00     0.680 A 
ATOM     37  H8  UNL     1       2.349 -46.620 -27.630  1.00  0.00     0.186 HD
HETATM   38  N10 UNL     1       4.320 -44.324 -26.536  1.00  0.00    -0.155 N 
HETATM   39  C19 UNL     1       3.429 -43.526 -25.955  1.00  0.00     0.274 A 
ATOM     40  H10 UNL     1       5.310 -44.078 -26.519  1.00  0.00     0.187 HD
HETATM   41  O5  UNL     1       3.875 -42.474 -25.414  1.00  0.00    -0.267 OA
BRANCH  32  42
HETATM   42  C15 UNL     1      -0.444 -46.120 -27.019  1.00  0.00     0.156 C 
BRANCH  42  43
HETATM   43  C16 UNL     1      -0.644 -46.076 -28.520  1.00  0.00     0.184 C 
BRANCH  43  44
HETATM   44  O4  UNL     1      -1.810 -45.476 -28.920  1.00  0.00    -0.399 OA
ATOM     45  H4  UNL     1      -2.201 -45.854 -29.698  1.00  0.00     0.209 HD
ENDBRANCH  43  44
ENDBRANCH  42  43
ENDBRANCH  32  42
BRANCH  36  46
HETATM   46  N9  UNL     1       4.821 -46.185 -27.676  1.00  0.00    -0.234 N 
ATOM     47  H92 UNL     1       5.089 -45.987 -28.640  1.00  0.00     0.174 HD
ATOM     48  H91 UNL     1       5.265 -46.949 -27.166  1.00  0.00     0.174 HD
ENDBRANCH  36  46
ENDBRANCH  29  30
ENDBRANCH   1  29
BRANCH   1  49
HETATM   49  N11 UNL     1      -1.173 -41.489 -23.454  1.00  0.00    -0.343 N 
HETATM   50  C21 UNL     1      -1.219 -40.108 -23.194  1.00  0.00     0.276 C 
HETATM   51  O6  UNL     1      -0.138 -39.531 -22.818  1.00  0.00    -0.265 OA
ATOM     52  H11 UNL     1      -1.993 -42.020 -23.745  1.00  0.00     0.163 HD
BRANCH  50  53
HETATM   53  C22 UNL     1      -2.403 -39.303 -23.319  1.00  0.00     0.146 A 
HETATM   54  C23 UNL     1      -3.108 -39.156 -24.552  1.00  0.00     0.059 A 
HETATM   55  C24 UNL     1      -4.178 -38.337 -24.323  1.00  0.00     0.018 A 
HETATM   56  C25 UNL     1      -5.189 -37.849 -25.125  1.00  0.00     0.021 A 
HETATM   57  C28 UNL     1      -4.114 -38.004 -22.992  1.00  0.00     0.161 A 
HETATM   58  C26 UNL     1      -6.162 -37.015 -24.586  1.00  0.00     0.075 A 
HETATM   59  C27 UNL     1      -6.072 -36.700 -23.244  1.00  0.00     0.247 A 
HETATM   60  O7  UNL     1      -6.950 -35.953 -22.759  1.00  0.00    -0.268 OA
HETATM   61  N12 UNL     1      -5.063 -37.196 -22.492  1.00  0.00    -0.303 N 
ATOM     62  H12 UNL     1      -5.022 -36.946 -21.504  1.00  0.00     0.171 HD
HETATM   63  O8  UNL     1      -3.059 -38.591 -22.447  1.00  0.00    -0.287 OA
ENDBRANCH  50  53
ENDBRANCH   1  49
TORSDOF 15
ENDMDL
MODEL 4
REMARK VINA RESULT: -9.999963769      1.190      2.440
REMARK  15 active torsions:
REMARK  status: ('A' for Active; 'I' for Inactive)
REMARK       I    between atoms: N1_2  and  C2_4 
REMARK    1  A    between atoms: C2_4  and  C3_6 
REMARK    2  A    between atoms: C7_15  and  N4_16 
REMARK    3  A    between atoms: N4_16  and  C8_18 
REMARK    4  A    between atoms: C8_18  and  C9_19 
REMARK    5  A    between atoms: C8_18  and  C10_26 
REMARK       I    between atoms: C9_19  and  N5_21 
REMARK    6  A    between atoms: N5_21  and  N6_23 
REMARK    7  A    between atoms: C10_26  and  C11_28 
REMARK    8  A    between atoms: C11_28  and  C12_29 
REMARK    9  A    between atoms: C11_28  and  N11_49 
REMARK   10  A    between atoms: C12_29  and  C13_30 
REMARK   11  A    between atoms: N7_32  and  C15_33 
REMARK   12  A    between atoms: C15_33  and  C16_34 
REMARK   13  A    between atoms: C16_34  and  O4_35 
REMARK   14  A    between atoms: C18_40  and  N9_41 
REMARK       I    between atoms: N11_49  and  C21_51 
REMARK   15  A    between atoms: C21_51  and  C22_53 
ROOT
HETATM    1  C11 UNL     1      -0.370 -43.880 -24.017  1.00  0.00     0.161 C 
ENDROOT
BRANCH   1   2
HETATM    2  C10 UNL     1       0.147 -42.674 -24.554  1.00  0.00     0.181 C 
HETATM    3  O3  UNL     1      -0.249 -42.028 -25.462  1.00  0.00    -0.293 OA
BRANCH   2   4
HETATM    4  C8  UNL     1       1.429 -42.029 -23.946  1.00  0.00     0.248 C 
BRANCH   4   5
HETATM    5  N4  UNL     1       1.244 -40.633 -23.701  1.00  0.00    -0.370 N 
ATOM      6  H4  UNL     1       1.431 -40.013 -24.490  1.00  0.00     0.161 HD
BRANCH   5   7
HETATM    7  C7  UNL     1       0.832 -40.000 -22.498  1.00  0.00     0.049 A 
HETATM    8  C3  UNL     1      -0.396 -39.341 -22.453  1.00  0.00     0.073 A 
HETATM    9  C4  UNL     1      -0.731 -38.652 -21.269  1.00  0.00     0.109 A 
HETATM   10  N2  UNL     1       0.069 -38.611 -20.224  1.00  0.00    -0.352 N 
HETATM   11  C5  UNL     1       1.260 -39.241 -20.239  1.00  0.00     0.100 A 
ATOM     12  H2  UNL     1      -0.218 -38.096 -19.392  1.00  0.00     0.166 HD
HETATM   13  N3  UNL     1       2.026 -39.194 -19.269  1.00  0.00    -0.385 N 
HETATM   14  C6  UNL     1       1.633 -39.942 -21.397  1.00  0.00     0.078 A 
ATOM     15  H32 UNL     1       1.756 -38.685 -18.428  1.00  0.00     0.157 HD
ATOM     16  H31 UNL     1       2.928 -39.671 -19.281  1.00  0.00     0.157 HD
BRANCH   8  17
HETATM   17  C2  UNL     1      -1.426 -39.422 -23.456  1.00  0.00     0.254 C 
HETATM   18  N1  UNL     1      -2.753 -39.793 -23.131  1.00  0.00    -0.361 N 
HETATM   19  C1  UNL     1      -3.739 -39.855 -24.222  1.00  0.00     0.149 C 
ATOM     20  H1  UNL     1      -3.017 -40.011 -22.171  1.00  0.00     0.162 HD
HETATM   21  O1  UNL     1      -1.154 -39.162 -24.676  1.00  0.00    -0.268 OA
ENDBRANCH   8  17
ENDBRANCH   5   7
ENDBRANCH   4   5
BRANCH   4  22
HETATM   22  C9  UNL     1       2.371 -42.209 -25.122  1.00  0.00     0.265 C 
HETATM   23  O2  UNL     1       1.921 -42.114 -26.266  1.00  0.00    -0.269 OA
HETATM   24  N5  UNL     1       3.734 -42.482 -24.896  1.00  0.00    -0.275 N 
ATOM     25  H5  UNL     1       4.113 -42.561 -23.952  1.00  0.00     0.189 HD
BRANCH  24  26
HETATM   26  N6  UNL     1       4.554 -42.641 -26.039  1.00  0.00    -0.343 N 
ATOM     27  H62 UNL     1       4.205 -42.398 -26.967  1.00  0.00     0.176 HD
ATOM     28  H61 UNL     1       5.495 -43.005 -25.886  1.00  0.00     0.176 HD
ENDBRANCH  24  26
ENDBRANCH   4  22
ENDBRANCH   2   4
ENDBRANCH   1   2
BRANCH   1  29
HETATM   29  C12 UNL     1       0.358 -45.165 -24.395  1.00  0.00     0.074 C 
BRANCH  29  30
HETATM   30  C13 UNL     1       0.539 -45.425 -25.807  1.00  0.00    -0.021 A 
HETATM   31  C14 UNL     1      -0.457 -45.584 -26.778  1.00  0.00     0.101 A 
HETATM   32  N7  UNL     1       0.085 -45.966 -27.949  1.00  0.00    -0.339 N 
HETATM   33  C17 UNL     1       1.413 -46.067 -27.797  1.00  0.00     0.139 A 
HETATM   34  N8  UNL     1       2.423 -46.383 -28.669  1.00  0.00    -0.176 N 
HETATM   35  C20 UNL     1       1.706 -45.732 -26.480  1.00  0.00     0.085 A 
HETATM   36  C18 UNL     1       3.686 -46.373 -28.280  1.00  0.00     0.680 A 
ATOM     37  H8  UNL     1       2.196 -46.630 -29.631  1.00  0.00     0.186 HD
HETATM   38  N10 UNL     1       3.998 -46.050 -27.030  1.00  0.00    -0.155 N 
HETATM   39  C19 UNL     1       3.040 -45.739 -26.162  1.00  0.00     0.274 A 
ATOM     40  H10 UNL     1       4.975 -46.042 -26.734  1.00  0.00     0.187 HD
HETATM   41  O5  UNL     1       3.410 -45.429 -24.994  1.00  0.00    -0.267 OA
BRANCH  32  42
HETATM   42  C15 UNL     1      -0.645 -46.253 -29.166  1.00  0.00     0.156 C 
BRANCH  42  43
HETATM   43  C16 UNL     1      -1.637 -47.390 -29.041  1.00  0.00     0.184 C 
BRANCH  43  44
HETATM   44  O4  UNL     1      -2.929 -46.993 -28.805  1.00  0.00    -0.399 OA
ATOM     45  H4  UNL     1      -3.430 -47.587 -28.259  1.00  0.00     0.209 HD
ENDBRANCH  43  44
ENDBRANCH  42  43
ENDBRANCH  32  42
BRANCH  36  46
HETATM   46  N9  UNL     1       4.644 -46.676 -29.080  1.00  0.00    -0.234 N 
ATOM     47  H92 UNL     1       4.691 -46.189 -29.975  1.00  0.00     0.174 HD
ATOM     48  H91 UNL     1       5.348 -47.375 -28.838  1.00  0.00     0.174 HD
ENDBRANCH  36  46
ENDBRANCH  29  30
ENDBRANCH   1  29
BRANCH   1  49
HETATM   49  N11 UNL     1      -0.590 -43.909 -22.559  1.00  0.00    -0.343 N 
HETATM   50  C21 UNL     1      -1.837 -43.413 -22.138  1.00  0.00     0.276 C 
HETATM   51  O6  UNL     1      -2.643 -42.977 -23.034  1.00  0.00    -0.265 OA
ATOM     52  H11 UNL     1       0.108 -44.262 -21.905  1.00  0.00     0.163 HD
BRANCH  50  53
HETATM   53  C22 UNL     1      -2.263 -43.361 -20.766  1.00  0.00     0.146 A 
HETATM   54  C23 UNL     1      -1.567 -44.034 -19.718  1.00  0.00     0.059 A 
HETATM   55  C24 UNL     1      -2.227 -43.776 -18.549  1.00  0.00     0.018 A 
HETATM   56  C25 UNL     1      -2.021 -44.154 -17.238  1.00  0.00     0.021 A 
HETATM   57  C28 UNL     1      -3.287 -42.972 -18.890  1.00  0.00     0.161 A 
HETATM   58  C26 UNL     1      -2.888 -43.716 -16.244  1.00  0.00     0.075 A 
HETATM   59  C27 UNL     1      -3.943 -42.906 -16.618  1.00  0.00     0.247 A 
HETATM   60  O7  UNL     1      -4.720 -42.509 -15.722  1.00  0.00    -0.268 OA
HETATM   61  N12 UNL     1      -4.113 -42.561 -17.914  1.00  0.00    -0.303 N 
ATOM     62  H12 UNL     1      -4.901 -41.962 -18.161  1.00  0.00     0.171 HD
HETATM   63  O8  UNL     1      -3.268 -42.757 -20.197  1.00  0.00    -0.287 OA
ENDBRANCH  50  53
ENDBRANCH   1  49
TORSDOF 15
ENDMDL
MODEL 5
REMARK VINA RESULT: -9.934990973      2.485      8.502
REMARK  15 active torsions:
REMARK  status: ('A' for Active; 'I' for Inactive)
REMARK       I    between atoms: N1_2  and  C2_4 
REMARK    1  A    between atoms: C2_4  and  C3_6 
REMARK    2  A    between atoms: C7_15  and  N4_16 
REMARK    3  A    between atoms: N4_16  and  C8_18 
REMARK    4  A    between atoms: C8_18  and  C9_19 
REMARK    5  A    between atoms: C8_18  and  C10_26 
REMARK       I    between atoms: C9_19  and  N5_21 
REMARK    6  A    between atoms: N5_21  and  N6_23 
REMARK    7  A    between atoms: C10_26  and  C11_28 
REMARK    8  A    between atoms: C11_28  and  C12_29 
REMARK    9  A    between atoms: C11_28  and  N11_49 
REMARK   10  A    between atoms: C12_29  and  C13_30 
REMARK   11  A    between atoms: N7_32  and  C15_33 
REMARK   12  A    between atoms: C15_33  and  C16_34 
REMARK   13  A    between atoms: C16_34  and  O4_35 
REMARK   14  A    between atoms: C18_40  and  N9_41 
REMARK       I    between atoms: N11_49  and  C21_51 
REMARK   15  A    between atoms: C21_51  and  C22_53 
ROOT
HETATM    1  C11 UNL     1      -1.187 -42.533 -23.687  1.00  0.00     0.161 C 
ENDROOT
BRANCH   1   2
HETATM    2  C10 UNL     1      -0.813 -43.771 -24.269  1.00  0.00     0.181 C 
HETATM    3  O3  UNL     1      -1.034 -44.871 -23.894  1.00  0.00    -0.293 OA
BRANCH   2   4
HETATM    4  C8  UNL     1       0.023 -43.802 -25.583  1.00  0.00     0.248 C 
BRANCH   4   5
HETATM    5  N4  UNL     1       0.187 -45.137 -26.065  1.00  0.00    -0.370 N 
ATOM      6  H4  UNL     1      -0.367 -45.853 -25.594  1.00  0.00     0.161 HD
BRANCH   5   7
HETATM    7  C7  UNL     1       1.024 -45.594 -27.119  1.00  0.00     0.049 A 
HETATM    8  C3  UNL     1       0.467 -46.305 -28.180  1.00  0.00     0.073 A 
HETATM    9  C4  UNL     1       1.341 -46.815 -29.163  1.00  0.00     0.109 A 
HETATM   10  N2  UNL     1       2.645 -46.645 -29.106  1.00  0.00    -0.352 N 
HETATM   11  C5  UNL     1       3.210 -45.958 -28.093  1.00  0.00     0.100 A 
ATOM     12  H2  UNL     1       3.236 -47.037 -29.839  1.00  0.00     0.166 HD
HETATM   13  N3  UNL     1       4.435 -45.807 -28.021  1.00  0.00    -0.385 N 
HETATM   14  C6  UNL     1       2.376 -45.431 -27.094  1.00  0.00     0.078 A 
ATOM     15  H32 UNL     1       5.042 -46.191 -28.747  1.00  0.00     0.157 HD
ATOM     16  H31 UNL     1       4.863 -45.288 -27.254  1.00  0.00     0.157 HD
BRANCH   8  17
HETATM   17  C2  UNL     1      -0.941 -46.443 -28.448  1.00  0.00     0.254 C 
HETATM   18  N1  UNL     1      -1.565 -47.713 -28.514  1.00  0.00    -0.361 N 
HETATM   19  C1  UNL     1      -3.008 -47.759 -28.799  1.00  0.00     0.149 C 
ATOM     20  H1  UNL     1      -1.031 -48.569 -28.369  1.00  0.00     0.162 HD
HETATM   21  O1  UNL     1      -1.662 -45.407 -28.639  1.00  0.00    -0.268 OA
ENDBRANCH   8  17
ENDBRANCH   5   7
ENDBRANCH   4   5
BRANCH   4  22
HETATM   22  C9  UNL     1       1.348 -43.302 -25.039  1.00  0.00     0.265 C 
HETATM   23  O2  UNL     1       1.850 -43.878 -24.071  1.00  0.00    -0.269 OA
HETATM   24  N5  UNL     1       1.982 -42.195 -25.636  1.00  0.00    -0.275 N 
ATOM     25  H5  UNL     1       1.572 -41.715 -26.437  1.00  0.00     0.189 HD
BRANCH  24  26
HETATM   26  N6  UNL     1       3.214 -41.781 -25.075  1.00  0.00    -0.343 N 
ATOM     27  H62 UNL     1       3.241 -41.314 -24.168  1.00  0.00     0.176 HD
ATOM     28  H61 UNL     1       4.057 -41.973 -25.617  1.00  0.00     0.176 HD
ENDBRANCH  24  26
ENDBRANCH   4  22
ENDBRANCH   2   4
ENDBRANCH   1   2
BRANCH   1  29
HETATM   29  C12 UNL     1      -2.674 -42.321 -23.428  1.00  0.00     0.074 C 
BRANCH  29  30
HETATM   30  C13 UNL     1      -3.133 -40.953 -23.325  1.00  0.00    -0.021 A 
HETATM   31  C14 UNL     1      -3.479 -40.088 -24.371  1.00  0.00     0.101 A 
HETATM   32  N7  UNL     1      -3.711 -38.849 -23.900  1.00  0.00    -0.339 N 
HETATM   33  C17 UNL     1      -3.535 -38.854 -22.571  1.00  0.00     0.139 A 
HETATM   34  N8  UNL     1      -3.673 -37.879 -21.616  1.00  0.00    -0.176 N 
HETATM   35  C20 UNL     1      -3.182 -40.147 -22.203  1.00  0.00     0.085 A 
HETATM   36  C18 UNL     1      -3.479 -38.147 -20.337  1.00  0.00     0.680 A 
ATOM     37  H8  UNL     1      -3.930 -36.934 -21.898  1.00  0.00     0.186 HD
HETATM   38  N10 UNL     1      -3.147 -39.375 -19.954  1.00  0.00    -0.155 N 
HETATM   39  C19 UNL     1      -3.006 -40.340 -20.857  1.00  0.00     0.274 A 
ATOM     40  H10 UNL     1      -3.001 -39.578 -18.964  1.00  0.00     0.187 HD
HETATM   41  O5  UNL     1      -2.703 -41.488 -20.421  1.00  0.00    -0.267 OA
BRANCH  32  42
HETATM   42  C15 UNL     1      -4.062 -37.693 -24.696  1.00  0.00     0.156 C 
BRANCH  42  43
HETATM   43  C16 UNL     1      -5.552 -37.447 -24.811  1.00  0.00     0.184 C 
BRANCH  43  44
HETATM   44  O4  UNL     1      -6.122 -37.939 -25.956  1.00  0.00    -0.399 OA
ATOM     45  H4  UNL     1      -6.534 -37.282 -26.505  1.00  0.00     0.209 HD
ENDBRANCH  43  44
ENDBRANCH  42  43
ENDBRANCH  32  42
BRANCH  36  46
HETATM   46  N9  UNL     1      -3.595 -37.245 -19.430  1.00  0.00    -0.234 N 
ATOM     47  H92 UNL     1      -3.296 -36.297 -19.659  1.00  0.00     0.174 HD
ATOM     48  H91 UNL     1      -3.978 -37.454 -18.507  1.00  0.00     0.174 HD
ENDBRANCH  36  46
ENDBRANCH  29  30
ENDBRANCH   1  29
BRANCH   1  49
HETATM   49  N11 UNL     1      -0.463 -42.137 -22.465  1.00  0.00    -0.343 N 
HETATM   50  C21 UNL     1       0.274 -40.944 -22.572  1.00  0.00     0.276 C 
HETATM   51  O6  UNL     1       0.264 -40.333 -23.699  1.00  0.00    -0.265 OA
ATOM     52  H11 UNL     1      -0.495 -42.686 -21.606  1.00  0.00     0.163 HD
BRANCH  50  53
HETATM   53  C22 UNL     1       1.040 -40.370 -21.501  1.00  0.00     0.146 A 
HETATM   54  C23 UNL     1       0.480 -39.455 -20.559  1.00  0.00     0.059 A 
HETATM   55  C24 UNL     1       1.467 -39.109 -19.680  1.00  0.00     0.018 A 
HETATM   56  C25 UNL     1       1.513 -38.275 -18.581  1.00  0.00     0.021 A 
HETATM   57  C28 UNL     1       2.585 -39.798 -20.085  1.00  0.00     0.161 A 
HETATM   58  C26 UNL     1       2.696 -38.128 -17.868  1.00  0.00     0.075 A 
HETATM   59  C27 UNL     1       3.802 -38.836 -18.299  1.00  0.00     0.247 A 
HETATM   60  O7  UNL     1       4.866 -38.707 -17.653  1.00  0.00    -0.268 OA
HETATM   61  N12 UNL     1       3.718 -39.641 -19.382  1.00  0.00    -0.303 N 
ATOM     62  H12 UNL     1       4.551 -40.151 -19.677  1.00  0.00     0.171 HD
HETATM   63  O8  UNL     1       2.287 -40.521 -21.154  1.00  0.00    -0.287 OA
ENDBRANCH  50  53
ENDBRANCH   1  49
TORSDOF 15
ENDMDL
