MODEL 1
REMARK VINA RESULT: -8.928390780      0.000      0.000
REMARK  19 active torsions:
REMARK  status: ('A' for Active; 'I' for Inactive)
REMARK    1  A    between atoms: N1_1  and  N2_4 
REMARK    2  A    between atoms: N2_4  and  N3_6 
REMARK    3  A    between atoms: C1_8  and  N4_9 
REMARK    4  A    between atoms: C1_8  and  C17_52 
REMARK    5  A    between atoms: N4_9  and  C2_11 
REMARK    6  A    between atoms: C2_11  and  C3_12 
REMARK    7  A    between atoms: C3_12  and  C4_13 
REMARK    8  A    between atoms: C4_13  and  N5_14 
REMARK    9  A    between atoms: N5_14  and  C5_17 
REMARK   10  A    between atoms: C5_17  and  C6_18 
REMARK   11  A    between atoms: C5_17  and  C7_25 
REMARK       I    between atoms: C6_18  and  N6_20 
REMARK   12  A    between atoms: N6_20  and  N7_22 
REMARK       I    between atoms: C7_25  and  N8_27 
REMARK   13  A    between atoms: N8_27  and  N9_29 
REMARK       I    between atoms: N9_29  and  C8_31 
REMARK   14  A    between atoms: C8_31  and  C9_33 
REMARK   15  A    between atoms: C10_37  and  N11_38 
REMARK   16  A    between atoms: N11_38  and  S2_40 
REMARK   17  A    between atoms: S2_40  and  C11_43 
REMARK   18  A    between atoms: C17_52  and  N14_53 
REMARK   19  A    between atoms: C17_52  and  C18_57 
ROOT
HETATM    1  C5  UNL     1      -1.708 -43.386 -20.846  1.00  0.00     0.371 C 
ENDROOT
BRANCH   1   2
HETATM    2  N5  UNL     1      -3.113 -43.415 -21.099  1.00  0.00    -0.053 N 
ATOM      3  H52 UNL     1      -3.526 -44.263 -20.711  1.00  0.00     0.278 HD
ATOM      4  H51 UNL     1      -3.292 -43.572 -22.091  1.00  0.00     0.278 HD
BRANCH   2   5
HETATM    5  C4  UNL     1      -3.811 -42.276 -20.647  1.00  0.00     0.235 C 
BRANCH   5   6
HETATM    6  C3  UNL     1      -3.626 -41.074 -21.589  1.00  0.00     0.047 C 
BRANCH   6   7
HETATM    7  C2  UNL     1      -3.969 -41.408 -23.006  1.00  0.00     0.122 C 
BRANCH   7   8
HETATM    8  N4  UNL     1      -2.777 -41.442 -23.813  1.00  0.00    -0.377 N 
ATOM      9  H4  UNL     1      -2.157 -42.246 -23.719  1.00  0.00     0.160 HD
BRANCH   8  10
HETATM   10  C1  UNL     1      -2.414 -40.426 -24.728  1.00  0.00     0.128 C 
HETATM   11  N3  UNL     1      -1.418 -40.705 -25.540  1.00  0.00    -0.273 N 
ATOM     12  H3  UNL     1      -1.121 -40.003 -26.218  1.00  0.00     0.190 HD
BRANCH  11  13
HETATM   13  N2  UNL     1      -0.759 -41.928 -25.502  1.00  0.00    -0.248 N 
ATOM     14  H2  UNL     1      -1.296 -42.793 -25.552  1.00  0.00     0.207 HD
BRANCH  13  15
HETATM   15  N1  UNL     1       0.614 -41.981 -25.398  1.00  0.00    -0.331 N 
ATOM     16  H12 UNL     1       1.113 -41.153 -25.073  1.00  0.00     0.178 HD
ATOM     17  H11 UNL     1       1.120 -42.832 -25.641  1.00  0.00     0.178 HD
ENDBRANCH  13  15
ENDBRANCH  11  13
BRANCH  10  18
HETATM   18  C17 UNL     1      -3.027 -39.105 -24.855  1.00  0.00     0.284 C 
BRANCH  18  19
HETATM   19  N14 UNL     1      -4.402 -39.201 -25.325  1.00  0.00    -0.064 N 
ATOM     20 3H14 UNL     1      -4.535 -38.689 -26.198  1.00  0.00     0.275 HD
ATOM     21 2H14 UNL     1      -4.618 -40.140 -25.660  1.00  0.00     0.275 HD
ATOM     22 1H14 UNL     1      -5.062 -38.899 -24.609  1.00  0.00     0.275 HD
ENDBRANCH  18  19
BRANCH  18  23
HETATM   23  C18 UNL     1      -2.941 -38.236 -23.670  1.00  0.00    -0.021 A 
HETATM   24  C19 UNL     1      -4.065 -37.541 -23.295  1.00  0.00     0.010 A 
HETATM   25  C20 UNL     1      -4.073 -36.706 -22.180  1.00  0.00     0.001 A 
HETATM   26  C21 UNL     1      -2.928 -36.571 -21.431  1.00  0.00     0.000 A 
HETATM   27  C22 UNL     1      -1.779 -37.263 -21.789  1.00  0.00     0.001 A 
HETATM   28  C23 UNL     1      -1.808 -38.095 -22.916  1.00  0.00     0.010 A 
ENDBRANCH  18  23
ENDBRANCH  10  18
ENDBRANCH   8  10
ENDBRANCH   7   8
ENDBRANCH   6   7
ENDBRANCH   5   6
ENDBRANCH   2   5
ENDBRANCH   1   2
BRANCH   1  29
HETATM   29  C6  UNL     1      -1.346 -44.237 -19.720  1.00  0.00     0.276 C 
HETATM   30  O1  UNL     1      -0.470 -45.154 -19.803  1.00  0.00    -0.269 OA
HETATM   31  N6  UNL     1      -1.980 -44.059 -18.440  1.00  0.00    -0.274 N 
ATOM     32  H6  UNL     1      -2.683 -43.332 -18.309  1.00  0.00     0.189 HD
BRANCH  31  33
HETATM   33  N7  UNL     1      -1.616 -44.910 -17.362  1.00  0.00    -0.343 N 
ATOM     34  H72 UNL     1      -1.010 -45.712 -17.538  1.00  0.00     0.176 HD
ATOM     35  H71 UNL     1      -1.967 -44.705 -16.426  1.00  0.00     0.176 HD
ENDBRANCH  31  33
ENDBRANCH   1  29
BRANCH   1  36
HETATM   36  C7  UNL     1      -0.885 -43.537 -22.040  1.00  0.00     0.276 C 
HETATM   37  O2  UNL     1      -0.377 -42.523 -22.593  1.00  0.00    -0.269 OA
HETATM   38  N8  UNL     1      -0.621 -44.804 -22.600  1.00  0.00    -0.265 N 
ATOM     39  H8  UNL     1      -1.040 -45.621 -22.157  1.00  0.00     0.190 HD
BRANCH  38  40
HETATM   40  N9  UNL     1       0.179 -45.008 -23.723  1.00  0.00    -0.261 N 
HETATM   41  C8  UNL     1       1.505 -45.401 -23.588  1.00  0.00     0.304 C 
HETATM   42  O3  UNL     1       1.998 -45.588 -22.461  1.00  0.00    -0.263 OA
ATOM     43  H9  UNL     1      -0.213 -44.867 -24.654  1.00  0.00     0.190 HD
BRANCH  41  44
HETATM   44  C9  UNL     1       2.364 -45.606 -24.795  1.00  0.00     0.184 A 
HETATM   45  N10 UNL     1       3.579 -46.171 -24.675  1.00  0.00    -0.305 N 
HETATM   46  S1  UNL     1       4.185 -46.164 -26.234  1.00  0.00     0.025 SA
ATOM     47  H10 UNL     1       4.027 -46.522 -23.829  1.00  0.00     0.176 HD
HETATM   48  C10 UNL     1       2.864 -45.433 -27.009  1.00  0.00     0.176 A 
HETATM   49  N13 UNL     1       2.007 -45.229 -26.006  1.00  0.00    -0.316 N 
ATOM     50  H13 UNL     1       1.100 -44.794 -26.173  1.00  0.00     0.169 HD
BRANCH  48  51
HETATM   51  N11 UNL     1       2.653 -45.100 -28.263  1.00  0.00    -0.259 N 
ATOM     52  H11 UNL     1       2.816 -44.149 -28.596  1.00  0.00     0.181 HD
BRANCH  51  53
HETATM   53  S2  UNL     1       2.089 -46.334 -29.318  1.00  0.00     0.264 S 
HETATM   54  O4  UNL     1       2.239 -45.821 -30.737  1.00  0.00    -0.200 OA
HETATM   55  O5  UNL     1       2.927 -47.583 -29.173  1.00  0.00    -0.200 OA
BRANCH  53  56
HETATM   56  C11 UNL     1       0.389 -46.707 -29.057  1.00  0.00     0.080 A 
HETATM   57  C12 UNL     1      -0.557 -45.749 -28.764  1.00  0.00     0.027 A 
HETATM   58  C13 UNL     1      -1.902 -46.080 -28.550  1.00  0.00     0.028 A 
HETATM   59  C14 UNL     1      -2.323 -47.391 -28.628  1.00  0.00     0.046 A 
HETATM   60  N12 UNL     1      -3.691 -47.680 -28.404  1.00  0.00    -0.102 NA
HETATM   61  C15 UNL     1      -1.374 -48.343 -28.922  1.00  0.00     0.028 A 
HETATM   62  C16 UNL     1      -0.053 -48.024 -29.132  1.00  0.00     0.027 A 
ENDBRANCH  53  56
ENDBRANCH  51  53
ENDBRANCH  48  51
ENDBRANCH  41  44
ENDBRANCH  38  40
ENDBRANCH   1  36
TORSDOF 19
ENDMDL
MODEL 2
REMARK VINA RESULT: -8.928225285      3.402      6.366
REMARK  19 active torsions:
REMARK  status: ('A' for Active; 'I' for Inactive)
REMARK    1  A    between atoms: N1_1  and  N2_4 
REMARK    2  A    between atoms: N2_4  and  N3_6 
REMARK    3  A    between atoms: C1_8  and  N4_9 
REMARK    4  A    between atoms: C1_8  and  C17_52 
REMARK    5  A    between atoms: N4_9  and  C2_11 
REMARK    6  A    between atoms: C2_11  and  C3_12 
REMARK    7  A    between atoms: C3_12  and  C4_13 
REMARK    8  A    between atoms: C4_13  and  N5_14 
REMARK    9  A    between atoms: N5_14  and  C5_17 
REMARK   10  A    between atoms: C5_17  and  C6_18 
REMARK   11  A    between atoms: C5_17  and  C7_25 
REMARK       I    between atoms: C6_18  and  N6_20 
REMARK   12  A    between atoms: N6_20  and  N7_22 
REMARK       I    between atoms: C7_25  and  N8_27 
REMARK   13  A    between atoms: N8_27  and  N9_29 
REMARK       I    between atoms: N9_29  and  C8_31 
REMARK   14  A    between atoms: C8_31  and  C9_33 
REMARK   15  A    between atoms: C10_37  and  N11_38 
REMARK   16  A    between atoms: N11_38  and  S2_40 
REMARK   17  A    between atoms: S2_40  and  C11_43 
REMARK   18  A    between atoms: C17_52  and  N14_53 
REMARK   19  A    between atoms: C17_52  and  C18_57 
ROOT
HETATM    1  C5  UNL     1      -3.578 -38.423 -23.294  1.00  0.00     0.371 C 
ENDROOT
BRANCH   1   2
HETATM    2  N5  UNL     1      -2.590 -37.396 -23.359  1.00  0.00    -0.053 N 
ATOM      3  H52 UNL     1      -2.807 -36.739 -24.108  1.00  0.00     0.278 HD
ATOM      4  H51 UNL     1      -1.708 -37.773 -23.707  1.00  0.00     0.278 HD
BRANCH   2   5
HETATM    5  C4  UNL     1      -2.384 -36.707 -22.145  1.00  0.00     0.235 C 
BRANCH   5   6
HETATM    6  C3  UNL     1      -3.708 -36.411 -21.418  1.00  0.00     0.047 C 
BRANCH   6   7
HETATM    7  C2  UNL     1      -3.602 -36.624 -19.941  1.00  0.00     0.122 C 
BRANCH   7   8
HETATM    8  N4  UNL     1      -3.608 -38.031 -19.638  1.00  0.00    -0.377 N 
ATOM      9  H4  UNL     1      -4.416 -38.581 -19.929  1.00  0.00     0.160 HD
BRANCH   8  10
HETATM   10  C1  UNL     1      -2.560 -38.697 -18.961  1.00  0.00     0.128 C 
HETATM   11  N3  UNL     1      -2.793 -39.943 -18.613  1.00  0.00    -0.273 N 
ATOM     12  H3  UNL     1      -2.065 -40.464 -18.122  1.00  0.00     0.190 HD
BRANCH  11  13
HETATM   13  N2  UNL     1      -4.000 -40.571 -18.893  1.00  0.00    -0.248 N 
ATOM     14  H2  UNL     1      -4.875 -40.061 -18.776  1.00  0.00     0.207 HD
BRANCH  13  15
HETATM   15  N1  UNL     1      -4.026 -41.878 -19.329  1.00  0.00    -0.331 N 
ATOM     16  H12 UNL     1      -3.321 -42.526 -18.977  1.00  0.00     0.178 HD
ATOM     17  H11 UNL     1      -4.736 -42.190 -19.991  1.00  0.00     0.178 HD
ENDBRANCH  13  15
ENDBRANCH  11  13
BRANCH  10  18
HETATM   18  C17 UNL     1      -1.256 -38.139 -18.607  1.00  0.00     0.284 C 
BRANCH  18  19
HETATM   19  N14 UNL     1      -1.053 -38.137 -17.165  1.00  0.00    -0.064 N 
ATOM     20 3H14 UNL     1      -1.743 -38.718 -16.689  1.00  0.00     0.275 HD
ATOM     21 2H14 UNL     1      -0.211 -38.649 -16.905  1.00  0.00     0.275 HD
ATOM     22 1H14 UNL     1      -1.042 -37.187 -16.793  1.00  0.00     0.275 HD
ENDBRANCH  18  19
BRANCH  18  23
HETATM   23  C18 UNL     1      -0.093 -38.724 -19.296  1.00  0.00    -0.021 A 
HETATM   24  C19 UNL     1      -0.215 -39.020 -20.632  1.00  0.00     0.010 A 
HETATM   25  C20 UNL     1       0.840 -39.566 -21.361  1.00  0.00     0.001 A 
HETATM   26  C21 UNL     1       2.036 -39.814 -20.732  1.00  0.00     0.000 A 
HETATM   27  C22 UNL     1       2.184 -39.523 -19.383  1.00  0.00     0.001 A 
HETATM   28  C23 UNL     1       1.102 -38.975 -18.680  1.00  0.00     0.010 A 
ENDBRANCH  18  23
ENDBRANCH  10  18
ENDBRANCH   8  10
ENDBRANCH   7   8
ENDBRANCH   6   7
ENDBRANCH   5   6
ENDBRANCH   2   5
ENDBRANCH   1   2
BRANCH   1  29
HETATM   29  C6  UNL     1      -4.402 -38.455 -24.495  1.00  0.00     0.276 C 
HETATM   30  O1  UNL     1      -4.183 -39.251 -25.461  1.00  0.00    -0.269 OA
HETATM   31  N6  UNL     1      -5.526 -37.565 -24.631  1.00  0.00    -0.274 N 
ATOM     32  H6  UNL     1      -5.758 -36.911 -23.884  1.00  0.00     0.189 HD
BRANCH  31  33
HETATM   33  N7  UNL     1      -6.306 -37.609 -25.818  1.00  0.00    -0.343 N 
ATOM     34  H72 UNL     1      -7.123 -38.218 -25.859  1.00  0.00     0.176 HD
ATOM     35  H71 UNL     1      -6.035 -37.029 -26.612  1.00  0.00     0.176 HD
ENDBRANCH  31  33
ENDBRANCH   1  29
BRANCH   1  36
HETATM   36  C7  UNL     1      -3.068 -39.714 -22.847  1.00  0.00     0.276 C 
HETATM   37  O2  UNL     1      -3.517 -40.243 -21.793  1.00  0.00    -0.269 OA
HETATM   38  N8  UNL     1      -2.080 -40.410 -23.573  1.00  0.00    -0.265 N 
ATOM     39  H8  UNL     1      -1.711 -39.975 -24.418  1.00  0.00     0.190 HD
BRANCH  38  40
HETATM   40  N9  UNL     1      -1.575 -41.656 -23.205  1.00  0.00    -0.261 N 
HETATM   41  C8  UNL     1      -0.436 -42.168 -23.815  1.00  0.00     0.304 C 
HETATM   42  O3  UNL     1       0.159 -41.518 -24.694  1.00  0.00    -0.263 OA
ATOM     43  H9  UNL     1      -2.046 -42.198 -22.481  1.00  0.00     0.190 HD
BRANCH  41  44
HETATM   44  C9  UNL     1       0.094 -43.512 -23.428  1.00  0.00     0.184 A 
HETATM   45  N10 UNL     1      -0.508 -44.225 -22.459  1.00  0.00    -0.305 N 
HETATM   46  S1  UNL     1       0.424 -45.609 -22.334  1.00  0.00     0.025 SA
ATOM     47  H10 UNL     1      -1.342 -43.980 -21.925  1.00  0.00     0.176 HD
HETATM   48  C10 UNL     1       1.571 -45.241 -23.529  1.00  0.00     0.176 A 
HETATM   49  N13 UNL     1       1.167 -44.048 -23.972  1.00  0.00    -0.316 N 
ATOM     50  H13 UNL     1       1.676 -43.564 -24.712  1.00  0.00     0.169 HD
BRANCH  48  51
HETATM   51  N11 UNL     1       2.627 -45.891 -23.966  1.00  0.00    -0.259 N 
ATOM     52  H11 UNL     1       3.115 -46.570 -23.381  1.00  0.00     0.181 HD
BRANCH  51  53
HETATM   53  S2  UNL     1       3.152 -45.549 -25.567  1.00  0.00     0.264 S 
HETATM   54  O4  UNL     1       1.944 -45.671 -26.475  1.00  0.00    -0.200 OA
HETATM   55  O5  UNL     1       3.680 -44.137 -25.664  1.00  0.00    -0.200 OA
BRANCH  53  56
HETATM   56  C11 UNL     1       4.366 -46.694 -26.129  1.00  0.00     0.080 A 
HETATM   57  C12 UNL     1       4.429 -47.148 -27.428  1.00  0.00     0.027 A 
HETATM   58  C13 UNL     1       5.402 -48.069 -27.842  1.00  0.00     0.028 A 
HETATM   59  C14 UNL     1       6.336 -48.552 -26.948  1.00  0.00     0.046 A 
HETATM   60  N12 UNL     1       7.299 -49.481 -27.409  1.00  0.00    -0.102 NA
HETATM   61  C15 UNL     1       6.267 -48.094 -25.652  1.00  0.00     0.028 A 
HETATM   62  C16 UNL     1       5.314 -47.191 -25.241  1.00  0.00     0.027 A 
ENDBRANCH  53  56
ENDBRANCH  51  53
ENDBRANCH  48  51
ENDBRANCH  41  44
ENDBRANCH  38  40
ENDBRANCH   1  36
TORSDOF 19
ENDMDL
MODEL 3
REMARK VINA RESULT: -8.644776311      2.805      5.425
REMARK  19 active torsions:
REMARK  status: ('A' for Active; 'I' for Inactive)
REMARK    1  A    between atoms: N1_1  and  N2_4 
REMARK    2  A    between atoms: N2_4  and  N3_6 
REMARK    3  A    between atoms: C1_8  and  N4_9 
REMARK    4  A    between atoms: C1_8  and  C17_52 
REMARK    5  A    between atoms: N4_9  and  C2_11 
REMARK    6  A    between atoms: C2_11  and  C3_12 
REMARK    7  A    between atoms: C3_12  and  C4_13 
REMARK    8  A    between atoms: C4_13  and  N5_14 
REMARK    9  A    between atoms: N5_14  and  C5_17 
REMARK   10  A    between atoms: C5_17  and  C6_18 
REMARK   11  A    between atoms: C5_17  and  C7_25 
REMARK       I    between atoms: C6_18  and  N6_20 
REMARK   12  A    between atoms: N6_20  and  N7_22 
REMARK       I    between atoms: C7_25  and  N8_27 
REMARK   13  A    between atoms: N8_27  and  N9_29 
REMARK       I    between atoms: N9_29  and  C8_31 
REMARK   14  A    between atoms: C8_31  and  C9_33 
REMARK   15  A    between atoms: C10_37  and  N11_38 
REMARK   16  A    between atoms: N11_38  and  S2_40 
REMARK   17  A    between atoms: S2_40  and  C11_43 
REMARK   18  A    between atoms: C17_52  and  N14_53 
REMARK   19  A    between atoms: C17_52  and  C18_57 
ROOT
HETATM    1  C5  UNL     1      -1.827 -39.522 -22.769  1.00  0.00     0.371 C 
ENDROOT
BRANCH   1   2
HETATM    2  N5  UNL     1      -0.736 -38.639 -22.510  1.00  0.00    -0.053 N 
ATOM      3  H52 UNL     1      -0.966 -37.691 -22.808  1.00  0.00     0.278 HD
ATOM      4  H51 UNL     1       0.040 -38.837 -23.143  1.00  0.00     0.278 HD
BRANCH   2   5
HETATM    5  C4  UNL     1      -0.291 -38.639 -21.172  1.00  0.00     0.235 C 
BRANCH   5   6
HETATM    6  C3  UNL     1      -0.587 -39.973 -20.465  1.00  0.00     0.047 C 
BRANCH   6   7
HETATM    7  C2  UNL     1      -0.518 -39.852 -18.975  1.00  0.00     0.122 C 
BRANCH   7   8
HETATM    8  N4  UNL     1      -1.838 -39.930 -18.407  1.00  0.00    -0.377 N 
ATOM      9  H4  UNL     1      -1.947 -39.714 -17.416  1.00  0.00     0.160 HD
BRANCH   8  10
HETATM   10  C1  UNL     1      -2.993 -40.290 -19.140  1.00  0.00     0.128 C 
HETATM   11  N3  UNL     1      -3.704 -39.297 -19.629  1.00  0.00    -0.273 N 
ATOM     12  H3  UNL     1      -4.546 -39.508 -20.165  1.00  0.00     0.190 HD
BRANCH  11  13
HETATM   13  N2  UNL     1      -3.341 -37.969 -19.436  1.00  0.00    -0.248 N 
ATOM     14  H2  UNL     1      -2.365 -37.732 -19.261  1.00  0.00     0.207 HD
BRANCH  13  15
HETATM   15  N1  UNL     1      -4.289 -36.970 -19.480  1.00  0.00    -0.331 N 
ATOM     16  H12 UNL     1      -4.384 -36.350 -18.676  1.00  0.00     0.178 HD
ATOM     17  H11 UNL     1      -4.883 -36.855 -20.300  1.00  0.00     0.178 HD
ENDBRANCH  13  15
ENDBRANCH  11  13
BRANCH  10  18
HETATM   18  C17 UNL     1      -3.476 -41.645 -19.400  1.00  0.00     0.284 C 
BRANCH  18  19
HETATM   19  N14 UNL     1      -3.335 -41.997 -20.806  1.00  0.00    -0.064 N 
ATOM     20 3H14 UNL     1      -4.216 -42.333 -21.197  1.00  0.00     0.275 HD
ATOM     21 2H14 UNL     1      -3.211 -41.170 -21.388  1.00  0.00     0.275 HD
ATOM     22 1H14 UNL     1      -2.581 -42.670 -20.947  1.00  0.00     0.275 HD
ENDBRANCH  18  19
BRANCH  18  23
HETATM   23  C18 UNL     1      -2.923 -42.704 -18.540  1.00  0.00    -0.021 A 
HETATM   24  C19 UNL     1      -3.654 -43.094 -17.444  1.00  0.00     0.010 A 
HETATM   25  C20 UNL     1      -3.210 -44.097 -16.585  1.00  0.00     0.001 A 
HETATM   26  C21 UNL     1      -2.009 -44.716 -16.836  1.00  0.00     0.000 A 
HETATM   27  C22 UNL     1      -1.252 -44.340 -17.937  1.00  0.00     0.001 A 
HETATM   28  C23 UNL     1      -1.730 -43.328 -18.781  1.00  0.00     0.010 A 
ENDBRANCH  18  23
ENDBRANCH  10  18
ENDBRANCH   8  10
ENDBRANCH   7   8
ENDBRANCH   6   7
ENDBRANCH   5   6
ENDBRANCH   2   5
ENDBRANCH   1   2
BRANCH   1  29
HETATM   29  C6  UNL     1      -3.009 -38.799 -23.220  1.00  0.00     0.276 C 
HETATM   30  O1  UNL     1      -3.671 -38.020 -22.466  1.00  0.00    -0.269 OA
HETATM   31  N6  UNL     1      -3.478 -38.944 -24.574  1.00  0.00    -0.274 N 
ATOM     32  H6  UNL     1      -2.982 -39.547 -25.230  1.00  0.00     0.189 HD
BRANCH  31  33
HETATM   33  N7  UNL     1      -4.640 -38.236 -24.984  1.00  0.00    -0.343 N 
ATOM     34  H72 UNL     1      -5.553 -38.684 -24.909  1.00  0.00     0.176 HD
ATOM     35  H71 UNL     1      -4.543 -37.289 -25.349  1.00  0.00     0.176 HD
ENDBRANCH  31  33
ENDBRANCH   1  29
BRANCH   1  36
HETATM   36  C7  UNL     1      -1.470 -40.696 -23.557  1.00  0.00     0.276 C 
HETATM   37  O2  UNL     1      -2.282 -41.655 -23.669  1.00  0.00    -0.269 OA
HETATM   38  N8  UNL     1      -0.229 -40.793 -24.219  1.00  0.00    -0.265 N 
ATOM     39  H8  UNL     1       0.430 -40.021 -24.118  1.00  0.00     0.190 HD
BRANCH  38  40
HETATM   40  N9  UNL     1       0.154 -41.879 -25.004  1.00  0.00    -0.261 N 
HETATM   41  C8  UNL     1       1.408 -42.457 -24.852  1.00  0.00     0.304 C 
HETATM   42  O3  UNL     1       2.209 -42.020 -24.006  1.00  0.00    -0.263 OA
ATOM     43  H9  UNL     1      -0.494 -42.255 -25.696  1.00  0.00     0.190 HD
BRANCH  41  44
HETATM   44  C9  UNL     1       1.820 -43.614 -25.706  1.00  0.00     0.184 A 
HETATM   45  N10 UNL     1       3.079 -43.699 -26.172  1.00  0.00    -0.305 N 
HETATM   46  S1  UNL     1       3.078 -45.097 -27.090  1.00  0.00     0.025 SA
ATOM     47  H10 UNL     1       3.855 -43.059 -26.004  1.00  0.00     0.176 HD
HETATM   48  C10 UNL     1       1.457 -45.544 -26.858  1.00  0.00     0.176 A 
HETATM   49  N13 UNL     1       0.992 -44.573 -26.068  1.00  0.00    -0.316 N 
ATOM     50  H13 UNL     1       0.022 -44.574 -25.753  1.00  0.00     0.169 HD
BRANCH  48  51
HETATM   51  N11 UNL     1       0.749 -46.556 -27.309  1.00  0.00    -0.259 N 
ATOM     52  H11 UNL     1       0.854 -47.493 -26.921  1.00  0.00     0.181 HD
BRANCH  51  53
HETATM   53  S2  UNL     1      -0.360 -46.231 -28.581  1.00  0.00     0.264 S 
HETATM   54  O4  UNL     1      -1.106 -44.961 -28.219  1.00  0.00    -0.200 OA
HETATM   55  O5  UNL     1       0.374 -45.998 -29.881  1.00  0.00    -0.200 OA
BRANCH  53  56
HETATM   56  C11 UNL     1      -1.547 -47.516 -28.773  1.00  0.00     0.080 A 
HETATM   57  C12 UNL     1      -2.902 -47.323 -28.605  1.00  0.00     0.027 A 
HETATM   58  C13 UNL     1      -3.821 -48.371 -28.755  1.00  0.00     0.028 A 
HETATM   59  C14 UNL     1      -3.391 -49.641 -29.078  1.00  0.00     0.046 A 
HETATM   60  N12 UNL     1      -4.355 -50.669 -29.218  1.00  0.00    -0.102 NA
HETATM   61  C15 UNL     1      -2.038 -49.827 -29.244  1.00  0.00     0.028 A 
HETATM   62  C16 UNL     1      -1.132 -48.803 -29.099  1.00  0.00     0.027 A 
ENDBRANCH  53  56
ENDBRANCH  51  53
ENDBRANCH  48  51
ENDBRANCH  41  44
ENDBRANCH  38  40
ENDBRANCH   1  36
TORSDOF 19
ENDMDL
MODEL 4
REMARK VINA RESULT: -8.632634140      4.313      6.635
REMARK  19 active torsions:
REMARK  status: ('A' for Active; 'I' for Inactive)
REMARK    1  A    between atoms: N1_1  and  N2_4 
REMARK    2  A    between atoms: N2_4  and  N3_6 
REMARK    3  A    between atoms: C1_8  and  N4_9 
REMARK    4  A    between atoms: C1_8  and  C17_52 
REMARK    5  A    between atoms: N4_9  and  C2_11 
REMARK    6  A    between atoms: C2_11  and  C3_12 
REMARK    7  A    between atoms: C3_12  and  C4_13 
REMARK    8  A    between atoms: C4_13  and  N5_14 
REMARK    9  A    between atoms: N5_14  and  C5_17 
REMARK   10  A    between atoms: C5_17  and  C6_18 
REMARK   11  A    between atoms: C5_17  and  C7_25 
REMARK       I    between atoms: C6_18  and  N6_20 
REMARK   12  A    between atoms: N6_20  and  N7_22 
REMARK       I    between atoms: C7_25  and  N8_27 
REMARK   13  A    between atoms: N8_27  and  N9_29 
REMARK       I    between atoms: N9_29  and  C8_31 
REMARK   14  A    between atoms: C8_31  and  C9_33 
REMARK   15  A    between atoms: C10_37  and  N11_38 
REMARK   16  A    between atoms: N11_38  and  S2_40 
REMARK   17  A    between atoms: S2_40  and  C11_43 
REMARK   18  A    between atoms: C17_52  and  N14_53 
REMARK   19  A    between atoms: C17_52  and  C18_57 
ROOT
HETATM    1  C5  UNL     1       2.194 -38.647 -18.040  1.00  0.00     0.371 C 
ENDROOT
BRANCH   1   2
HETATM    2  N5  UNL     1       1.983 -39.526 -16.935  1.00  0.00    -0.053 N 
ATOM      3  H52 UNL     1       2.827 -39.591 -16.366  1.00  0.00     0.278 HD
ATOM      4  H51 UNL     1       1.915 -40.492 -17.257  1.00  0.00     0.278 HD
BRANCH   2   5
HETATM    5  C4  UNL     1       0.872 -39.196 -16.131  1.00  0.00     0.235 C 
BRANCH   5   6
HETATM    6  C3  UNL     1      -0.424 -39.086 -16.954  1.00  0.00     0.047 C 
BRANCH   6   7
HETATM    7  C2  UNL     1      -1.033 -40.423 -17.234  1.00  0.00     0.122 C 
BRANCH   7   8
HETATM    8  N4  UNL     1      -1.369 -40.536 -18.630  1.00  0.00    -0.377 N 
ATOM      9  H4  UNL     1      -0.686 -40.210 -19.314  1.00  0.00     0.160 HD
BRANCH   8  10
HETATM   10  C1  UNL     1      -2.587 -41.070 -19.107  1.00  0.00     0.128 C 
HETATM   11  N3  UNL     1      -3.500 -40.199 -19.475  1.00  0.00    -0.273 N 
ATOM     12  H3  UNL     1      -4.396 -40.538 -19.827  1.00  0.00     0.190 HD
BRANCH  11  13
HETATM   13  N2  UNL     1      -3.280 -38.828 -19.399  1.00  0.00    -0.248 N 
ATOM     14  H2  UNL     1      -3.111 -38.393 -18.492  1.00  0.00     0.207 HD
BRANCH  13  15
HETATM   15  N1  UNL     1      -3.289 -38.053 -20.538  1.00  0.00    -0.331 N 
ATOM     16  H12 UNL     1      -2.805 -38.395 -21.367  1.00  0.00     0.178 HD
ATOM     17  H11 UNL     1      -3.770 -37.154 -20.549  1.00  0.00     0.178 HD
ENDBRANCH  13  15
ENDBRANCH  11  13
BRANCH  10  18
HETATM   18  C17 UNL     1      -2.933 -42.486 -19.226  1.00  0.00     0.284 C 
BRANCH  18  19
HETATM   19  N14 UNL     1      -4.361 -42.701 -19.041  1.00  0.00    -0.064 N 
ATOM     20 3H14 UNL     1      -4.863 -41.818 -18.947  1.00  0.00     0.275 HD
ATOM     21 2H14 UNL     1      -4.801 -43.042 -19.895  1.00  0.00     0.275 HD
ATOM     22 1H14 UNL     1      -4.544 -43.322 -18.253  1.00  0.00     0.275 HD
ENDBRANCH  18  19
BRANCH  18  23
HETATM   23  C18 UNL     1      -2.455 -43.169 -20.440  1.00  0.00    -0.021 A 
HETATM   24  C19 UNL     1      -3.085 -42.890 -21.628  1.00  0.00     0.010 A 
HETATM   25  C20 UNL     1      -2.689 -43.484 -22.825  1.00  0.00     0.001 A 
HETATM   26  C21 UNL     1      -1.640 -44.372 -22.822  1.00  0.00     0.000 A 
HETATM   27  C22 UNL     1      -0.988 -44.671 -21.633  1.00  0.00     0.001 A 
HETATM   28  C23 UNL     1      -1.412 -44.054 -20.448  1.00  0.00     0.010 A 
ENDBRANCH  18  23
ENDBRANCH  10  18
ENDBRANCH   8  10
ENDBRANCH   7   8
ENDBRANCH   6   7
ENDBRANCH   5   6
ENDBRANCH   2   5
ENDBRANCH   1   2
BRANCH   1  29
HETATM   29  C6  UNL     1       3.254 -37.685 -17.768  1.00  0.00     0.276 C 
HETATM   30  O1  UNL     1       3.075 -36.428 -17.818  1.00  0.00    -0.269 OA
HETATM   31  N6  UNL     1       4.576 -38.138 -17.421  1.00  0.00    -0.274 N 
ATOM     32  H6  UNL     1       4.778 -39.136 -17.354  1.00  0.00     0.189 HD
BRANCH  31  33
HETATM   33  N7  UNL     1       5.594 -37.179 -17.172  1.00  0.00    -0.343 N 
ATOM     34  H72 UNL     1       5.371 -36.185 -17.223  1.00  0.00     0.176 HD
ATOM     35  H71 UNL     1       6.535 -37.500 -16.946  1.00  0.00     0.176 HD
ENDBRANCH  31  33
ENDBRANCH   1  29
BRANCH   1  36
HETATM   36  C7  UNL     1       2.271 -39.321 -19.331  1.00  0.00     0.276 C 
HETATM   37  O2  UNL     1       3.312 -39.960 -19.651  1.00  0.00    -0.269 OA
HETATM   38  N8  UNL     1       1.199 -39.292 -20.246  1.00  0.00    -0.265 N 
ATOM     39  H8  UNL     1       0.364 -38.767 -19.989  1.00  0.00     0.190 HD
BRANCH  38  40
HETATM   40  N9  UNL     1       1.211 -39.939 -21.481  1.00  0.00    -0.261 N 
HETATM   41  C8  UNL     1       0.022 -40.230 -22.139  1.00  0.00     0.304 C 
HETATM   42  O3  UNL     1      -1.073 -39.909 -21.643  1.00  0.00    -0.263 OA
ATOM     43  H9  UNL     1       2.100 -40.200 -21.905  1.00  0.00     0.190 HD
BRANCH  41  44
HETATM   44  C9  UNL     1       0.038 -40.935 -23.458  1.00  0.00     0.184 A 
HETATM   45  N10 UNL     1      -1.007 -40.827 -24.298  1.00  0.00    -0.305 N 
HETATM   46  S1  UNL     1      -0.584 -41.790 -25.599  1.00  0.00     0.025 SA
ATOM     47  H10 UNL     1      -1.861 -40.284 -24.171  1.00  0.00     0.176 HD
HETATM   48  C10 UNL     1       0.928 -42.315 -25.035  1.00  0.00     0.176 A 
HETATM   49  N13 UNL     1       1.031 -41.707 -23.851  1.00  0.00    -0.316 N 
ATOM     50  H13 UNL     1       1.856 -41.837 -23.266  1.00  0.00     0.169 HD
BRANCH  48  51
HETATM   51  N11 UNL     1       1.830 -43.120 -25.552  1.00  0.00    -0.259 N 
ATOM     52  H11 UNL     1       2.570 -42.770 -26.161  1.00  0.00     0.181 HD
BRANCH  51  53
HETATM   53  S2  UNL     1       1.708 -44.789 -25.158  1.00  0.00     0.264 S 
HETATM   54  O4  UNL     1       1.944 -44.920 -23.665  1.00  0.00    -0.200 OA
HETATM   55  O5  UNL     1       0.324 -45.310 -25.468  1.00  0.00    -0.200 OA
BRANCH  53  56
HETATM   56  C11 UNL     1       2.924 -45.758 -25.982  1.00  0.00     0.080 A 
HETATM   57  C12 UNL     1       3.891 -46.480 -25.317  1.00  0.00     0.027 A 
HETATM   58  C13 UNL     1       4.853 -47.234 -26.004  1.00  0.00     0.028 A 
HETATM   59  C14 UNL     1       4.859 -47.276 -27.383  1.00  0.00     0.046 A 
HETATM   60  N12 UNL     1       5.849 -48.049 -28.035  1.00  0.00    -0.102 NA
HETATM   61  C15 UNL     1       3.890 -46.553 -28.041  1.00  0.00     0.028 A 
HETATM   62  C16 UNL     1       2.944 -45.812 -27.372  1.00  0.00     0.027 A 
ENDBRANCH  53  56
ENDBRANCH  51  53
ENDBRANCH  48  51
ENDBRANCH  41  44
ENDBRANCH  38  40
ENDBRANCH   1  36
TORSDOF 19
ENDMDL
MODEL 5
REMARK VINA RESULT: -8.623409391      1.638      2.046
REMARK  19 active torsions:
REMARK  status: ('A' for Active; 'I' for Inactive)
REMARK    1  A    between atoms: N1_1  and  N2_4 
REMARK    2  A    between atoms: N2_4  and  N3_6 
REMARK    3  A    between atoms: C1_8  and  N4_9 
REMARK    4  A    between atoms: C1_8  and  C17_52 
REMARK    5  A    between atoms: N4_9  and  C2_11 
REMARK    6  A    between atoms: C2_11  and  C3_12 
REMARK    7  A    between atoms: C3_12  and  C4_13 
REMARK    8  A    between atoms: C4_13  and  N5_14 
REMARK    9  A    between atoms: N5_14  and  C5_17 
REMARK   10  A    between atoms: C5_17  and  C6_18 
REMARK   11  A    between atoms: C5_17  and  C7_25 
REMARK       I    between atoms: C6_18  and  N6_20 
REMARK   12  A    between atoms: N6_20  and  N7_22 
REMARK       I    between atoms: C7_25  and  N8_27 
REMARK   13  A    between atoms: N8_27  and  N9_29 
REMARK       I    between atoms: N9_29  and  C8_31 
REMARK   14  A    between atoms: C8_31  and  C9_33 
REMARK   15  A    between atoms: C10_37  and  N11_38 
REMARK   16  A    between atoms: N11_38  and  S2_40 
REMARK   17  A    between atoms: S2_40  and  C11_43 
REMARK   18  A    between atoms: C17_52  and  N14_53 
REMARK   19  A    between atoms: C17_52  and  C18_57 
ROOT
HETATM    1  C5  UNL     1      -1.929 -43.410 -20.099  1.00  0.00     0.371 C 
ENDROOT
BRANCH   1   2
HETATM    2  N5  UNL     1      -3.225 -42.839 -20.274  1.00  0.00    -0.053 N 
ATOM      3  H52 UNL     1      -3.871 -43.198 -19.571  1.00  0.00     0.278 HD
ATOM      4  H51 UNL     1      -3.665 -43.207 -21.119  1.00  0.00     0.278 HD
BRANCH   2   5
HETATM    5  C4  UNL     1      -3.244 -41.428 -20.285  1.00  0.00     0.235 C 
BRANCH   5   6
HETATM    6  C3  UNL     1      -2.929 -40.857 -21.678  1.00  0.00     0.047 C 
BRANCH   6   7
HETATM    7  C2  UNL     1      -4.083 -40.993 -22.620  1.00  0.00     0.122 C 
BRANCH   7   8
HETATM    8  N4  UNL     1      -3.625 -40.922 -23.983  1.00  0.00    -0.377 N 
ATOM      9  H4  UNL     1      -3.664 -41.772 -24.547  1.00  0.00     0.160 HD
BRANCH   8  10
HETATM   10  C1  UNL     1      -3.124 -39.746 -24.588  1.00  0.00     0.128 C 
HETATM   11  N3  UNL     1      -1.880 -39.793 -25.008  1.00  0.00    -0.273 N 
ATOM     12  H3  UNL     1      -1.475 -38.968 -25.451  1.00  0.00     0.190 HD
BRANCH  11  13
HETATM   13  N2  UNL     1      -1.099 -40.934 -24.867  1.00  0.00    -0.248 N 
ATOM     14  H2  UNL     1      -0.776 -41.215 -23.941  1.00  0.00     0.207 HD
BRANCH  13  15
HETATM   15  N1  UNL     1      -0.758 -41.691 -25.967  1.00  0.00    -0.331 N 
ATOM     16  H12 UNL     1       0.082 -41.443 -26.490  1.00  0.00     0.178 HD
ATOM     17  H11 UNL     1      -1.335 -42.482 -26.251  1.00  0.00     0.178 HD
ENDBRANCH  13  15
ENDBRANCH  11  13
BRANCH  10  18
HETATM   18  C17 UNL     1      -3.846 -38.490 -24.784  1.00  0.00     0.284 C 
BRANCH  18  19
HETATM   19  N14 UNL     1      -5.134 -38.712 -25.425  1.00  0.00    -0.064 N 
ATOM     20 3H14 UNL     1      -5.033 -38.853 -26.430  1.00  0.00     0.275 HD
ATOM     21 2H14 UNL     1      -5.523 -39.621 -25.177  1.00  0.00     0.275 HD
ATOM     22 1H14 UNL     1      -5.789 -37.957 -25.217  1.00  0.00     0.275 HD
ENDBRANCH  18  19
BRANCH  18  23
HETATM   23  C18 UNL     1      -3.997 -37.638 -23.592  1.00  0.00    -0.021 A 
HETATM   24  C19 UNL     1      -5.240 -37.122 -23.320  1.00  0.00     0.010 A 
HETATM   25  C20 UNL     1      -5.472 -36.316 -22.207  1.00  0.00     0.001 A 
HETATM   26  C21 UNL     1      -4.432 -36.027 -21.356  1.00  0.00     0.000 A 
HETATM   27  C22 UNL     1      -3.166 -36.537 -21.609  1.00  0.00     0.001 A 
HETATM   28  C23 UNL     1      -2.970 -37.345 -22.738  1.00  0.00     0.010 A 
ENDBRANCH  18  23
ENDBRANCH  10  18
ENDBRANCH   8  10
ENDBRANCH   7   8
ENDBRANCH   6   7
ENDBRANCH   5   6
ENDBRANCH   2   5
ENDBRANCH   1   2
BRANCH   1  29
HETATM   29  C6  UNL     1      -1.816 -44.107 -18.824  1.00  0.00     0.276 C 
HETATM   30  O1  UNL     1      -0.706 -44.510 -18.354  1.00  0.00    -0.269 OA
HETATM   31  N6  UNL     1      -2.989 -44.367 -18.030  1.00  0.00    -0.274 N 
ATOM     32  H6  UNL     1      -3.907 -44.058 -18.350  1.00  0.00     0.189 HD
BRANCH  31  33
HETATM   33  N7  UNL     1      -2.851 -45.059 -16.796  1.00  0.00    -0.343 N 
ATOM     34  H72 UNL     1      -2.035 -45.650 -16.641  1.00  0.00     0.176 HD
ATOM     35  H71 UNL     1      -3.573 -44.952 -16.084  1.00  0.00     0.176 HD
ENDBRANCH  31  33
ENDBRANCH   1  29
BRANCH   1  36
HETATM   36  C7  UNL     1      -1.438 -44.141 -21.261  1.00  0.00     0.276 C 
HETATM   37  O2  UNL     1      -1.898 -45.284 -21.533  1.00  0.00    -0.269 OA
HETATM   38  N8  UNL     1      -0.455 -43.599 -22.114  1.00  0.00    -0.265 N 
ATOM     39  H8  UNL     1      -0.077 -42.679 -21.886  1.00  0.00     0.190 HD
BRANCH  38  40
HETATM   40  N9  UNL     1       0.032 -44.242 -23.251  1.00  0.00    -0.261 N 
HETATM   41  C8  UNL     1       1.034 -43.663 -24.019  1.00  0.00     0.304 C 
HETATM   42  O3  UNL     1       1.521 -42.563 -23.701  1.00  0.00    -0.263 OA
ATOM     43  H9  UNL     1      -0.351 -45.148 -23.520  1.00  0.00     0.190 HD
BRANCH  41  44
HETATM   44  C9  UNL     1       1.544 -44.350 -25.246  1.00  0.00     0.184 A 
HETATM   45  N10 UNL     1       2.713 -43.977 -25.796  1.00  0.00    -0.305 N 
HETATM   46  S1  UNL     1       2.864 -44.963 -27.138  1.00  0.00     0.025 SA
ATOM     47  H10 UNL     1       3.360 -43.259 -25.469  1.00  0.00     0.176 HD
HETATM   48  C10 UNL     1       1.418 -45.835 -26.967  1.00  0.00     0.176 A 
HETATM   49  N13 UNL     1       0.884 -45.311 -25.861  1.00  0.00    -0.316 N 
ATOM     50  H13 UNL     1      -0.010 -45.645 -25.502  1.00  0.00     0.169 HD
BRANCH  48  51
HETATM   51  N11 UNL     1       0.872 -46.786 -27.692  1.00  0.00    -0.259 N 
ATOM     52  H11 UNL     1       1.208 -47.749 -27.647  1.00  0.00     0.181 HD
BRANCH  51  53
HETATM   53  S2  UNL     1      -0.434 -46.340 -28.718  1.00  0.00     0.264 S 
HETATM   54  O4  UNL     1      -1.066 -45.094 -28.129  1.00  0.00    -0.200 OA
HETATM   55  O5  UNL     1       0.068 -46.010 -30.104  1.00  0.00    -0.200 OA
BRANCH  53  56
HETATM   56  C11 UNL     1      -1.673 -47.587 -28.799  1.00  0.00     0.080 A 
HETATM   57  C12 UNL     1      -1.400 -48.902 -29.109  1.00  0.00     0.027 A 
HETATM   58  C13 UNL     1      -2.412 -49.870 -29.177  1.00  0.00     0.028 A 
HETATM   59  C14 UNL     1      -3.726 -49.530 -28.931  1.00  0.00     0.046 A 
HETATM   60  N12 UNL     1      -4.715 -50.539 -29.012  1.00  0.00    -0.102 NA
HETATM   61  C15 UNL     1      -3.992 -48.215 -28.622  1.00  0.00     0.028 A 
HETATM   62  C16 UNL     1      -3.003 -47.262 -28.554  1.00  0.00     0.027 A 
ENDBRANCH  53  56
ENDBRANCH  51  53
ENDBRANCH  48  51
ENDBRANCH  41  44
ENDBRANCH  38  40
ENDBRANCH   1  36
TORSDOF 19
ENDMDL
