MODEL 1
REMARK VINA RESULT: -11.771179548      0.000      0.000
REMARK  17 active torsions:
REMARK  status: ('A' for Active; 'I' for Inactive)
REMARK       I    between atoms: C1_4  and  N2_5 
REMARK       I    between atoms: C1_4  and  N3_8 
REMARK    1  A    between atoms: N3_8  and  N4_10 
REMARK    2  A    between atoms: N4_10  and  C2_11 
REMARK    3  A    between atoms: C2_11  and  C3_12 
REMARK    4  A    between atoms: C2_11  and  C20_52 
REMARK       I    between atoms: C3_12  and  N5_14 
REMARK    5  A    between atoms: N5_14  and  N6_16 
REMARK    6  A    between atoms: N6_16  and  C4_18 
REMARK    7  A    between atoms: C8_22  and  S1_23 
REMARK    8  A    between atoms: S1_23  and  N7_26 
REMARK       I    between atoms: N7_26  and  C9_27 
REMARK    9  A    between atoms: C9_27  and  C10_29 
REMARK   10  A    between atoms: C10_29  and  N8_30 
REMARK   11  A    between atoms: C10_29  and  C11_34 
REMARK   12  A    between atoms: C11_34  and  C12_36 
REMARK   13  A    between atoms: C14_40  and  C15_41 
REMARK   14  A    between atoms: C15_41  and  O7_42 
REMARK   15  A    between atoms: C15_41  and  C16_44 
REMARK   16  A    between atoms: C17_47  and  O9_48 
REMARK   17  A    between atoms: C23_55  and  O10_56 
ROOT
HETATM    1  C4  UNL     1       0.674 -43.941 -24.211  1.00  0.00     0.049 A 
HETATM    2  C5  UNL     1      -0.438 -44.182 -25.039  1.00  0.00     0.032 A 
HETATM    3  C6  UNL     1      -0.312 -44.868 -26.222  1.00  0.00     0.016 A 
HETATM    4  C7  UNL     1       0.938 -45.342 -26.629  1.00  0.00     0.001 A 
HETATM    5  C8  UNL     1       1.115 -46.071 -27.805  1.00  0.00     0.104 A 
HETATM    6  C13 UNL     1       2.401 -46.531 -28.129  1.00  0.00     0.040 A 
HETATM    7  C14 UNL     1       3.489 -46.295 -27.349  1.00  0.00     0.015 A 
HETATM    8  C17 UNL     1       3.321 -45.587 -26.186  1.00  0.00     0.086 A 
HETATM    9  C18 UNL     1       2.029 -45.108 -25.830  1.00  0.00     0.012 A 
HETATM   10  C19 UNL     1       1.857 -44.411 -24.645  1.00  0.00     0.046 A 
ENDROOT
BRANCH   1  11
HETATM   11  N6  UNL     1       0.515 -43.249 -23.011  1.00  0.00    -0.298 N 
ATOM     12  H6  UNL     1       1.235 -43.423 -22.309  1.00  0.00     0.187 HD
BRANCH  11  13
HETATM   13  N5  UNL     1      -0.462 -42.373 -22.636  1.00  0.00    -0.263 N 
HETATM   14  C3  UNL     1      -0.660 -41.011 -23.111  1.00  0.00     0.303 C 
HETATM   15  O1  UNL     1       0.134 -40.542 -23.938  1.00  0.00    -0.263 OA
ATOM     16  H5  UNL     1      -1.130 -42.711 -21.943  1.00  0.00     0.190 HD
BRANCH  14  17
HETATM   17  C2  UNL     1      -1.823 -40.315 -22.548  1.00  0.00     0.211 C 
BRANCH  17  18
HETATM   18  N4  UNL     1      -2.161 -40.566 -21.414  1.00  0.00    -0.304 NA
BRANCH  18  19
HETATM   19  N3  UNL     1      -2.396 -40.783 -20.181  1.00  0.00    -0.065 N 
HETATM   20  C1  UNL     1      -3.633 -41.229 -19.574  1.00  0.00     0.694 C 
HETATM   21  N1  UNL     1      -4.157 -40.437 -18.734  1.00  0.00    -0.233 N 
HETATM   22  N2  UNL     1      -4.175 -42.443 -19.941  1.00  0.00    -0.233 N 
ATOM     23  H12 UNL     1      -5.028 -40.751 -18.307  1.00  0.00     0.174 HD
ATOM     24  H11 UNL     1      -3.756 -39.540 -18.463  1.00  0.00     0.174 HD
ATOM     25  H22 UNL     1      -5.047 -42.757 -19.514  1.00  0.00     0.174 HD
ATOM     26  H21 UNL     1      -3.753 -43.081 -20.616  1.00  0.00     0.174 HD
ATOM     27  H3  UNL     1      -1.616 -40.623 -19.542  1.00  0.00     0.221 HD
ENDBRANCH  18  19
ENDBRANCH  17  18
BRANCH  17  28
HETATM   28  C20 UNL     1      -2.681 -39.449 -23.372  1.00  0.00     0.013 A 
HETATM   29  C21 UNL     1      -3.394 -39.842 -24.463  1.00  0.00     0.018 A 
HETATM   30  C22 UNL     1      -4.271 -38.969 -25.095  1.00  0.00     0.037 A 
HETATM   31  C23 UNL     1      -4.461 -37.690 -24.666  1.00  0.00     0.065 A 
HETATM   32  C24 UNL     1      -3.746 -37.259 -23.563  1.00  0.00     0.037 A 
HETATM   33  C25 UNL     1      -2.888 -38.125 -22.949  1.00  0.00     0.018 A 
BRANCH  31  34
HETATM   34  O10 UNL     1      -5.343 -36.771 -25.258  1.00  0.00    -0.361 OA
ATOM     35  H10 UNL     1      -5.992 -36.262 -24.785  1.00  0.00     0.217 HD
ENDBRANCH  31  34
ENDBRANCH  17  28
ENDBRANCH  14  17
ENDBRANCH  11  13
ENDBRANCH   1  11
BRANCH   8  36
HETATM   36  O9  UNL     1       4.316 -45.307 -25.280  1.00  0.00    -0.359 OA
ATOM     37  H9  UNL     1       4.221 -45.347 -24.335  1.00  0.00     0.217 HD
ENDBRANCH   8  36
BRANCH   5  38
HETATM   38  S1  UNL     1      -0.217 -46.407 -28.848  1.00  0.00     0.328 S 
HETATM   39  O2  UNL     1       0.174 -45.960 -30.313  1.00  0.00    -0.186 OA
HETATM   40  O3  UNL     1      -1.270 -45.318 -28.518  1.00  0.00    -0.186 OA
BRANCH  38  41
HETATM   41  N7  UNL     1      -0.980 -47.853 -28.848  1.00  0.00    -0.278 NA
HETATM   42  C9  UNL     1      -1.610 -49.075 -28.841  1.00  0.00     0.342 C 
HETATM   43  O4  UNL     1      -1.268 -50.180 -28.417  1.00  0.00    -0.253 OA
BRANCH  42  44
HETATM   44  C10 UNL     1      -3.018 -49.144 -29.458  1.00  0.00     0.368 C 
BRANCH  44  45
HETATM   45  N8  UNL     1      -2.986 -49.129 -30.873  1.00  0.00    -0.058 N 
ATOM     46  H83 UNL     1      -2.110 -48.736 -31.217  1.00  0.00     0.275 HD
ATOM     47  H82 UNL     1      -2.900 -50.073 -31.249  1.00  0.00     0.275 HD
ATOM     48  H81 UNL     1      -3.790 -48.645 -31.274  1.00  0.00     0.275 HD
ENDBRANCH  44  45
BRANCH  44  49
HETATM   49  C11 UNL     1      -3.959 -48.212 -28.855  1.00  0.00     0.254 C 
HETATM   50  O5  UNL     1      -3.609 -47.059 -28.543  1.00  0.00    -0.285 OA
BRANCH  49  51
HETATM   51  C12 UNL     1      -5.346 -48.633 -28.573  1.00  0.00     0.303 C 
HETATM   52  N9  UNL     1      -5.525 -49.654 -27.607  1.00  0.00    -0.054 NA
HETATM   53  O6  UNL     1      -6.322 -48.134 -29.171  1.00  0.00    -0.268 OA
ENDBRANCH  49  51
ENDBRANCH  44  49
ENDBRANCH  42  44
ENDBRANCH  38  41
ENDBRANCH   5  38
BRANCH   7  54
HETATM   54  C15 UNL     1       4.886 -46.638 -27.761  1.00  0.00     0.243 C 
BRANCH  54  55
HETATM   55  O7  UNL     1       4.706 -46.874 -29.200  1.00  0.00    -0.382 OA
ATOM     56  H7  UNL     1       5.532 -47.287 -29.423  1.00  0.00     0.211 HD
ENDBRANCH  54  55
BRANCH  54  57
HETATM   57  C16 UNL     1       5.364 -47.945 -27.315  1.00  0.00     0.264 C 
HETATM   58  N10 UNL     1       5.675 -48.127 -25.921  1.00  0.00    -0.059 NA
HETATM   59  O8  UNL     1       5.518 -48.910 -28.095  1.00  0.00    -0.274 OA
ENDBRANCH  54  57
ENDBRANCH   7  54
TORSDOF 17
ENDMDL
MODEL 2
REMARK VINA RESULT: -11.380689527      2.251      3.429
REMARK  17 active torsions:
REMARK  status: ('A' for Active; 'I' for Inactive)
REMARK       I    between atoms: C1_4  and  N2_5 
REMARK       I    between atoms: C1_4  and  N3_8 
REMARK    1  A    between atoms: N3_8  and  N4_10 
REMARK    2  A    between atoms: N4_10  and  C2_11 
REMARK    3  A    between atoms: C2_11  and  C3_12 
REMARK    4  A    between atoms: C2_11  and  C20_52 
REMARK       I    between atoms: C3_12  and  N5_14 
REMARK    5  A    between atoms: N5_14  and  N6_16 
REMARK    6  A    between atoms: N6_16  and  C4_18 
REMARK    7  A    between atoms: C8_22  and  S1_23 
REMARK    8  A    between atoms: S1_23  and  N7_26 
REMARK       I    between atoms: N7_26  and  C9_27 
REMARK    9  A    between atoms: C9_27  and  C10_29 
REMARK   10  A    between atoms: C10_29  and  N8_30 
REMARK   11  A    between atoms: C10_29  and  C11_34 
REMARK   12  A    between atoms: C11_34  and  C12_36 
REMARK   13  A    between atoms: C14_40  and  C15_41 
REMARK   14  A    between atoms: C15_41  and  O7_42 
REMARK   15  A    between atoms: C15_41  and  C16_44 
REMARK   16  A    between atoms: C17_47  and  O9_48 
REMARK   17  A    between atoms: C23_55  and  O10_56 
ROOT
HETATM    1  C4  UNL     1       0.653 -44.583 -24.010  1.00  0.00     0.049 A 
HETATM    2  C5  UNL     1      -0.390 -44.735 -24.944  1.00  0.00     0.032 A 
HETATM    3  C6  UNL     1      -0.163 -45.269 -26.188  1.00  0.00     0.016 A 
HETATM    4  C7  UNL     1       1.123 -45.673 -26.553  1.00  0.00     0.001 A 
HETATM    5  C8  UNL     1       1.402 -46.250 -27.793  1.00  0.00     0.104 A 
HETATM    6  C13 UNL     1       2.719 -46.650 -28.072  1.00  0.00     0.040 A 
HETATM    7  C14 UNL     1       3.741 -46.498 -27.189  1.00  0.00     0.015 A 
HETATM    8  C17 UNL     1       3.472 -45.940 -25.965  1.00  0.00     0.086 A 
HETATM    9  C18 UNL     1       2.148 -45.525 -25.652  1.00  0.00     0.012 A 
HETATM   10  C19 UNL     1       1.874 -44.981 -24.408  1.00  0.00     0.046 A 
ENDROOT
BRANCH   1  11
HETATM   11  N6  UNL     1       0.391 -44.045 -22.750  1.00  0.00    -0.298 N 
ATOM     12  H6  UNL     1       1.110 -44.214 -22.047  1.00  0.00     0.187 HD
BRANCH  11  13
HETATM   13  N5  UNL     1      -0.686 -43.327 -22.319  1.00  0.00    -0.263 N 
HETATM   14  C3  UNL     1      -1.896 -43.837 -21.688  1.00  0.00     0.303 C 
HETATM   15  O1  UNL     1      -2.016 -45.058 -21.518  1.00  0.00    -0.263 OA
ATOM     16  H5  UNL     1      -0.638 -42.317 -22.453  1.00  0.00     0.190 HD
BRANCH  14  17
HETATM   17  C2  UNL     1      -2.877 -42.817 -21.299  1.00  0.00     0.211 C 
BRANCH  17  18
HETATM   18  N4  UNL     1      -3.491 -42.238 -22.166  1.00  0.00    -0.304 NA
BRANCH  18  19
HETATM   19  N3  UNL     1      -4.047 -41.677 -23.166  1.00  0.00    -0.065 N 
HETATM   20  C1  UNL     1      -3.478 -40.701 -24.072  1.00  0.00     0.694 C 
HETATM   21  N1  UNL     1      -4.053 -39.573 -24.105  1.00  0.00    -0.233 N 
HETATM   22  N2  UNL     1      -2.361 -41.027 -24.814  1.00  0.00    -0.233 N 
ATOM     23  H12 UNL     1      -3.652 -38.885 -24.743  1.00  0.00     0.174 HD
ATOM     24  H11 UNL     1      -4.878 -39.331 -23.557  1.00  0.00     0.174 HD
ATOM     25  H22 UNL     1      -1.960 -40.339 -25.451  1.00  0.00     0.174 HD
ATOM     26  H21 UNL     1      -1.898 -41.935 -24.787  1.00  0.00     0.174 HD
ATOM     27  H3  UNL     1      -5.012 -41.950 -23.351  1.00  0.00     0.221 HD
ENDBRANCH  18  19
ENDBRANCH  17  18
BRANCH  17  28
HETATM   28  C20 UNL     1      -3.015 -42.367 -19.906  1.00  0.00     0.013 A 
HETATM   29  C21 UNL     1      -3.348 -43.153 -18.846  1.00  0.00     0.018 A 
HETATM   30  C22 UNL     1      -3.329 -42.650 -17.550  1.00  0.00     0.037 A 
HETATM   31  C23 UNL     1      -2.985 -41.361 -17.275  1.00  0.00     0.065 A 
HETATM   32  C24 UNL     1      -2.648 -40.535 -18.332  1.00  0.00     0.037 A 
HETATM   33  C25 UNL     1      -2.668 -41.040 -19.600  1.00  0.00     0.018 A 
BRANCH  31  34
HETATM   34  O10 UNL     1      -2.937 -40.804 -15.985  1.00  0.00    -0.361 OA
ATOM     35  H10 UNL     1      -3.604 -40.237 -15.615  1.00  0.00     0.217 HD
ENDBRANCH  31  34
ENDBRANCH  17  28
ENDBRANCH  14  17
ENDBRANCH  11  13
ENDBRANCH   1  11
BRANCH   8  36
HETATM   36  O9  UNL     1       4.392 -45.761 -24.959  1.00  0.00    -0.359 OA
ATOM     37  H9  UNL     1       4.237 -45.276 -24.157  1.00  0.00     0.217 HD
ENDBRANCH   8  36
BRANCH   5  38
HETATM   38  S1  UNL     1       0.158 -46.471 -28.966  1.00  0.00     0.328 S 
HETATM   39  O2  UNL     1       0.673 -45.906 -30.350  1.00  0.00    -0.186 OA
HETATM   40  O3  UNL     1      -0.908 -45.399 -28.629  1.00  0.00    -0.186 OA
BRANCH  38  41
HETATM   41  N7  UNL     1      -0.616 -47.900 -29.156  1.00  0.00    -0.278 NA
HETATM   42  C9  UNL     1      -1.254 -49.105 -29.325  1.00  0.00     0.342 C 
HETATM   43  O4  UNL     1      -1.001 -50.085 -30.027  1.00  0.00    -0.253 OA
BRANCH  42  44
HETATM   44  C10 UNL     1      -2.534 -49.343 -28.505  1.00  0.00     0.368 C 
BRANCH  44  45
HETATM   45  N8  UNL     1      -2.973 -50.687 -28.570  1.00  0.00    -0.058 N 
ATOM     46  H83 UNL     1      -2.315 -51.264 -29.096  1.00  0.00     0.275 HD
ATOM     47  H82 UNL     1      -2.899 -51.143 -27.661  1.00  0.00     0.275 HD
ATOM     48  H81 UNL     1      -3.917 -50.769 -28.948  1.00  0.00     0.275 HD
ENDBRANCH  44  45
BRANCH  44  49
HETATM   49  C11 UNL     1      -3.568 -48.347 -28.744  1.00  0.00     0.254 C 
HETATM   50  O5  UNL     1      -3.290 -47.135 -28.799  1.00  0.00    -0.285 OA
BRANCH  49  51
HETATM   51  C12 UNL     1      -4.978 -48.759 -28.896  1.00  0.00     0.303 C 
HETATM   52  N9  UNL     1      -5.601 -49.348 -27.768  1.00  0.00    -0.054 NA
HETATM   53  O6  UNL     1      -5.594 -48.620 -29.973  1.00  0.00    -0.268 OA
ENDBRANCH  49  51
ENDBRANCH  44  49
ENDBRANCH  42  44
ENDBRANCH  38  41
ENDBRANCH   5  38
BRANCH   7  54
HETATM   54  C15 UNL     1       5.171 -46.770 -27.534  1.00  0.00     0.243 C 
BRANCH  54  55
HETATM   55  O7  UNL     1       5.060 -47.103 -28.960  1.00  0.00    -0.382 OA
ATOM     56  H7  UNL     1       5.662 -46.475 -29.342  1.00  0.00     0.211 HD
ENDBRANCH  54  55
BRANCH  54  57
HETATM   57  C16 UNL     1       5.718 -48.012 -26.991  1.00  0.00     0.264 C 
HETATM   58  N10 UNL     1       6.482 -47.955 -25.773  1.00  0.00    -0.059 NA
HETATM   59  O8  UNL     1       5.551 -49.121 -27.544  1.00  0.00    -0.274 OA
ENDBRANCH  54  57
ENDBRANCH   7  54
TORSDOF 17
ENDMDL
MODEL 3
REMARK VINA RESULT: -11.331360853      1.093      1.240
REMARK  17 active torsions:
REMARK  status: ('A' for Active; 'I' for Inactive)
REMARK       I    between atoms: C1_4  and  N2_5 
REMARK       I    between atoms: C1_4  and  N3_8 
REMARK    1  A    between atoms: N3_8  and  N4_10 
REMARK    2  A    between atoms: N4_10  and  C2_11 
REMARK    3  A    between atoms: C2_11  and  C3_12 
REMARK    4  A    between atoms: C2_11  and  C20_52 
REMARK       I    between atoms: C3_12  and  N5_14 
REMARK    5  A    between atoms: N5_14  and  N6_16 
REMARK    6  A    between atoms: N6_16  and  C4_18 
REMARK    7  A    between atoms: C8_22  and  S1_23 
REMARK    8  A    between atoms: S1_23  and  N7_26 
REMARK       I    between atoms: N7_26  and  C9_27 
REMARK    9  A    between atoms: C9_27  and  C10_29 
REMARK   10  A    between atoms: C10_29  and  N8_30 
REMARK   11  A    between atoms: C10_29  and  C11_34 
REMARK   12  A    between atoms: C11_34  and  C12_36 
REMARK   13  A    between atoms: C14_40  and  C15_41 
REMARK   14  A    between atoms: C15_41  and  O7_42 
REMARK   15  A    between atoms: C15_41  and  C16_44 
REMARK   16  A    between atoms: C17_47  and  O9_48 
REMARK   17  A    between atoms: C23_55  and  O10_56 
ROOT
HETATM    1  C4  UNL     1       0.473 -43.988 -24.139  1.00  0.00     0.049 A 
HETATM    2  C5  UNL     1      -0.615 -44.242 -24.994  1.00  0.00     0.032 A 
HETATM    3  C6  UNL     1      -0.449 -44.905 -26.185  1.00  0.00     0.016 A 
HETATM    4  C7  UNL     1       0.820 -45.341 -26.573  1.00  0.00     0.001 A 
HETATM    5  C8  UNL     1       1.040 -46.047 -27.757  1.00  0.00     0.104 A 
HETATM    6  C13 UNL     1       2.343 -46.470 -28.061  1.00  0.00     0.040 A 
HETATM    7  C14 UNL     1       3.409 -46.221 -27.254  1.00  0.00     0.015 A 
HETATM    8  C17 UNL     1       3.199 -45.536 -26.084  1.00  0.00     0.086 A 
HETATM    9  C18 UNL     1       1.889 -45.095 -25.747  1.00  0.00     0.012 A 
HETATM   10  C19 UNL     1       1.676 -44.422 -24.555  1.00  0.00     0.046 A 
ENDROOT
BRANCH   1  11
HETATM   11  N6  UNL     1       0.272 -43.320 -22.931  1.00  0.00    -0.298 N 
ATOM     12  H6  UNL     1       0.983 -43.485 -22.219  1.00  0.00     0.187 HD
BRANCH  11  13
HETATM   13  N5  UNL     1      -0.735 -42.477 -22.561  1.00  0.00    -0.263 N 
HETATM   14  C3  UNL     1      -2.030 -42.836 -22.002  1.00  0.00     0.303 C 
HETATM   15  O1  UNL     1      -2.303 -44.034 -21.839  1.00  0.00    -0.263 OA
ATOM     16  H5  UNL     1      -0.561 -41.480 -22.693  1.00  0.00     0.190 HD
BRANCH  14  17
HETATM   17  C2  UNL     1      -2.905 -41.706 -21.668  1.00  0.00     0.211 C 
BRANCH  17  18
HETATM   18  N4  UNL     1      -3.535 -41.741 -20.637  1.00  0.00    -0.304 NA
BRANCH  18  19
HETATM   19  N3  UNL     1      -4.097 -41.711 -19.493  1.00  0.00    -0.065 N 
HETATM   20  C1  UNL     1      -3.474 -41.532 -18.198  1.00  0.00     0.694 C 
HETATM   21  N1  UNL     1      -3.613 -42.488 -17.378  1.00  0.00    -0.233 N 
HETATM   22  N2  UNL     1      -2.765 -40.378 -17.934  1.00  0.00    -0.233 N 
ATOM     23  H12 UNL     1      -3.174 -42.362 -16.466  1.00  0.00     0.174 HD
ATOM     24  H11 UNL     1      -4.136 -43.341 -17.573  1.00  0.00     0.174 HD
ATOM     25  H22 UNL     1      -2.326 -40.252 -17.023  1.00  0.00     0.174 HD
ATOM     26  H21 UNL     1      -2.654 -39.608 -18.594  1.00  0.00     0.174 HD
ATOM     27  H3  UNL     1      -5.110 -41.827 -19.490  1.00  0.00     0.221 HD
ENDBRANCH  18  19
ENDBRANCH  17  18
BRANCH  17  28
HETATM   28  C20 UNL     1      -3.159 -40.616 -22.623  1.00  0.00     0.013 A 
HETATM   29  C21 UNL     1      -3.363 -40.762 -23.961  1.00  0.00     0.018 A 
HETATM   30  C22 UNL     1      -3.719 -39.676 -24.752  1.00  0.00     0.037 A 
HETATM   31  C23 UNL     1      -3.879 -38.424 -24.239  1.00  0.00     0.065 A 
HETATM   32  C24 UNL     1      -3.674 -38.242 -22.884  1.00  0.00     0.037 A 
HETATM   33  C25 UNL     1      -3.325 -39.316 -22.116  1.00  0.00     0.018 A 
BRANCH  31  34
HETATM   34  O10 UNL     1      -4.251 -37.295 -24.989  1.00  0.00    -0.361 OA
ATOM     35  H10 UNL     1      -5.127 -36.927 -25.014  1.00  0.00     0.217 HD
ENDBRANCH  31  34
ENDBRANCH  17  28
ENDBRANCH  14  17
ENDBRANCH  11  13
ENDBRANCH   1  11
BRANCH   8  36
HETATM   36  O9  UNL     1       4.169 -45.247 -25.153  1.00  0.00    -0.359 OA
ATOM     37  H9  UNL     1       4.165 -44.491 -24.577  1.00  0.00     0.217 HD
ENDBRANCH   8  36
BRANCH   5  38
HETATM   38  S1  UNL     1      -0.262 -46.397 -28.833  1.00  0.00     0.328 S 
HETATM   39  O2  UNL     1       0.164 -45.954 -30.290  1.00  0.00    -0.186 OA
HETATM   40  O3  UNL     1      -1.330 -45.315 -28.536  1.00  0.00    -0.186 OA
BRANCH  38  41
HETATM   41  N7  UNL     1      -1.014 -47.849 -28.846  1.00  0.00    -0.278 NA
HETATM   42  C9  UNL     1      -1.634 -49.076 -28.850  1.00  0.00     0.342 C 
HETATM   43  O4  UNL     1      -1.285 -50.181 -28.435  1.00  0.00    -0.253 OA
BRANCH  42  44
HETATM   44  C10 UNL     1      -3.041 -49.150 -29.469  1.00  0.00     0.368 C 
BRANCH  44  45
HETATM   45  N8  UNL     1      -3.007 -49.137 -30.884  1.00  0.00    -0.058 N 
ATOM     46  H83 UNL     1      -2.899 -50.080 -31.259  1.00  0.00     0.275 HD
ATOM     47  H82 UNL     1      -3.922 -48.910 -31.272  1.00  0.00     0.275 HD
ATOM     48  H81 UNL     1      -2.288 -48.511 -31.248  1.00  0.00     0.275 HD
ENDBRANCH  44  45
BRANCH  44  49
HETATM   49  C11 UNL     1      -3.986 -48.221 -28.869  1.00  0.00     0.254 C 
HETATM   50  O5  UNL     1      -3.646 -47.060 -28.574  1.00  0.00    -0.285 OA
BRANCH  49  51
HETATM   51  C12 UNL     1      -5.366 -48.653 -28.569  1.00  0.00     0.303 C 
HETATM   52  N9  UNL     1      -5.524 -49.678 -27.603  1.00  0.00    -0.054 NA
HETATM   53  O6  UNL     1      -6.354 -48.159 -29.152  1.00  0.00    -0.268 OA
ENDBRANCH  49  51
ENDBRANCH  44  49
ENDBRANCH  42  44
ENDBRANCH  38  41
ENDBRANCH   5  38
BRANCH   7  54
HETATM   54  C15 UNL     1       4.822 -46.522 -27.643  1.00  0.00     0.243 C 
BRANCH  54  55
HETATM   55  O7  UNL     1       4.693 -46.652 -29.100  1.00  0.00    -0.382 OA
ATOM     56  H7  UNL     1       5.438 -47.206 -29.302  1.00  0.00     0.211 HD
ENDBRANCH  54  55
BRANCH  54  57
HETATM   57  C16 UNL     1       5.297 -47.856 -27.278  1.00  0.00     0.264 C 
HETATM   58  N10 UNL     1       5.562 -48.139 -25.892  1.00  0.00    -0.059 NA
HETATM   59  O8  UNL     1       5.486 -48.759 -28.122  1.00  0.00    -0.274 OA
ENDBRANCH  54  57
ENDBRANCH   7  54
TORSDOF 17
ENDMDL
MODEL 4
REMARK VINA RESULT: -11.265442976      1.199      1.403
REMARK  17 active torsions:
REMARK  status: ('A' for Active; 'I' for Inactive)
REMARK       I    between atoms: C1_4  and  N2_5 
REMARK       I    between atoms: C1_4  and  N3_8 
REMARK    1  A    between atoms: N3_8  and  N4_10 
REMARK    2  A    between atoms: N4_10  and  C2_11 
REMARK    3  A    between atoms: C2_11  and  C3_12 
REMARK    4  A    between atoms: C2_11  and  C20_52 
REMARK       I    between atoms: C3_12  and  N5_14 
REMARK    5  A    between atoms: N5_14  and  N6_16 
REMARK    6  A    between atoms: N6_16  and  C4_18 
REMARK    7  A    between atoms: C8_22  and  S1_23 
REMARK    8  A    between atoms: S1_23  and  N7_26 
REMARK       I    between atoms: N7_26  and  C9_27 
REMARK    9  A    between atoms: C9_27  and  C10_29 
REMARK   10  A    between atoms: C10_29  and  N8_30 
REMARK   11  A    between atoms: C10_29  and  C11_34 
REMARK   12  A    between atoms: C11_34  and  C12_36 
REMARK   13  A    between atoms: C14_40  and  C15_41 
REMARK   14  A    between atoms: C15_41  and  O7_42 
REMARK   15  A    between atoms: C15_41  and  C16_44 
REMARK   16  A    between atoms: C17_47  and  O9_48 
REMARK   17  A    between atoms: C23_55  and  O10_56 
ROOT
HETATM    1  C4  UNL     1       0.375 -44.164 -24.038  1.00  0.00     0.049 A 
HETATM    2  C5  UNL     1      -0.701 -44.407 -24.912  1.00  0.00     0.032 A 
HETATM    3  C6  UNL     1      -0.514 -45.022 -26.124  1.00  0.00     0.016 A 
HETATM    4  C7  UNL     1       0.766 -45.420 -26.518  1.00  0.00     0.001 A 
HETATM    5  C8  UNL     1       1.008 -46.077 -27.725  1.00  0.00     0.104 A 
HETATM    6  C13 UNL     1       2.321 -46.464 -28.033  1.00  0.00     0.040 A 
HETATM    7  C14 UNL     1       3.376 -46.226 -27.209  1.00  0.00     0.015 A 
HETATM    8  C17 UNL     1       3.145 -45.589 -26.017  1.00  0.00     0.086 A 
HETATM    9  C18 UNL     1       1.824 -45.185 -25.675  1.00  0.00     0.012 A 
HETATM   10  C19 UNL     1       1.589 -44.561 -24.461  1.00  0.00     0.046 A 
ENDROOT
BRANCH   1  11
HETATM   11  N6  UNL     1       0.152 -43.545 -22.808  1.00  0.00    -0.298 N 
ATOM     12  H6  UNL     1       0.498 -44.056 -21.996  1.00  0.00     0.187 HD
BRANCH  11  13
HETATM   13  N5  UNL     1      -0.459 -42.357 -22.532  1.00  0.00    -0.263 N 
HETATM   14  C3  UNL     1      -0.194 -41.062 -23.140  1.00  0.00     0.303 C 
HETATM   15  O1  UNL     1       0.693 -40.973 -24.001  1.00  0.00    -0.263 OA
ATOM     16  H5  UNL     1      -1.186 -42.380 -21.816  1.00  0.00     0.190 HD
BRANCH  14  17
HETATM   17  C2  UNL     1      -1.036 -39.960 -22.661  1.00  0.00     0.211 C 
BRANCH  17  18
HETATM   18  N4  UNL     1      -0.907 -39.581 -21.519  1.00  0.00    -0.304 NA
BRANCH  18  19
HETATM   19  N3  UNL     1      -0.787 -39.309 -20.280  1.00  0.00    -0.065 N 
HETATM   20  C1  UNL     1       0.281 -39.695 -19.382  1.00  0.00     0.694 C 
HETATM   21  N1  UNL     1      -0.056 -40.416 -18.395  1.00  0.00    -0.233 N 
HETATM   22  N2  UNL     1       1.574 -39.292 -19.644  1.00  0.00    -0.233 N 
ATOM     23  H12 UNL     1       0.696 -40.688 -17.763  1.00  0.00     0.174 HD
ATOM     24  H11 UNL     1      -1.012 -40.714 -18.201  1.00  0.00     0.174 HD
ATOM     25  H22 UNL     1       2.326 -39.564 -19.012  1.00  0.00     0.174 HD
ATOM     26  H21 UNL     1       1.845 -38.712 -20.438  1.00  0.00     0.174 HD
ATOM     27  H3  UNL     1      -1.537 -38.751 -19.871  1.00  0.00     0.221 HD
ENDBRANCH  18  19
ENDBRANCH  17  18
BRANCH  17  28
HETATM   28  C20 UNL     1      -2.138 -39.418 -23.471  1.00  0.00     0.013 A 
HETATM   29  C21 UNL     1      -2.783 -40.073 -24.475  1.00  0.00     0.018 A 
HETATM   30  C22 UNL     1      -3.895 -39.513 -25.094  1.00  0.00     0.037 A 
HETATM   31  C23 UNL     1      -4.390 -38.295 -24.737  1.00  0.00     0.065 A 
HETATM   32  C24 UNL     1      -3.753 -37.602 -23.724  1.00  0.00     0.037 A 
HETATM   33  C25 UNL     1      -2.663 -38.162 -23.122  1.00  0.00     0.018 A 
BRANCH  31  34
HETATM   34  O10 UNL     1      -5.517 -37.689 -25.318  1.00  0.00    -0.361 OA
ATOM     35  H10 UNL     1      -6.315 -37.470 -24.851  1.00  0.00     0.217 HD
ENDBRANCH  31  34
ENDBRANCH  17  28
ENDBRANCH  14  17
ENDBRANCH  11  13
ENDBRANCH   1  11
BRANCH   8  36
HETATM   36  O9  UNL     1       4.101 -45.317 -25.067  1.00  0.00    -0.359 OA
ATOM     37  H9  UNL     1       3.950 -44.837 -24.262  1.00  0.00     0.217 HD
ENDBRANCH   8  36
BRANCH   5  38
HETATM   38  S1  UNL     1      -0.278 -46.411 -28.824  1.00  0.00     0.328 S 
HETATM   39  O2  UNL     1       0.170 -45.952 -30.269  1.00  0.00    -0.186 OA
HETATM   40  O3  UNL     1      -1.348 -45.329 -28.530  1.00  0.00    -0.186 OA
BRANCH  38  41
HETATM   41  N7  UNL     1      -1.034 -47.860 -28.866  1.00  0.00    -0.278 NA
HETATM   42  C9  UNL     1      -1.658 -49.085 -28.893  1.00  0.00     0.342 C 
HETATM   43  O4  UNL     1      -1.307 -50.201 -28.509  1.00  0.00    -0.253 OA
BRANCH  42  44
HETATM   44  C10 UNL     1      -3.071 -49.141 -29.500  1.00  0.00     0.368 C 
BRANCH  44  45
HETATM   45  N8  UNL     1      -3.049 -49.105 -30.915  1.00  0.00    -0.058 N 
ATOM     46  H83 UNL     1      -2.546 -49.907 -31.296  1.00  0.00     0.275 HD
ATOM     47  H82 UNL     1      -3.974 -49.294 -31.302  1.00  0.00     0.275 HD
ATOM     48  H81 UNL     1      -2.672 -48.229 -31.275  1.00  0.00     0.275 HD
ENDBRANCH  44  45
BRANCH  44  49
HETATM   49  C11 UNL     1      -4.005 -48.216 -28.876  1.00  0.00     0.254 C 
HETATM   50  O5  UNL     1      -3.652 -47.066 -28.558  1.00  0.00    -0.285 OA
BRANCH  49  51
HETATM   51  C12 UNL     1      -5.387 -48.641 -28.580  1.00  0.00     0.303 C 
HETATM   52  N9  UNL     1      -5.557 -49.628 -27.577  1.00  0.00    -0.054 NA
HETATM   53  O6  UNL     1      -6.368 -48.174 -29.196  1.00  0.00    -0.268 OA
ENDBRANCH  49  51
ENDBRANCH  44  49
ENDBRANCH  42  44
ENDBRANCH  38  41
ENDBRANCH   5  38
BRANCH   7  54
HETATM   54  C15 UNL     1       4.797 -46.487 -27.597  1.00  0.00     0.243 C 
BRANCH  54  55
HETATM   55  O7  UNL     1       4.679 -46.582 -29.058  1.00  0.00    -0.382 OA
ATOM     56  H7  UNL     1       5.594 -46.586 -29.316  1.00  0.00     0.211 HD
ENDBRANCH  54  55
BRANCH  54  57
HETATM   57  C16 UNL     1       5.299 -47.819 -27.264  1.00  0.00     0.264 C 
HETATM   58  N10 UNL     1       5.543 -48.139 -25.882  1.00  0.00    -0.059 NA
HETATM   59  O8  UNL     1       5.527 -48.691 -28.131  1.00  0.00    -0.274 OA
ENDBRANCH  54  57
ENDBRANCH   7  54
TORSDOF 17
ENDMDL
MODEL 5
REMARK VINA RESULT: -11.235603342      1.766      3.232
REMARK  17 active torsions:
REMARK  status: ('A' for Active; 'I' for Inactive)
REMARK       I    between atoms: C1_4  and  N2_5 
REMARK       I    between atoms: C1_4  and  N3_8 
REMARK    1  A    between atoms: N3_8  and  N4_10 
REMARK    2  A    between atoms: N4_10  and  C2_11 
REMARK    3  A    between atoms: C2_11  and  C3_12 
REMARK    4  A    between atoms: C2_11  and  C20_52 
REMARK       I    between atoms: C3_12  and  N5_14 
REMARK    5  A    between atoms: N5_14  and  N6_16 
REMARK    6  A    between atoms: N6_16  and  C4_18 
REMARK    7  A    between atoms: C8_22  and  S1_23 
REMARK    8  A    between atoms: S1_23  and  N7_26 
REMARK       I    between atoms: N7_26  and  C9_27 
REMARK    9  A    between atoms: C9_27  and  C10_29 
REMARK   10  A    between atoms: C10_29  and  N8_30 
REMARK   11  A    between atoms: C10_29  and  C11_34 
REMARK   12  A    between atoms: C11_34  and  C12_36 
REMARK   13  A    between atoms: C14_40  and  C15_41 
REMARK   14  A    between atoms: C15_41  and  O7_42 
REMARK   15  A    between atoms: C15_41  and  C16_44 
REMARK   16  A    between atoms: C17_47  and  O9_48 
REMARK   17  A    between atoms: C23_55  and  O10_56 
ROOT
HETATM    1  C4  UNL     1       0.655 -43.847 -24.254  1.00  0.00     0.049 A 
HETATM    2  C5  UNL     1      -0.456 -44.099 -25.080  1.00  0.00     0.032 A 
HETATM    3  C6  UNL     1      -0.331 -44.808 -26.249  1.00  0.00     0.016 A 
HETATM    4  C7  UNL     1       0.918 -45.295 -26.644  1.00  0.00     0.001 A 
HETATM    5  C8  UNL     1       1.094 -46.047 -27.805  1.00  0.00     0.104 A 
HETATM    6  C13 UNL     1       2.379 -46.519 -28.117  1.00  0.00     0.040 A 
HETATM    7  C14 UNL     1       3.467 -46.274 -27.339  1.00  0.00     0.015 A 
HETATM    8  C17 UNL     1       3.299 -45.542 -26.190  1.00  0.00     0.086 A 
HETATM    9  C18 UNL     1       2.009 -45.052 -25.847  1.00  0.00     0.012 A 
HETATM   10  C19 UNL     1       1.837 -44.331 -24.676  1.00  0.00     0.046 A 
ENDROOT
BRANCH   1  11
HETATM   11  N6  UNL     1       0.496 -43.131 -23.067  1.00  0.00    -0.298 N 
ATOM     12  H6  UNL     1       1.358 -42.942 -22.555  1.00  0.00     0.187 HD
BRANCH  11  13
HETATM   13  N5  UNL     1      -0.641 -42.647 -22.490  1.00  0.00    -0.263 N 
HETATM   14  C3  UNL     1      -1.131 -41.276 -22.511  1.00  0.00     0.303 C 
HETATM   15  O1  UNL     1      -0.463 -40.409 -23.092  1.00  0.00    -0.263 OA
ATOM     16  H5  UNL     1      -1.215 -43.324 -21.987  1.00  0.00     0.190 HD
BRANCH  14  17
HETATM   17  C2  UNL     1      -2.410 -41.057 -21.826  1.00  0.00     0.211 C 
BRANCH  17  18
HETATM   18  N4  UNL     1      -3.238 -40.347 -22.351  1.00  0.00    -0.304 NA
BRANCH  18  19
HETATM   19  N3  UNL     1      -4.078 -39.507 -22.810  1.00  0.00    -0.065 N 
HETATM   20  C1  UNL     1      -4.057 -38.834 -24.092  1.00  0.00     0.694 C 
HETATM   21  N1  UNL     1      -3.987 -37.569 -24.054  1.00  0.00    -0.233 N 
HETATM   22  N2  UNL     1      -4.090 -39.576 -25.255  1.00  0.00    -0.233 N 
ATOM     23  H12 UNL     1      -3.971 -37.095 -24.957  1.00  0.00     0.174 HD
ATOM     24  H11 UNL     1      -3.962 -37.020 -23.196  1.00  0.00     0.174 HD
ATOM     25  H22 UNL     1      -4.074 -39.102 -26.157  1.00  0.00     0.174 HD
ATOM     26  H21 UNL     1      -4.147 -40.594 -25.285  1.00  0.00     0.174 HD
ATOM     27  H3  UNL     1      -4.863 -39.281 -22.199  1.00  0.00     0.221 HD
ENDBRANCH  18  19
ENDBRANCH  17  18
BRANCH  17  28
HETATM   28  C20 UNL     1      -2.649 -41.538 -20.457  1.00  0.00     0.013 A 
HETATM   29  C21 UNL     1      -3.619 -42.416 -20.081  1.00  0.00     0.018 A 
HETATM   30  C22 UNL     1      -3.677 -42.900 -18.778  1.00  0.00     0.037 A 
HETATM   31  C23 UNL     1      -2.782 -42.526 -17.823  1.00  0.00     0.065 A 
HETATM   32  C24 UNL     1      -1.787 -41.631 -18.173  1.00  0.00     0.037 A 
HETATM   33  C25 UNL     1      -1.738 -41.163 -19.454  1.00  0.00     0.018 A 
BRANCH  31  34
HETATM   34  O10 UNL     1      -2.786 -42.994 -16.497  1.00  0.00    -0.361 OA
ATOM     35  H10 UNL     1      -2.707 -42.441 -15.728  1.00  0.00     0.217 HD
ENDBRANCH  31  34
ENDBRANCH  17  28
ENDBRANCH  14  17
ENDBRANCH  11  13
ENDBRANCH   1  11
BRANCH   8  36
HETATM   36  O9  UNL     1       4.293 -45.251 -25.287  1.00  0.00    -0.359 OA
ATOM     37  H9  UNL     1       5.053 -45.795 -25.118  1.00  0.00     0.217 HD
ENDBRANCH   8  36
BRANCH   5  38
HETATM   38  S1  UNL     1      -0.237 -46.396 -28.845  1.00  0.00     0.328 S 
HETATM   39  O2  UNL     1       0.148 -45.949 -30.312  1.00  0.00    -0.186 OA
HETATM   40  O3  UNL     1      -1.298 -45.316 -28.515  1.00  0.00    -0.186 OA
BRANCH  38  41
HETATM   41  N7  UNL     1      -0.987 -47.849 -28.841  1.00  0.00    -0.278 NA
HETATM   42  C9  UNL     1      -1.606 -49.077 -28.830  1.00  0.00     0.342 C 
HETATM   43  O4  UNL     1      -1.253 -50.179 -28.409  1.00  0.00    -0.253 OA
BRANCH  42  44
HETATM   44  C10 UNL     1      -3.018 -49.157 -29.439  1.00  0.00     0.368 C 
BRANCH  44  45
HETATM   45  N8  UNL     1      -2.993 -49.165 -30.854  1.00  0.00    -0.058 N 
ATOM     46  H83 UNL     1      -2.126 -48.761 -31.209  1.00  0.00     0.275 HD
ATOM     47  H82 UNL     1      -2.890 -50.114 -31.214  1.00  0.00     0.275 HD
ATOM     48  H81 UNL     1      -3.808 -48.704 -31.258  1.00  0.00     0.275 HD
ENDBRANCH  44  45
BRANCH  44  49
HETATM   49  C11 UNL     1      -3.957 -48.218 -28.846  1.00  0.00     0.254 C 
HETATM   50  O5  UNL     1      -3.603 -47.064 -28.539  1.00  0.00    -0.285 OA
BRANCH  49  51
HETATM   51  C12 UNL     1      -5.347 -48.630 -28.568  1.00  0.00     0.303 C 
HETATM   52  N9  UNL     1      -5.536 -49.642 -27.594  1.00  0.00    -0.054 NA
HETATM   53  O6  UNL     1      -6.318 -48.132 -29.175  1.00  0.00    -0.268 OA
ENDBRANCH  49  51
ENDBRANCH  44  49
ENDBRANCH  42  44
ENDBRANCH  38  41
ENDBRANCH   5  38
BRANCH   7  54
HETATM   54  C15 UNL     1       4.862 -46.631 -27.741  1.00  0.00     0.243 C 
BRANCH  54  55
HETATM   55  O7  UNL     1       4.695 -46.844 -29.185  1.00  0.00    -0.382 OA
ATOM     56  H7  UNL     1       5.594 -46.778 -29.486  1.00  0.00     0.211 HD
ENDBRANCH  54  55
BRANCH  54  57
HETATM   57  C16 UNL     1       5.317 -47.951 -27.308  1.00  0.00     0.264 C 
HETATM   58  N10 UNL     1       5.631 -48.151 -25.918  1.00  0.00    -0.059 NA
HETATM   59  O8  UNL     1       5.447 -48.913 -28.097  1.00  0.00    -0.274 OA
ENDBRANCH  54  57
ENDBRANCH   7  54
TORSDOF 17
ENDMDL
