MODEL 1
REMARK VINA RESULT: -6.854849030      0.000      0.000
REMARK  5 active torsions:
REMARK  status: ('A' for Active; 'I' for Inactive)
REMARK    1  A    between atoms: C5_5  and  O1_6 
REMARK    2  A    between atoms: O1_6  and  C6_7 
REMARK    3  A    between atoms: C6_7  and  C7_9 
REMARK    4  A    between atoms: C7_9  and  C8_10 
REMARK    5  A    between atoms: C7_9  and  C14_16 
ROOT
HETATM    1  C6  UNL     1      14.397  13.711  13.851  1.00  0.00     0.269 C 
HETATM    2  O2  UNL     1      14.753  12.799  13.039  1.00  0.00    -0.264 OA
ENDROOT
BRANCH   1   3
HETATM    3  O1  UNL     1      15.253  14.001  14.905  1.00  0.00    -0.287 OA
BRANCH   3   4
HETATM    4  C5  UNL     1      15.215  15.252  15.506  1.00  0.00     0.331 C 
HETATM    5  C4  UNL     1      16.578  15.839  15.717  1.00  0.00     0.073 C 
HETATM    6  C2  UNL     1      16.516  17.230  16.237  1.00  0.00    -0.011 C 
HETATM    7  C1  UNL     1      17.856  17.520  16.927  1.00  0.00     0.018 C 
HETATM    8  C3  UNL     1      16.461  18.202  15.054  1.00  0.00     0.018 C 
HETATM    9  C19 UNL     1      15.442  17.493  17.226  1.00  0.00     0.203 C 
HETATM   10  C18 UNL     1      14.246  16.620  17.121  1.00  0.00     0.273 C 
HETATM   11  F1  UNL     1      15.012  18.815  17.042  1.00  0.00    -0.247 F 
HETATM   12  N1  UNL     1      14.552  15.236  16.815  1.00  0.00    -0.046 N 
ATOM     13  H12 UNL     1      13.739  14.620  16.853  1.00  0.00     0.280 HD
ATOM     14  H11 UNL     1      15.094  14.768  17.541  1.00  0.00     0.280 HD
ENDBRANCH   3   4
ENDBRANCH   1   3
BRANCH   1  15
HETATM   15  C7  UNL     1      13.116  14.402  13.638  1.00  0.00     0.123 C 
BRANCH  15  16
HETATM   16  C8  UNL     1      11.942  13.519  13.917  1.00  0.00    -0.044 A 
HETATM   17  C9  UNL     1      11.265  13.723  15.101  1.00  0.00     0.008 A 
HETATM   18  C10 UNL     1      10.167  12.909  15.375  1.00  0.00     0.001 A 
HETATM   19  C11 UNL     1       9.778  11.932  14.481  1.00  0.00     0.000 A 
HETATM   20  C12 UNL     1      10.463  11.745  13.312  1.00  0.00     0.001 A 
HETATM   21  C13 UNL     1      11.546  12.543  13.034  1.00  0.00     0.008 A 
ENDBRANCH  15  16
BRANCH  15  22
HETATM   22  C14 UNL     1      13.021  14.959  12.212  1.00  0.00     0.014 C 
HETATM   23  C15 UNL     1      11.838  15.887  12.201  1.00  0.00     0.017 C 
HETATM   24  C16 UNL     1      11.853  16.627  10.886  1.00  0.00     0.074 C 
HETATM   25  S1  UNL     1      13.653  16.941  10.696  1.00  0.00    -0.169 SA
HETATM   26  C17 UNL     1      14.260  15.801  12.005  1.00  0.00     0.079 C 
ENDBRANCH  15  22
ENDBRANCH   1  15
TORSDOF 5
ENDMDL
MODEL 2
REMARK VINA RESULT: -6.571047887      0.989      1.610
REMARK  5 active torsions:
REMARK  status: ('A' for Active; 'I' for Inactive)
REMARK    1  A    between atoms: C5_5  and  O1_6 
REMARK    2  A    between atoms: O1_6  and  C6_7 
REMARK    3  A    between atoms: C6_7  and  C7_9 
REMARK    4  A    between atoms: C7_9  and  C8_10 
REMARK    5  A    between atoms: C7_9  and  C14_16 
ROOT
HETATM    1  C6  UNL     1      14.127  13.779  14.407  1.00  0.00     0.269 C 
HETATM    2  O2  UNL     1      14.854  13.066  13.645  1.00  0.00    -0.264 OA
ENDROOT
BRANCH   1   3
HETATM    3  O1  UNL     1      14.558  13.962  15.714  1.00  0.00    -0.287 OA
BRANCH   3   4
HETATM    4  C5  UNL     1      15.296  15.091  16.048  1.00  0.00     0.331 C 
HETATM    5  C4  UNL     1      14.457  16.329  16.141  1.00  0.00     0.073 C 
HETATM    6  C2  UNL     1      15.235  17.499  16.628  1.00  0.00    -0.011 C 
HETATM    7  C1  UNL     1      14.496  18.762  16.166  1.00  0.00     0.018 C 
HETATM    8  C3  UNL     1      15.169  17.539  18.158  1.00  0.00     0.018 C 
HETATM    9  C19 UNL     1      16.628  17.591  16.126  1.00  0.00     0.203 C 
HETATM   10  C18 UNL     1      17.262  16.301  15.756  1.00  0.00     0.273 C 
HETATM   11  F1  UNL     1      17.406  18.164  17.142  1.00  0.00    -0.247 F 
HETATM   12  N1  UNL     1      16.369  15.375  15.088  1.00  0.00    -0.046 N 
ATOM     13  H12 UNL     1      16.837  14.537  14.738  1.00  0.00     0.280 HD
ATOM     14  H11 UNL     1      16.031  15.712  14.187  1.00  0.00     0.280 HD
ENDBRANCH   3   4
ENDBRANCH   1   3
BRANCH   1  15
HETATM   15  C7  UNL     1      12.886  14.363  13.876  1.00  0.00     0.123 C 
BRANCH  15  16
HETATM   16  C8  UNL     1      11.715  13.446  14.033  1.00  0.00    -0.044 A 
HETATM   17  C9  UNL     1      10.858  13.690  15.085  1.00  0.00     0.008 A 
HETATM   18  C10 UNL     1       9.760  12.846  15.245  1.00  0.00     0.001 A 
HETATM   19  C11 UNL     1       9.548  11.800  14.370  1.00  0.00     0.000 A 
HETATM   20  C12 UNL     1      10.409  11.574  13.332  1.00  0.00     0.001 A 
HETATM   21  C13 UNL     1      11.494  12.401  13.168  1.00  0.00     0.008 A 
ENDBRANCH  15  16
BRANCH  15  22
HETATM   22  C14 UNL     1      13.047  14.753  12.402  1.00  0.00     0.014 C 
HETATM   23  C15 UNL     1      11.744  15.377  11.987  1.00  0.00     0.017 C 
HETATM   24  C16 UNL     1      11.944  15.980  10.617  1.00  0.00     0.074 C 
HETATM   25  S1  UNL     1      13.631  16.683  10.802  1.00  0.00    -0.169 SA
HETATM   26  C17 UNL     1      14.101  15.836  12.365  1.00  0.00     0.079 C 
ENDBRANCH  15  22
ENDBRANCH   1  15
TORSDOF 5
ENDMDL
MODEL 3
REMARK VINA RESULT: -6.554319474      2.595      3.854
REMARK  5 active torsions:
REMARK  status: ('A' for Active; 'I' for Inactive)
REMARK    1  A    between atoms: C5_5  and  O1_6 
REMARK    2  A    between atoms: O1_6  and  C6_7 
REMARK    3  A    between atoms: C6_7  and  C7_9 
REMARK    4  A    between atoms: C7_9  and  C8_10 
REMARK    5  A    between atoms: C7_9  and  C14_16 
ROOT
HETATM    1  C6  UNL     1      11.758  15.427  16.094  1.00  0.00     0.269 C 
HETATM    2  O2  UNL     1      11.136  15.837  17.125  1.00  0.00    -0.264 OA
ENDROOT
BRANCH   1   3
HETATM    3  O1  UNL     1      12.527  16.352  15.400  1.00  0.00    -0.287 OA
BRANCH   3   4
HETATM    4  C5  UNL     1      13.665  16.888  15.989  1.00  0.00     0.331 C 
HETATM    5  C4  UNL     1      14.928  16.484  15.289  1.00  0.00     0.073 C 
HETATM    6  C2  UNL     1      16.123  17.170  15.847  1.00  0.00    -0.011 C 
HETATM    7  C1  UNL     1      17.347  16.317  15.487  1.00  0.00     0.018 C 
HETATM    8  C3  UNL     1      16.330  18.493  15.105  1.00  0.00     0.018 C 
HETATM    9  C19 UNL     1      16.125  17.349  17.320  1.00  0.00     0.203 C 
HETATM   10  C18 UNL     1      14.786  17.418  17.958  1.00  0.00     0.273 C 
HETATM   11  F1  UNL     1      16.784  18.555  17.598  1.00  0.00    -0.247 F 
HETATM   12  N1  UNL     1      13.816  16.499  17.396  1.00  0.00    -0.046 N 
ATOM     13  H12 UNL     1      12.934  16.472  17.909  1.00  0.00     0.280 HD
ATOM     14  H11 UNL     1      14.062  15.518  17.524  1.00  0.00     0.280 HD
ENDBRANCH   3   4
ENDBRANCH   1   3
BRANCH   1  15
HETATM   15  C7  UNL     1      11.634  14.018  15.694  1.00  0.00     0.123 C 
BRANCH  15  16
HETATM   16  C8  UNL     1      12.883  13.497  15.056  1.00  0.00    -0.044 A 
HETATM   17  C9  UNL     1      12.872  13.330  13.688  1.00  0.00     0.008 A 
HETATM   18  C10 UNL     1      14.029  12.847  13.079  1.00  0.00     0.001 A 
HETATM   19  C11 UNL     1      15.146  12.548  13.832  1.00  0.00     0.000 A 
HETATM   20  C12 UNL     1      15.137  12.720  15.189  1.00  0.00     0.001 A 
HETATM   21  C13 UNL     1      14.001  13.196  15.798  1.00  0.00     0.008 A 
ENDBRANCH  15  16
BRANCH  15  22
HETATM   22  C14 UNL     1      10.445  13.815  14.748  1.00  0.00     0.014 C 
HETATM   23  C15 UNL     1       9.672  12.644  15.287  1.00  0.00     0.017 C 
HETATM   24  C16 UNL     1       8.375  12.563  14.519  1.00  0.00     0.074 C 
HETATM   25  S1  UNL     1       7.953  14.345  14.380  1.00  0.00    -0.169 SA
HETATM   26  C17 UNL     1       9.573  15.042  14.898  1.00  0.00     0.079 C 
ENDBRANCH  15  22
ENDBRANCH   1  15
TORSDOF 5
ENDMDL
MODEL 4
REMARK VINA RESULT: -6.413437671      2.598      6.339
REMARK  5 active torsions:
REMARK  status: ('A' for Active; 'I' for Inactive)
REMARK    1  A    between atoms: C5_5  and  O1_6 
REMARK    2  A    between atoms: O1_6  and  C6_7 
REMARK    3  A    between atoms: C6_7  and  C7_9 
REMARK    4  A    between atoms: C7_9  and  C8_10 
REMARK    5  A    between atoms: C7_9  and  C14_16 
ROOT
HETATM    1  C6  UNL     1      14.234  14.082  15.339  1.00  0.00     0.269 C 
HETATM    2  O2  UNL     1      14.747  12.953  15.619  1.00  0.00    -0.264 OA
ENDROOT
BRANCH   1   3
HETATM    3  O1  UNL     1      12.891  14.267  15.641  1.00  0.00    -0.287 OA
BRANCH   3   4
HETATM    4  C5  UNL     1      11.915  13.652  14.867  1.00  0.00     0.331 C 
HETATM    5  C4  UNL     1      10.730  13.207  15.669  1.00  0.00     0.073 C 
HETATM    6  C2  UNL     1       9.640  12.673  14.811  1.00  0.00    -0.011 C 
HETATM    7  C1  UNL     1       8.769  11.767  15.692  1.00  0.00     0.018 C 
HETATM    8  C3  UNL     1       8.720  13.825  14.398  1.00  0.00     0.018 C 
HETATM    9  C19 UNL     1      10.083  11.866  13.647  1.00  0.00     0.203 C 
HETATM   10  C18 UNL     1      11.435  12.186  13.124  1.00  0.00     0.273 C 
HETATM   11  F1  UNL     1       9.169  12.088  12.607  1.00  0.00    -0.247 F 
HETATM   12  N1  UNL     1      12.414  12.469  14.155  1.00  0.00    -0.046 N 
ATOM     13  H12 UNL     1      13.364  12.579  13.797  1.00  0.00     0.280 HD
ATOM     14  H11 UNL     1      12.605  11.676  14.766  1.00  0.00     0.280 HD
ENDBRANCH   3   4
ENDBRANCH   1   3
BRANCH   1  15
HETATM   15  C7  UNL     1      15.072  15.119  14.719  1.00  0.00     0.123 C 
BRANCH  15  16
HETATM   16  C8  UNL     1      15.776  15.962  15.735  1.00  0.00    -0.044 A 
HETATM   17  C9  UNL     1      17.132  16.153  15.567  1.00  0.00     0.008 A 
HETATM   18  C10 UNL     1      17.802  16.937  16.504  1.00  0.00     0.001 A 
HETATM   19  C11 UNL     1      17.120  17.500  17.563  1.00  0.00     0.000 A 
HETATM   20  C12 UNL     1      15.776  17.299  17.712  1.00  0.00     0.001 A 
HETATM   21  C13 UNL     1      15.107  16.527  16.793  1.00  0.00     0.008 A 
ENDBRANCH  15  16
BRANCH  15  22
HETATM   22  C14 UNL     1      14.246  16.012  13.785  1.00  0.00     0.014 C 
HETATM   23  C15 UNL     1      15.110  17.199  13.465  1.00  0.00     0.017 C 
HETATM   24  C16 UNL     1      14.422  17.979  12.370  1.00  0.00     0.074 C 
HETATM   25  S1  UNL     1      13.794  16.608  11.322  1.00  0.00    -0.169 SA
HETATM   26  C17 UNL     1      14.061  15.227  12.506  1.00  0.00     0.079 C 
ENDBRANCH  15  22
ENDBRANCH   1  15
TORSDOF 5
ENDMDL
MODEL 5
REMARK VINA RESULT: -6.395126199      3.420      6.421
REMARK  5 active torsions:
REMARK  status: ('A' for Active; 'I' for Inactive)
REMARK    1  A    between atoms: C5_5  and  O1_6 
REMARK    2  A    between atoms: O1_6  and  C6_7 
REMARK    3  A    between atoms: C6_7  and  C7_9 
REMARK    4  A    between atoms: C7_9  and  C8_10 
REMARK    5  A    between atoms: C7_9  and  C14_16 
ROOT
HETATM    1  C6  UNL     1      12.043  16.190  16.273  1.00  0.00     0.269 C 
HETATM    2  O2  UNL     1      11.366  17.254  16.437  1.00  0.00    -0.264 OA
ENDROOT
BRANCH   1   3
HETATM    3  O1  UNL     1      11.441  14.988  16.622  1.00  0.00    -0.287 OA
BRANCH   3   4
HETATM    4  C5  UNL     1      10.412  14.477  15.842  1.00  0.00     0.331 C 
HETATM    5  C4  UNL     1      10.757  13.161  15.212  1.00  0.00     0.073 C 
HETATM    6  C2  UNL     1       9.602  12.563  14.491  1.00  0.00    -0.011 C 
HETATM    7  C1  UNL     1      10.168  11.578  13.460  1.00  0.00     0.018 C 
HETATM    8  C3  UNL     1       8.800  11.697  15.467  1.00  0.00     0.018 C 
HETATM    9  C19 UNL     1       8.741  13.525  13.760  1.00  0.00     0.203 C 
HETATM   10  C18 UNL     1       8.725  14.908  14.298  1.00  0.00     0.273 C 
HETATM   11  F1  UNL     1       7.426  13.040  13.813  1.00  0.00    -0.247 F 
HETATM   12  N1  UNL     1      10.018  15.379  14.754  1.00  0.00    -0.046 N 
ATOM     13  H12 UNL     1      10.023  16.365  15.019  1.00  0.00     0.280 HD
ATOM     14  H11 UNL     1      10.712  15.449  14.010  1.00  0.00     0.280 HD
ENDBRANCH   3   4
ENDBRANCH   1   3
BRANCH   1  15
HETATM   15  C7  UNL     1      13.407  16.282  15.732  1.00  0.00     0.123 C 
BRANCH  15  16
HETATM   16  C8  UNL     1      13.833  15.022  15.047  1.00  0.00    -0.044 A 
HETATM   17  C9  UNL     1      13.572  14.917  13.697  1.00  0.00     0.008 A 
HETATM   18  C10 UNL     1      13.964  13.750  13.045  1.00  0.00     0.001 A 
HETATM   19  C11 UNL     1      14.594  12.736  13.738  1.00  0.00     0.000 A 
HETATM   20  C12 UNL     1      14.844  12.860  15.077  1.00  0.00     0.001 A 
HETATM   21  C13 UNL     1      14.460  14.007  15.729  1.00  0.00     0.008 A 
ENDBRANCH  15  16
BRANCH  15  22
HETATM   22  C14 UNL     1      14.414  16.642  16.831  1.00  0.00     0.014 C 
HETATM   23  C15 UNL     1      15.739  16.825  16.145  1.00  0.00     0.017 C 
HETATM   24  C16 UNL     1      16.698  17.404  17.157  1.00  0.00     0.074 C 
HETATM   25  S1  UNL     1      15.598  18.592  18.024  1.00  0.00    -0.169 SA
HETATM   26  C17 UNL     1      13.989  17.992  17.365  1.00  0.00     0.079 C 
ENDBRANCH  15  22
ENDBRANCH   1  15
TORSDOF 5
ENDMDL
