MODEL 1
REMARK VINA RESULT: -6.867019081      0.000      0.000
REMARK  4 active torsions:
REMARK  status: ('A' for Active; 'I' for Inactive)
REMARK    1  A    between atoms: C4_5  and  S1_6 
REMARK    2  A    between atoms: S1_6  and  C5_7 
REMARK    3  A    between atoms: C7_12  and  C8_13 
REMARK    4  A    between atoms: C11_16  and  N3_17 
ROOT
HETATM    1  C5  UNL     1      16.869  18.332  16.407  1.00  0.00     0.075 C 
HETATM    2  C6  UNL     1      17.756  17.706  15.362  1.00  0.00     0.248 C 
HETATM    3  N2  UNL     1      16.783  16.889  14.606  1.00  0.00    -0.066 N 
ATOM      4  H21 UNL     1      17.146  16.386  13.797  1.00  0.00     0.278 HD
ATOM      5  H22 UNL     1      16.085  17.400  14.066  1.00  0.00     0.278 HD
HETATM    6  C7  UNL     1      16.281  16.073  15.703  1.00  0.00     0.220 C 
HETATM    7  C18 UNL     1      15.932  17.154  16.726  1.00  0.00     0.055 C 
ENDROOT
BRANCH   6   8
HETATM    8  C8  UNL     1      15.131  15.246  15.356  1.00  0.00    -0.025 A 
HETATM    9  C9  UNL     1      15.076  13.929  15.730  1.00  0.00     0.012 A 
HETATM   10  C10 UNL     1      13.966  13.145  15.397  1.00  0.00     0.034 A 
HETATM   11  C11 UNL     1      12.906  13.672  14.690  1.00  0.00     0.077 A 
HETATM   12  C16 UNL     1      12.981  14.999  14.324  1.00  0.00     0.144 A 
HETATM   13  F1  UNL     1      11.970  15.581  13.629  1.00  0.00    -0.204 F 
HETATM   14  C17 UNL     1      14.084  15.784  14.653  1.00  0.00     0.054 A 
BRANCH  11  15
HETATM   15  N3  UNL     1      11.749  12.937  14.318  1.00  0.00    -0.330 N 
HETATM   16  C12 UNL     1      10.597  12.883  15.009  1.00  0.00     0.097 A 
HETATM   17  C13 UNL     1       9.678  12.072  14.361  1.00  0.00     0.019 A 
HETATM   18  C14 UNL     1      10.313  11.621  13.229  1.00  0.00     0.019 A 
HETATM   19  C15 UNL     1      11.581  12.170  13.233  1.00  0.00     0.097 A 
ENDBRANCH  11  15
ENDBRANCH   6   8
BRANCH   1  20
HETATM   20  S1  UNL     1      15.858  19.677  15.864  1.00  0.00    -0.158 SA
BRANCH  20  21
HETATM   21  C4  UNL     1      14.831  20.463  17.118  1.00  0.00     0.050 C 
HETATM   22  C3  UNL     1      13.375  20.217  16.841  1.00  0.00     0.034 C 
HETATM   23  C2  UNL     1      12.745  19.232  17.783  1.00  0.00     0.117 C 
HETATM   24  N1  UNL     1      12.993  19.644  19.120  1.00  0.00    -0.417 N 
HETATM   25  C1  UNL     1      12.279  20.791  19.562  1.00  0.00     0.143 C 
HETATM   26  C20 UNL     1      14.372  19.595  19.443  1.00  0.00     0.117 C 
HETATM   27  C19 UNL     1      15.291  20.302  18.499  1.00  0.00     0.034 C 
ENDBRANCH  20  21
ENDBRANCH   1  20
TORSDOF 4
ENDMDL
MODEL 2
REMARK VINA RESULT: -6.863244124      0.793      1.528
REMARK  4 active torsions:
REMARK  status: ('A' for Active; 'I' for Inactive)
REMARK    1  A    between atoms: C4_5  and  S1_6 
REMARK    2  A    between atoms: S1_6  and  C5_7 
REMARK    3  A    between atoms: C7_12  and  C8_13 
REMARK    4  A    between atoms: C11_16  and  N3_17 
ROOT
HETATM    1  C5  UNL     1      16.681  18.285  17.184  1.00  0.00     0.075 C 
HETATM    2  C6  UNL     1      17.455  18.034  15.917  1.00  0.00     0.248 C 
HETATM    3  N2  UNL     1      16.451  17.319  15.100  1.00  0.00    -0.066 N 
ATOM      4  H21 UNL     1      16.733  17.070  14.152  1.00  0.00     0.278 HD
ATOM      5  H22 UNL     1      15.644  17.862  14.796  1.00  0.00     0.278 HD
HETATM    6  C7  UNL     1      16.180  16.211  16.006  1.00  0.00     0.220 C 
HETATM    7  C18 UNL     1      15.897  16.966  17.304  1.00  0.00     0.055 C 
ENDROOT
BRANCH   6   8
HETATM    8  C8  UNL     1      15.062  15.367  15.601  1.00  0.00    -0.025 A 
HETATM    9  C9  UNL     1      15.121  14.006  15.751  1.00  0.00     0.012 A 
HETATM   10  C10 UNL     1      14.040  13.204  15.364  1.00  0.00     0.034 A 
HETATM   11  C11 UNL     1      12.898  13.758  14.827  1.00  0.00     0.077 A 
HETATM   12  C16 UNL     1      12.859  15.129  14.685  1.00  0.00     0.144 A 
HETATM   13  F1  UNL     1      11.763  15.738  14.165  1.00  0.00    -0.204 F 
HETATM   14  C17 UNL     1      13.931  15.931  15.068  1.00  0.00     0.054 A 
BRANCH  11  15
HETATM   15  N3  UNL     1      11.764  13.008  14.413  1.00  0.00    -0.330 N 
HETATM   16  C12 UNL     1      11.658  12.315  13.266  1.00  0.00     0.097 A 
HETATM   17  C13 UNL     1      10.417  11.703  13.181  1.00  0.00     0.019 A 
HETATM   18  C14 UNL     1       9.752  12.048  14.332  1.00  0.00     0.019 A 
HETATM   19  C15 UNL     1      10.606  12.849  15.065  1.00  0.00     0.097 A 
ENDBRANCH  11  15
ENDBRANCH   6   8
BRANCH   1  20
HETATM   20  S1  UNL     1      15.498  19.598  17.127  1.00  0.00    -0.158 SA
BRANCH  20  21
HETATM   21  C4  UNL     1      13.950  19.320  18.005  1.00  0.00     0.050 C 
HETATM   22  C3  UNL     1      14.091  19.683  19.456  1.00  0.00     0.034 C 
HETATM   23  C2  UNL     1      13.390  20.958  19.824  1.00  0.00     0.117 C 
HETATM   24  N1  UNL     1      12.036  20.883  19.401  1.00  0.00    -0.417 N 
HETATM   25  C1  UNL     1      11.198  20.003  20.140  1.00  0.00     0.143 C 
HETATM   26  C20 UNL     1      11.924  20.824  17.989  1.00  0.00     0.117 C 
HETATM   27  C19 UNL     1      12.743  19.774  17.311  1.00  0.00     0.034 C 
ENDBRANCH  20  21
ENDBRANCH   1  20
TORSDOF 4
ENDMDL
MODEL 3
REMARK VINA RESULT: -6.727928552      2.428      3.923
REMARK  4 active torsions:
REMARK  status: ('A' for Active; 'I' for Inactive)
REMARK    1  A    between atoms: C4_5  and  S1_6 
REMARK    2  A    between atoms: S1_6  and  C5_7 
REMARK    3  A    between atoms: C7_12  and  C8_13 
REMARK    4  A    between atoms: C11_16  and  N3_17 
ROOT
HETATM    1  C5  UNL     1      15.425  15.450  15.778  1.00  0.00     0.075 C 
HETATM    2  C6  UNL     1      15.160  15.966  14.388  1.00  0.00     0.248 C 
HETATM    3  N2  UNL     1      13.702  15.749  14.269  1.00  0.00    -0.066 N 
ATOM      4  H21 UNL     1      13.266  16.067  13.404  1.00  0.00     0.278 HD
ATOM      5  H22 UNL     1      13.109  16.326  14.866  1.00  0.00     0.278 HD
HETATM    6  C7  UNL     1      13.671  14.315  14.520  1.00  0.00     0.220 C 
HETATM    7  C18 UNL     1      14.482  14.234  15.813  1.00  0.00     0.055 C 
ENDROOT
BRANCH   6   8
HETATM    8  C8  UNL     1      12.330  13.762  14.670  1.00  0.00    -0.025 A 
HETATM    9  C9  UNL     1      11.462  14.274  15.599  1.00  0.00     0.012 A 
HETATM   10  C10 UNL     1      10.175  13.741  15.732  1.00  0.00     0.034 A 
HETATM   11  C11 UNL     1       9.750  12.695  14.939  1.00  0.00     0.077 A 
HETATM   12  C16 UNL     1      10.639  12.196  14.012  1.00  0.00     0.144 A 
HETATM   13  F1  UNL     1      10.283  11.169  13.199  1.00  0.00    -0.204 F 
HETATM   14  C17 UNL     1      11.921  12.723  13.875  1.00  0.00     0.054 A 
BRANCH  11  15
HETATM   15  N3  UNL     1       8.461  12.104  15.020  1.00  0.00    -0.330 N 
HETATM   16  C12 UNL     1       7.396  12.437  14.269  1.00  0.00     0.097 A 
HETATM   17  C13 UNL     1       6.298  11.663  14.610  1.00  0.00     0.019 A 
HETATM   18  C14 UNL     1       6.729  10.828  15.612  1.00  0.00     0.019 A 
HETATM   19  C15 UNL     1       8.059  11.125  15.840  1.00  0.00     0.097 A 
ENDBRANCH  11  15
ENDBRANCH   6   8
BRANCH   1  20
HETATM   20  S1  UNL     1      14.956  16.518  17.107  1.00  0.00    -0.158 SA
BRANCH  20  21
HETATM   21  C4  UNL     1      15.337  18.267  16.901  1.00  0.00     0.050 C 
HETATM   22  C3  UNL     1      16.811  18.466  16.691  1.00  0.00     0.034 C 
HETATM   23  C2  UNL     1      17.171  18.825  15.279  1.00  0.00     0.117 C 
HETATM   24  N1  UNL     1      16.397  19.944  14.872  1.00  0.00    -0.417 N 
HETATM   25  C1  UNL     1      16.742  21.191  15.463  1.00  0.00     0.143 C 
HETATM   26  C20 UNL     1      15.014  19.637  14.808  1.00  0.00     0.117 C 
HETATM   27  C19 UNL     1      14.425  19.011  16.030  1.00  0.00     0.034 C 
ENDBRANCH  20  21
ENDBRANCH   1  20
TORSDOF 4
ENDMDL
MODEL 4
REMARK VINA RESULT: -6.684244032      2.384      7.708
REMARK  4 active torsions:
REMARK  status: ('A' for Active; 'I' for Inactive)
REMARK    1  A    between atoms: C4_5  and  S1_6 
REMARK    2  A    between atoms: S1_6  and  C5_7 
REMARK    3  A    between atoms: C7_12  and  C8_13 
REMARK    4  A    between atoms: C11_16  and  N3_17 
ROOT
HETATM    1  C5  UNL     1      14.103  13.666  13.789  1.00  0.00     0.075 C 
HETATM    2  C6  UNL     1      14.544  12.846  14.973  1.00  0.00     0.248 C 
HETATM    3  N2  UNL     1      14.355  13.808  16.080  1.00  0.00    -0.066 N 
ATOM      4  H21 UNL     1      14.553  13.463  17.019  1.00  0.00     0.278 HD
ATOM      5  H22 UNL     1      13.392  14.063  16.299  1.00  0.00     0.278 HD
HETATM    6  C7  UNL     1      15.211  14.879  15.590  1.00  0.00     0.220 C 
HETATM    7  C18 UNL     1      14.678  15.043  14.167  1.00  0.00     0.055 C 
ENDROOT
BRANCH   6   8
HETATM    8  C8  UNL     1      15.124  16.115  16.360  1.00  0.00    -0.025 A 
HETATM    9  C9  UNL     1      16.254  16.721  16.843  1.00  0.00     0.012 A 
HETATM   10  C10 UNL     1      16.161  17.910  17.576  1.00  0.00     0.034 A 
HETATM   11  C11 UNL     1      14.940  18.498  17.829  1.00  0.00     0.077 A 
HETATM   12  C16 UNL     1      13.816  17.872  17.334  1.00  0.00     0.144 A 
HETATM   13  F1  UNL     1      12.583  18.400  17.545  1.00  0.00    -0.204 F 
HETATM   14  C17 UNL     1      13.902  16.689  16.604  1.00  0.00     0.054 A 
BRANCH  11  15
HETATM   15  N3  UNL     1      14.769  19.701  18.564  1.00  0.00    -0.330 N 
HETATM   16  C12 UNL     1      14.881  20.946  18.070  1.00  0.00     0.097 A 
HETATM   17  C13 UNL     1      14.654  21.886  19.063  1.00  0.00     0.019 A 
HETATM   18  C14 UNL     1      14.395  21.167  20.204  1.00  0.00     0.019 A 
HETATM   19  C15 UNL     1      14.474  19.831  19.864  1.00  0.00     0.097 A 
ENDBRANCH  11  15
ENDBRANCH   6   8
BRANCH   1  20
HETATM   20  S1  UNL     1      12.357  13.862  13.586  1.00  0.00    -0.158 SA
BRANCH  20  21
HETATM   21  C4  UNL     1      11.313  12.650  14.412  1.00  0.00     0.050 C 
HETATM   22  C3  UNL     1      10.769  13.207  15.696  1.00  0.00     0.034 C 
HETATM   23  C2  UNL     1       9.309  13.549  15.629  1.00  0.00     0.117 C 
HETATM   24  N1  UNL     1       8.587  12.416  15.167  1.00  0.00    -0.417 N 
HETATM   25  C1  UNL     1       8.471  11.334  16.081  1.00  0.00     0.143 C 
HETATM   26  C20 UNL     1       8.924  12.082  13.831  1.00  0.00     0.117 C 
HETATM   27  C19 UNL     1      10.382  11.925  13.544  1.00  0.00     0.034 C 
ENDBRANCH  20  21
ENDBRANCH   1  20
TORSDOF 4
ENDMDL
MODEL 5
REMARK VINA RESULT: -6.648072165      2.105      3.194
REMARK  4 active torsions:
REMARK  status: ('A' for Active; 'I' for Inactive)
REMARK    1  A    between atoms: C4_5  and  S1_6 
REMARK    2  A    between atoms: S1_6  and  C5_7 
REMARK    3  A    between atoms: C7_12  and  C8_13 
REMARK    4  A    between atoms: C11_16  and  N3_17 
ROOT
HETATM    1  C5  UNL     1      15.491  15.491  15.747  1.00  0.00     0.075 C 
HETATM    2  C6  UNL     1      15.178  16.071  14.393  1.00  0.00     0.248 C 
HETATM    3  N2  UNL     1      13.719  15.843  14.309  1.00  0.00    -0.066 N 
ATOM      4  H21 UNL     1      13.253  16.198  13.475  1.00  0.00     0.278 HD
ATOM      5  H22 UNL     1      13.139  16.382  14.951  1.00  0.00     0.278 HD
HETATM    6  C7  UNL     1      13.711  14.398  14.489  1.00  0.00     0.220 C 
HETATM    7  C18 UNL     1      14.562  14.263  15.752  1.00  0.00     0.055 C 
ENDROOT
BRANCH   6   8
HETATM    8  C8  UNL     1      12.381  13.822  14.654  1.00  0.00    -0.025 A 
HETATM    9  C9  UNL     1      11.522  14.305  15.605  1.00  0.00     0.012 A 
HETATM   10  C10 UNL     1      10.245  13.750  15.752  1.00  0.00     0.034 A 
HETATM   11  C11 UNL     1       9.822  12.712  14.949  1.00  0.00     0.077 A 
HETATM   12  C16 UNL     1      10.702  12.241  13.998  1.00  0.00     0.144 A 
HETATM   13  F1  UNL     1      10.348  11.223  13.174  1.00  0.00    -0.204 F 
HETATM   14  C17 UNL     1      11.974  12.790  13.848  1.00  0.00     0.054 A 
BRANCH  11  15
HETATM   15  N3  UNL     1       8.544  12.100  15.041  1.00  0.00    -0.330 N 
HETATM   16  C12 UNL     1       7.464  12.421  14.307  1.00  0.00     0.097 A 
HETATM   17  C13 UNL     1       6.383  11.627  14.657  1.00  0.00     0.019 A 
HETATM   18  C14 UNL     1       6.840  10.792  15.647  1.00  0.00     0.019 A 
HETATM   19  C15 UNL     1       8.168  11.108  15.859  1.00  0.00     0.097 A 
ENDBRANCH  11  15
ENDBRANCH   6   8
BRANCH   1  20
HETATM   20  S1  UNL     1      15.053  16.487  17.142  1.00  0.00    -0.158 SA
BRANCH  20  21
HETATM   21  C4  UNL     1      14.858  18.252  16.836  1.00  0.00     0.050 C 
HETATM   22  C3  UNL     1      13.404  18.614  16.733  1.00  0.00     0.034 C 
HETATM   23  C2  UNL     1      12.888  19.362  17.928  1.00  0.00     0.117 C 
HETATM   24  N1  UNL     1      13.723  20.485  18.169  1.00  0.00    -0.417 N 
HETATM   25  C1  UNL     1      13.620  21.553  17.236  1.00  0.00     0.143 C 
HETATM   26  C20 UNL     1      15.035  20.099  18.545  1.00  0.00     0.117 C 
HETATM   27  C19 UNL     1      15.716  19.127  17.637  1.00  0.00     0.034 C 
ENDBRANCH  20  21
ENDBRANCH   1  20
TORSDOF 4
ENDMDL
