MODEL 1
REMARK VINA RESULT: -6.270993572      0.000      0.000
REMARK  4 active torsions:
REMARK  status: ('A' for Active; 'I' for Inactive)
REMARK    1  A    between atoms: S1_2  and  C2_3 
REMARK    2  A    between atoms: C5_9  and  C6_10 
REMARK       I    between atoms: C6_10  and  N2_12 
REMARK    3  A    between atoms: N2_12  and  C7_14 
REMARK    4  A    between atoms: C10_17  and  C11_18 
ROOT
HETATM    1  C6  UNL     1      17.942  18.353  14.819  1.00  0.00     0.270 C 
HETATM    2  O1  UNL     1      17.949  18.523  16.071  1.00  0.00    -0.266 OA
HETATM    3  N2  UNL     1      16.880  17.614  14.226  1.00  0.00    -0.351 N 
ATOM      4  H2  UNL     1      16.868  17.472  13.216  1.00  0.00     0.163 HD
ENDROOT
BRANCH   1   5
HETATM    5  C5  UNL     1      19.022  18.916  14.004  1.00  0.00     0.126 A 
HETATM    6  C4  UNL     1      20.068  18.102  13.625  1.00  0.00     0.081 A 
HETATM    7  C3  UNL     1      21.066  18.665  12.859  1.00  0.00     0.116 A 
HETATM    8 CL1  UNL     1      20.123  16.411  14.103  1.00  0.00    -0.080 Cl
HETATM    9  N1  UNL     1      20.983  19.978  12.513  1.00  0.00    -0.345 N 
HETATM   10  C2  UNL     1      19.955  20.746  12.895  1.00  0.00     0.144 A 
ATOM     11  H1  UNL     1      21.725  20.388  11.946  1.00  0.00     0.167 HD
HETATM   12  N3  UNL     1      18.976  20.209  13.642  1.00  0.00    -0.331 N 
ATOM     13  H3  UNL     1      18.190  20.789  13.936  1.00  0.00     0.168 HD
BRANCH  10  14
HETATM   14  S1  UNL     1      19.817  22.473  12.457  1.00  0.00    -0.098 SA
HETATM   15  C1  UNL     1      21.255  22.988  11.464  1.00  0.00     0.099 C 
ENDBRANCH  10  14
ENDBRANCH   1   5
BRANCH   3  16
HETATM   16  C7  UNL     1      15.834  17.069  15.023  1.00  0.00     0.089 C 
HETATM   17  C8  UNL     1      16.091  15.636  15.437  1.00  0.00     0.026 C 
HETATM   18  C9  UNL     1      14.712  15.193  15.921  1.00  0.00     0.012 C 
HETATM   19  C10 UNL     1      13.834  15.847  14.880  1.00  0.00    -0.031 A 
HETATM   20  C16 UNL     1      13.319  17.262  15.216  1.00  0.00     0.017 A 
HETATM   21  C17 UNL     1      14.504  16.988  14.296  1.00  0.00     0.018 A 
BRANCH  19  22
HETATM   22  C11 UNL     1      12.805  14.976  14.260  1.00  0.00    -0.006 C 
HETATM   23  C12 UNL     1      12.287  13.853  15.068  1.00  0.00     0.005 C 
HETATM   24  C13 UNL     1      12.428  12.641  14.181  1.00  0.00     0.000 C 
HETATM   25  C14 UNL     1      13.631  12.916  13.329  1.00  0.00     0.000 C 
HETATM   26  C15 UNL     1      13.451  14.384  12.997  1.00  0.00     0.005 C 
ENDBRANCH  19  22
ENDBRANCH   3  16
TORSDOF 4
ENDMDL
MODEL 2
REMARK VINA RESULT: -6.197105936      3.413      5.495
REMARK  4 active torsions:
REMARK  status: ('A' for Active; 'I' for Inactive)
REMARK    1  A    between atoms: S1_2  and  C2_3 
REMARK    2  A    between atoms: C5_9  and  C6_10 
REMARK       I    between atoms: C6_10  and  N2_12 
REMARK    3  A    between atoms: N2_12  and  C7_14 
REMARK    4  A    between atoms: C10_17  and  C11_18 
ROOT
HETATM    1  C6  UNL     1      14.116  14.986  13.311  1.00  0.00     0.270 C 
HETATM    2  O1  UNL     1      14.473  14.272  12.331  1.00  0.00    -0.266 OA
HETATM    3  N2  UNL     1      12.756  14.956  13.730  1.00  0.00    -0.351 N 
ATOM      4  H2  UNL     1      12.461  15.531  14.520  1.00  0.00     0.163 HD
ENDROOT
BRANCH   1   5
HETATM    5  C5  UNL     1      15.102  15.827  13.993  1.00  0.00     0.126 A 
HETATM    6  C4  UNL     1      15.501  15.490  15.269  1.00  0.00     0.081 A 
HETATM    7  C3  UNL     1      16.430  16.305  15.880  1.00  0.00     0.116 A 
HETATM    8 CL1  UNL     1      14.848  14.076  16.081  1.00  0.00    -0.080 Cl
HETATM    9  N1  UNL     1      16.909  17.391  15.214  1.00  0.00    -0.345 N 
HETATM   10  C2  UNL     1      16.503  17.695  13.974  1.00  0.00     0.144 A 
ATOM     11  H1  UNL     1      17.595  17.989  15.672  1.00  0.00     0.167 HD
HETATM   12  N3  UNL     1      15.599  16.909  13.368  1.00  0.00    -0.331 N 
ATOM     13  H3  UNL     1      15.285  17.135  12.425  1.00  0.00     0.168 HD
BRANCH  10  14
HETATM   14  S1  UNL     1      17.112  19.113  13.073  1.00  0.00    -0.098 SA
HETATM   15  C1  UNL     1      18.905  19.303  13.334  1.00  0.00     0.099 C 
ENDBRANCH  10  14
ENDBRANCH   1   5
BRANCH   3  16
HETATM   16  C7  UNL     1      11.803  14.137  13.064  1.00  0.00     0.089 C 
HETATM   17  C8  UNL     1      10.509  14.863  12.760  1.00  0.00     0.026 C 
HETATM   18  C9  UNL     1       9.570  13.708  12.419  1.00  0.00     0.012 C 
HETATM   19  C10 UNL     1       9.992  12.696  13.459  1.00  0.00    -0.031 A 
HETATM   20  C16 UNL     1      11.099  11.708  13.037  1.00  0.00     0.017 A 
HETATM   21  C17 UNL     1      11.349  12.948  13.889  1.00  0.00     0.018 A 
BRANCH  19  22
HETATM   22  C11 UNL     1       8.894  12.059  14.227  1.00  0.00    -0.006 C 
HETATM   23  C12 UNL     1       7.512  12.484  13.921  1.00  0.00     0.005 C 
HETATM   24  C13 UNL     1       6.911  12.841  15.257  1.00  0.00     0.000 C 
HETATM   25  C14 UNL     1       8.058  13.348  16.081  1.00  0.00     0.000 C 
HETATM   26  C15 UNL     1       9.164  12.382  15.706  1.00  0.00     0.005 C 
ENDBRANCH  19  22
ENDBRANCH   3  16
TORSDOF 4
ENDMDL
MODEL 3
REMARK VINA RESULT: -6.193084818      3.749      4.971
REMARK  4 active torsions:
REMARK  status: ('A' for Active; 'I' for Inactive)
REMARK    1  A    between atoms: S1_2  and  C2_3 
REMARK    2  A    between atoms: C5_9  and  C6_10 
REMARK       I    between atoms: C6_10  and  N2_12 
REMARK    3  A    between atoms: N2_12  and  C7_14 
REMARK    4  A    between atoms: C10_17  and  C11_18 
ROOT
HETATM    1  C6  UNL     1      15.347  16.462  14.654  1.00  0.00     0.270 C 
HETATM    2  O1  UNL     1      15.706  16.566  13.447  1.00  0.00    -0.266 OA
HETATM    3  N2  UNL     1      14.296  15.561  14.988  1.00  0.00    -0.351 N 
ATOM      4  H2  UNL     1      14.001  15.472  15.961  1.00  0.00     0.163 HD
ENDROOT
BRANCH   1   5
HETATM    5  C5  UNL     1      16.012  17.266  15.681  1.00  0.00     0.126 A 
HETATM    6  C4  UNL     1      17.303  16.948  16.047  1.00  0.00     0.081 A 
HETATM    7  C3  UNL     1      17.898  17.726  17.017  1.00  0.00     0.116 A 
HETATM    8 CL1  UNL     1      18.154  15.603  15.303  1.00  0.00    -0.080 Cl
HETATM    9  N1  UNL     1      17.202  18.758  17.567  1.00  0.00    -0.345 N 
HETATM   10  C2  UNL     1      15.948  19.044  17.193  1.00  0.00     0.144 A 
ATOM     11  H1  UNL     1      17.648  19.329  18.284  1.00  0.00     0.167 HD
HETATM   12  N3  UNL     1      15.358  18.294  16.249  1.00  0.00    -0.331 N 
ATOM     13  H3  UNL     1      14.403  18.506  15.959  1.00  0.00     0.168 HD
BRANCH  10  14
HETATM   14  S1  UNL     1      15.008  20.391  17.895  1.00  0.00    -0.098 SA
HETATM   15  C1  UNL     1      14.230  19.870  19.458  1.00  0.00     0.099 C 
ENDBRANCH  10  14
ENDBRANCH   1   5
BRANCH   3  16
HETATM   16  C7  UNL     1      13.653  14.783  13.986  1.00  0.00     0.089 C 
HETATM   17  C8  UNL     1      12.366  15.407  13.488  1.00  0.00     0.026 C 
HETATM   18  C9  UNL     1      11.714  14.241  12.748  1.00  0.00     0.012 C 
HETATM   19  C10 UNL     1      12.038  13.104  13.689  1.00  0.00    -0.031 A 
HETATM   20  C16 UNL     1      13.348  12.339  13.406  1.00  0.00     0.017 A 
HETATM   21  C17 UNL     1      13.210  13.417  14.477  1.00  0.00     0.018 A 
BRANCH  19  22
HETATM   22  C11 UNL     1      10.904  12.218  14.051  1.00  0.00    -0.006 C 
HETATM   23  C12 UNL     1       9.762  12.157  13.115  1.00  0.00     0.005 C 
HETATM   24  C13 UNL     1       8.546  12.414  13.971  1.00  0.00     0.000 C 
HETATM   25  C14 UNL     1       9.022  13.324  15.064  1.00  0.00     0.000 C 
HETATM   26  C15 UNL     1      10.376  12.730  15.400  1.00  0.00     0.005 C 
ENDBRANCH  19  22
ENDBRANCH   3  16
TORSDOF 4
ENDMDL
MODEL 4
REMARK VINA RESULT: -6.169448967      7.072     10.802
REMARK  4 active torsions:
REMARK  status: ('A' for Active; 'I' for Inactive)
REMARK    1  A    between atoms: S1_2  and  C2_3 
REMARK    2  A    between atoms: C5_9  and  C6_10 
REMARK       I    between atoms: C6_10  and  N2_12 
REMARK    3  A    between atoms: N2_12  and  C7_14 
REMARK    4  A    between atoms: C10_17  and  C11_18 
ROOT
HETATM    1  C6  UNL     1      10.060  12.587  13.750  1.00  0.00     0.270 C 
HETATM    2  O1  UNL     1      10.611  11.704  13.032  1.00  0.00    -0.266 OA
HETATM    3  N2  UNL     1      10.875  13.537  14.427  1.00  0.00    -0.351 N 
ATOM      4  H2  UNL     1      10.436  14.251  15.009  1.00  0.00     0.163 HD
ENDROOT
BRANCH   1   5
HETATM    5  C5  UNL     1       8.601  12.615  13.871  1.00  0.00     0.126 A 
HETATM    6  C4  UNL     1       7.902  13.658  13.302  1.00  0.00     0.081 A 
HETATM    7  C3  UNL     1       6.530  13.653  13.436  1.00  0.00     0.116 A 
HETATM    8 CL1  UNL     1       8.732  14.944  12.439  1.00  0.00    -0.080 Cl
HETATM    9  N1  UNL     1       5.928  12.637  14.113  1.00  0.00    -0.345 N 
HETATM   10  C2  UNL     1       6.632  11.635  14.657  1.00  0.00     0.144 A 
ATOM     11  H1  UNL     1       4.914  12.639  14.209  1.00  0.00     0.167 HD
HETATM   12  N3  UNL     1       7.969  11.630  14.533  1.00  0.00    -0.331 N 
ATOM     13  H3  UNL     1       8.511  10.870  14.944  1.00  0.00     0.168 HD
BRANCH  10  14
HETATM   14  S1  UNL     1       5.872  10.288  15.551  1.00  0.00    -0.098 SA
HETATM   15  C1  UNL     1       4.648   9.444  14.499  1.00  0.00     0.099 C 
ENDBRANCH  10  14
ENDBRANCH   1   5
BRANCH   3  16
HETATM   16  C7  UNL     1      12.292  13.504  14.306  1.00  0.00     0.089 C 
HETATM   17  C8  UNL     1      12.992  13.241  15.623  1.00  0.00     0.026 C 
HETATM   18  C9  UNL     1      14.434  13.629  15.299  1.00  0.00     0.012 C 
HETATM   19  C10 UNL     1      14.201  14.862  14.457  1.00  0.00    -0.031 A 
HETATM   20  C16 UNL     1      14.091  14.636  12.935  1.00  0.00     0.017 A 
HETATM   21  C17 UNL     1      12.888  14.824  13.853  1.00  0.00     0.018 A 
BRANCH  19  22
HETATM   22  C11 UNL     1      15.005  16.056  14.819  1.00  0.00    -0.006 C 
HETATM   23  C12 UNL     1      16.242  15.833  15.598  1.00  0.00     0.005 C 
HETATM   24  C13 UNL     1      16.134  16.773  16.773  1.00  0.00     0.000 C 
HETATM   25  C14 UNL     1      14.664  16.881  17.054  1.00  0.00     0.000 C 
HETATM   26  C15 UNL     1      14.082  16.955  15.657  1.00  0.00     0.005 C 
ENDBRANCH  19  22
ENDBRANCH   3  16
TORSDOF 4
ENDMDL
MODEL 5
REMARK VINA RESULT: -6.154506900      1.563      2.119
REMARK  4 active torsions:
REMARK  status: ('A' for Active; 'I' for Inactive)
REMARK    1  A    between atoms: S1_2  and  C2_3 
REMARK    2  A    between atoms: C5_9  and  C6_10 
REMARK       I    between atoms: C6_10  and  N2_12 
REMARK    3  A    between atoms: N2_12  and  C7_14 
REMARK    4  A    between atoms: C10_17  and  C11_18 
ROOT
HETATM    1  C6  UNL     1      16.642  16.729  15.383  1.00  0.00     0.270 C 
HETATM    2  O1  UNL     1      16.417  17.009  16.594  1.00  0.00    -0.266 OA
HETATM    3  N2  UNL     1      15.812  15.779  14.725  1.00  0.00    -0.351 N 
ATOM      4  H2  UNL     1      15.988  15.548  13.747  1.00  0.00     0.163 HD
ENDROOT
BRANCH   1   5
HETATM    5  C5  UNL     1      17.749  17.384  14.680  1.00  0.00     0.126 A 
HETATM    6  C4  UNL     1      18.946  16.714  14.548  1.00  0.00     0.081 A 
HETATM    7  C3  UNL     1      19.965  17.361  13.881  1.00  0.00     0.116 A 
HETATM    8 CL1  UNL     1      19.162  15.099  15.204  1.00  0.00    -0.080 Cl
HETATM    9  N1  UNL     1      19.755  18.612  13.389  1.00  0.00    -0.345 N 
HETATM   10  C2  UNL     1      18.580  19.240  13.533  1.00  0.00     0.144 A 
ATOM     11  H1  UNL     1      20.513  19.084  12.898  1.00  0.00     0.167 HD
HETATM   12  N3  UNL     1      17.580  18.620  14.180  1.00  0.00    -0.331 N 
ATOM     13  H3  UNL     1      16.683  19.092  14.293  1.00  0.00     0.168 HD
BRANCH  10  14
HETATM   14  S1  UNL     1      18.272  20.882  12.899  1.00  0.00    -0.098 SA
HETATM   15  C1  UNL     1      19.840  21.790  12.714  1.00  0.00     0.099 C 
ENDBRANCH  10  14
ENDBRANCH   1   5
BRANCH   3  16
HETATM   16  C7  UNL     1      14.739  15.146  15.412  1.00  0.00     0.089 C 
HETATM   17  C8  UNL     1      14.753  13.638  15.271  1.00  0.00     0.026 C 
HETATM   18  C9  UNL     1      13.351  13.261  15.746  1.00  0.00     0.012 C 
HETATM   19  C10 UNL     1      12.542  14.371  15.116  1.00  0.00    -0.031 A 
HETATM   20  C16 UNL     1      12.322  15.628  15.982  1.00  0.00     0.017 A 
HETATM   21  C17 UNL     1      13.372  15.532  14.880  1.00  0.00     0.018 A 
BRANCH  19  22
HETATM   22  C11 UNL     1      11.330  13.948  14.371  1.00  0.00    -0.006 C 
HETATM   23  C12 UNL     1      10.543  12.829  14.931  1.00  0.00     0.005 C 
HETATM   24  C13 UNL     1      10.380  11.860  13.786  1.00  0.00     0.000 C 
HETATM   25  C14 UNL     1      11.617  12.023  12.955  1.00  0.00     0.000 C 
HETATM   26  C15 UNL     1      11.813  13.526  12.974  1.00  0.00     0.005 C 
ENDBRANCH  19  22
ENDBRANCH   3  16
TORSDOF 4
ENDMDL
