MODEL 1
REMARK VINA RESULT: -7.881772821      0.000      0.000
REMARK  3 active torsions:
REMARK  status: ('A' for Active; 'I' for Inactive)
REMARK    1  A    between atoms: C4_4  and  C5_5 
REMARK    2  A    between atoms: N1_13  and  C13_15 
REMARK    3  A    between atoms: C18_21  and  N2_22 
ROOT
HETATM    1  C5  UNL     1      14.392  17.821  12.874  1.00  0.00     0.060 C 
HETATM    2  C6  UNL     1      13.394  17.424  13.971  1.00  0.00     0.093 C 
HETATM    3  C7  UNL     1      13.869  18.326  15.093  1.00  0.00     0.033 C 
HETATM    4  C8  UNL     1      15.315  18.601  14.838  1.00  0.00     0.020 C 
HETATM    5  C9  UNL     1      16.259  18.052  15.846  1.00  0.00     0.039 C 
HETATM    6  C10 UNL     1      16.403  16.629  15.437  1.00  0.00     0.129 C 
HETATM    7  C11 UNL     1      15.435  15.794  16.296  1.00  0.00     0.108 C 
HETATM    8  C12 UNL     1      14.283  15.361  15.433  1.00  0.00     0.080 C 
HETATM    9  N1  UNL     1      13.922  14.178  15.704  1.00  0.00    -0.344 N 
ATOM     10  H1  UNL     1      14.432  13.689  16.440  1.00  0.00     0.167 HD
HETATM   11  N3  UNL     1      13.583  16.060  14.411  1.00  0.00    -0.374 N 
ATOM     12  H3  UNL     1      13.065  15.411  13.817  1.00  0.00     0.161 HD
HETATM   13  O3  UNL     1      16.012  16.510  14.120  1.00  0.00    -0.379 OA
HETATM   14  C19 UNL     1      15.668  17.722  13.601  1.00  0.00     0.136 C 
ENDROOT
BRANCH   9  15
HETATM   15  C13 UNL     1      12.868  13.480  15.070  1.00  0.00     0.067 A 
HETATM   16  C14 UNL     1      11.598  13.389  15.600  1.00  0.00     0.035 A 
HETATM   17  C15 UNL     1      10.581  12.691  14.944  1.00  0.00     0.044 A 
HETATM   18  C16 UNL     1      10.892  12.091  13.741  1.00  0.00     0.118 A 
HETATM   19  F1  UNL     1       9.902  11.412  13.104  1.00  0.00    -0.206 F 
HETATM   20  C17 UNL     1      12.143  12.151  13.167  1.00  0.00     0.080 A 
HETATM   21  C18 UNL     1      13.127  12.862  13.862  1.00  0.00     0.132 A 
BRANCH  21  22
HETATM   22  N2  UNL     1      14.423  12.920  13.261  1.00  0.00    -0.113 N 
HETATM   23  O1  UNL     1      14.688  13.833  12.454  1.00  0.00    -0.532 OA
HETATM   24  O2  UNL     1      15.407  12.003  13.534  1.00  0.00    -0.532 OA
ENDBRANCH  21  22
ENDBRANCH   9  15
BRANCH   1  25
HETATM   25  C4  UNL     1      14.141  17.197  11.623  1.00  0.00    -0.016 C 
HETATM   26  C2  UNL     1      13.315  17.468  10.661  1.00  0.00    -0.091 C 
HETATM   27  C1  UNL     1      12.326  18.565  10.554  1.00  0.00     0.042 C 
HETATM   28  C3  UNL     1      13.312  16.563   9.407  1.00  0.00     0.042 C 
ENDBRANCH   1  25
TORSDOF 3
ENDMDL
MODEL 2
REMARK VINA RESULT: -7.435055514      2.401      4.264
REMARK  3 active torsions:
REMARK  status: ('A' for Active; 'I' for Inactive)
REMARK    1  A    between atoms: C4_4  and  C5_5 
REMARK    2  A    between atoms: N1_13  and  C13_15 
REMARK    3  A    between atoms: C18_21  and  N2_22 
ROOT
HETATM    1  C5  UNL     1      15.733  18.491  17.513  1.00  0.00     0.060 C 
HETATM    2  C6  UNL     1      15.938  17.007  17.176  1.00  0.00     0.093 C 
HETATM    3  C7  UNL     1      17.414  17.020  16.833  1.00  0.00     0.033 C 
HETATM    4  C8  UNL     1      17.734  18.403  16.370  1.00  0.00     0.020 C 
HETATM    5  C9  UNL     1      18.136  18.525  14.945  1.00  0.00     0.039 C 
HETATM    6  C10 UNL     1      16.835  18.529  14.224  1.00  0.00     0.129 C 
HETATM    7  C11 UNL     1      16.566  17.093  13.737  1.00  0.00     0.108 C 
HETATM    8  C12 UNL     1      15.477  16.497  14.585  1.00  0.00     0.080 C 
HETATM    9  N1  UNL     1      14.690  15.785  13.894  1.00  0.00    -0.344 N 
ATOM     10  H1  UNL     1      14.883  15.707  12.896  1.00  0.00     0.167 HD
HETATM   11  N3  UNL     1      15.225  16.617  15.979  1.00  0.00    -0.374 N 
ATOM     12  H3  UNL     1      14.264  16.352  16.199  1.00  0.00     0.161 HD
HETATM   13  O3  UNL     1      15.840  18.868  15.117  1.00  0.00    -0.379 OA
HETATM   14  C19 UNL     1      16.359  19.136  16.347  1.00  0.00     0.136 C 
ENDROOT
BRANCH   9  15
HETATM   15  C13 UNL     1      13.565  15.090  14.395  1.00  0.00     0.067 A 
HETATM   16  C14 UNL     1      12.453  15.725  14.908  1.00  0.00     0.035 A 
HETATM   17  C15 UNL     1      11.359  15.004  15.393  1.00  0.00     0.044 A 
HETATM   18  C16 UNL     1      11.429  13.627  15.342  1.00  0.00     0.118 A 
HETATM   19  F1  UNL     1      10.364  12.927  15.814  1.00  0.00    -0.206 F 
HETATM   20  C17 UNL     1      12.515  12.943  14.840  1.00  0.00     0.080 A 
HETATM   21  C18 UNL     1      13.584  13.708  14.366  1.00  0.00     0.132 A 
BRANCH  21  22
HETATM   22  N2  UNL     1      14.707  12.992  13.847  1.00  0.00    -0.113 N 
HETATM   23  O1  UNL     1      14.872  12.913  12.614  1.00  0.00    -0.532 OA
HETATM   24  O2  UNL     1      15.629  12.376  14.655  1.00  0.00    -0.532 OA
ENDBRANCH  21  22
ENDBRANCH   9  15
BRANCH   1  25
HETATM   25  C4  UNL     1      14.427  18.793  17.981  1.00  0.00    -0.016 C 
HETATM   26  C2  UNL     1      13.992  19.599  18.898  1.00  0.00    -0.091 C 
HETATM   27  C1  UNL     1      14.752  20.504  19.791  1.00  0.00     0.042 C 
HETATM   28  C3  UNL     1      12.467  19.688  19.147  1.00  0.00     0.042 C 
ENDBRANCH   1  25
TORSDOF 3
ENDMDL
MODEL 3
REMARK VINA RESULT: -7.128898832      1.578      1.920
REMARK  3 active torsions:
REMARK  status: ('A' for Active; 'I' for Inactive)
REMARK    1  A    between atoms: C4_4  and  C5_5 
REMARK    2  A    between atoms: N1_13  and  C13_15 
REMARK    3  A    between atoms: C18_21  and  N2_22 
ROOT
HETATM    1  C5  UNL     1      15.678  18.577  12.456  1.00  0.00     0.060 C 
HETATM    2  C6  UNL     1      15.054  18.343  13.839  1.00  0.00     0.093 C 
HETATM    3  C7  UNL     1      16.043  19.101  14.702  1.00  0.00     0.033 C 
HETATM    4  C8  UNL     1      17.342  19.102  13.965  1.00  0.00     0.020 C 
HETATM    5  C9  UNL     1      18.447  18.350  14.612  1.00  0.00     0.039 C 
HETATM    6  C10 UNL     1      18.171  16.941  14.228  1.00  0.00     0.129 C 
HETATM    7  C11 UNL     1      17.410  16.278  15.392  1.00  0.00     0.108 C 
HETATM    8  C12 UNL     1      15.974  16.101  14.985  1.00  0.00     0.080 C 
HETATM    9  N1  UNL     1      15.507  15.002  15.402  1.00  0.00    -0.344 N 
ATOM     10  H1  UNL     1      16.132  14.400  15.939  1.00  0.00     0.167 HD
HETATM   11  N3  UNL     1      15.117  16.954  14.236  1.00  0.00    -0.374 N 
ATOM     12  H3  UNL     1      14.315  16.436  13.875  1.00  0.00     0.161 HD
HETATM   13  O3  UNL     1      17.343  16.942  13.126  1.00  0.00    -0.379 OA
HETATM   14  C19 UNL     1      17.081  18.213  12.712  1.00  0.00     0.136 C 
ENDROOT
BRANCH   9  15
HETATM   15  C13 UNL     1      14.188  14.539  15.186  1.00  0.00     0.067 A 
HETATM   16  C14 UNL     1      13.075  15.168  15.703  1.00  0.00     0.035 A 
HETATM   17  C15 UNL     1      11.787  14.681  15.468  1.00  0.00     0.044 A 
HETATM   18  C16 UNL     1      11.665  13.543  14.696  1.00  0.00     0.118 A 
HETATM   19  F1  UNL     1      10.411  13.072  14.468  1.00  0.00    -0.206 F 
HETATM   20  C17 UNL     1      12.743  12.877  14.156  1.00  0.00     0.080 A 
HETATM   21  C18 UNL     1      14.012  13.403  14.420  1.00  0.00     0.132 A 
BRANCH  21  22
HETATM   22  N2  UNL     1      15.125  12.706  13.856  1.00  0.00    -0.113 N 
HETATM   23  O1  UNL     1      15.149  12.469  12.633  1.00  0.00    -0.532 OA
HETATM   24  O2  UNL     1      16.189  12.279  14.610  1.00  0.00    -0.532 OA
ENDBRANCH  21  22
ENDBRANCH   9  15
BRANCH   1  25
HETATM   25  C4  UNL     1      14.904  18.055  11.386  1.00  0.00    -0.016 C 
HETATM   26  C2  UNL     1      14.693  18.469  10.176  1.00  0.00    -0.091 C 
HETATM   27  C1  UNL     1      15.215  19.674   9.491  1.00  0.00     0.042 C 
HETATM   28  C3  UNL     1      13.780  17.629   9.252  1.00  0.00     0.042 C 
ENDBRANCH   1  25
TORSDOF 3
ENDMDL
MODEL 4
REMARK VINA RESULT: -7.110262489      0.835      1.026
REMARK  3 active torsions:
REMARK  status: ('A' for Active; 'I' for Inactive)
REMARK    1  A    between atoms: C4_4  and  C5_5 
REMARK    2  A    between atoms: N1_13  and  C13_15 
REMARK    3  A    between atoms: C18_21  and  N2_22 
ROOT
HETATM    1  C5  UNL     1      13.616  18.013  12.019  1.00  0.00     0.060 C 
HETATM    2  C6  UNL     1      12.838  17.647  13.290  1.00  0.00     0.093 C 
HETATM    3  C7  UNL     1      13.368  18.708  14.234  1.00  0.00     0.033 C 
HETATM    4  C8  UNL     1      14.722  19.091  13.732  1.00  0.00     0.020 C 
HETATM    5  C9  UNL     1      15.857  18.749  14.627  1.00  0.00     0.039 C 
HETATM    6  C10 UNL     1      16.098  17.311  14.338  1.00  0.00     0.129 C 
HETATM    7  C11 UNL     1      15.364  16.487  15.413  1.00  0.00     0.108 C 
HETATM    8  C12 UNL     1      14.154  15.852  14.785  1.00  0.00     0.080 C 
HETATM    9  N1  UNL     1      13.970  14.678  15.220  1.00  0.00    -0.344 N 
ATOM     10  H1  UNL     1      14.633  14.325  15.910  1.00  0.00     0.167 HD
HETATM   11  N3  UNL     1      13.240  16.364  13.823  1.00  0.00    -0.374 N 
ATOM     12  H3  UNL     1      12.717  15.607  13.381  1.00  0.00     0.161 HD
HETATM   13  O3  UNL     1      15.536  17.010  13.115  1.00  0.00    -0.379 OA
HETATM   14  C19 UNL     1      14.987  18.118  12.544  1.00  0.00     0.136 C 
ENDROOT
BRANCH   9  15
HETATM   15  C13 UNL     1      12.920  13.816  14.827  1.00  0.00     0.067 A 
HETATM   16  C14 UNL     1      11.700  13.773  15.470  1.00  0.00     0.035 A 
HETATM   17  C15 UNL     1      10.686  12.909  15.052  1.00  0.00     0.044 A 
HETATM   18  C16 UNL     1      10.946  12.094  13.969  1.00  0.00     0.118 A 
HETATM   19  F1  UNL     1       9.957  11.254  13.564  1.00  0.00    -0.206 F 
HETATM   20  C17 UNL     1      12.145  12.098  13.291  1.00  0.00     0.080 A 
HETATM   21  C18 UNL     1      13.130  12.981  13.746  1.00  0.00     0.132 A 
BRANCH  21  22
HETATM   22  N2  UNL     1      14.371  12.979  13.039  1.00  0.00    -0.113 N 
HETATM   23  O1  UNL     1      14.730  14.001  12.421  1.00  0.00    -0.532 OA
HETATM   24  O2  UNL     1      15.203  11.888  13.005  1.00  0.00    -0.532 OA
ENDBRANCH  21  22
ENDBRANCH   9  15
BRANCH   1  25
HETATM   25  C4  UNL     1      13.257  17.234  10.887  1.00  0.00    -0.016 C 
HETATM   26  C2  UNL     1      13.625  17.274   9.645  1.00  0.00    -0.091 C 
HETATM   27  C1  UNL     1      14.583  18.187   8.978  1.00  0.00     0.042 C 
HETATM   28  C3  UNL     1      13.026  16.245   8.658  1.00  0.00     0.042 C 
ENDBRANCH   1  25
TORSDOF 3
ENDMDL
MODEL 5
REMARK VINA RESULT: -7.068293006      2.282      3.957
REMARK  3 active torsions:
REMARK  status: ('A' for Active; 'I' for Inactive)
REMARK    1  A    between atoms: C4_4  and  C5_5 
REMARK    2  A    between atoms: N1_13  and  C13_15 
REMARK    3  A    between atoms: C18_21  and  N2_22 
ROOT
HETATM    1  C5  UNL     1      14.516  18.460  17.551  1.00  0.00     0.060 C 
HETATM    2  C6  UNL     1      14.859  16.975  17.365  1.00  0.00     0.093 C 
HETATM    3  C7  UNL     1      16.366  17.035  17.519  1.00  0.00     0.033 C 
HETATM    4  C8  UNL     1      16.782  18.414  17.125  1.00  0.00     0.020 C 
HETATM    5  C9  UNL     1      17.623  18.505  15.903  1.00  0.00     0.039 C 
HETATM    6  C10 UNL     1      16.628  18.433  14.800  1.00  0.00     0.129 C 
HETATM    7  C11 UNL     1      16.572  16.972  14.316  1.00  0.00     0.108 C 
HETATM    8  C12 UNL     1      15.282  16.362  14.790  1.00  0.00     0.080 C 
HETATM    9  N1  UNL     1      14.783  15.597  13.913  1.00  0.00    -0.344 N 
ATOM     10  H1  UNL     1      15.293  15.494  13.036  1.00  0.00     0.167 HD
HETATM   11  N3  UNL     1      14.586  16.518  16.020  1.00  0.00    -0.374 N 
ATOM     12  H3  UNL     1      13.614  16.222  15.927  1.00  0.00     0.161 HD
HETATM   13  O3  UNL     1      15.389  18.762  15.305  1.00  0.00    -0.379 OA
HETATM   14  C19 UNL     1      15.470  19.091  16.625  1.00  0.00     0.136 C 
ENDROOT
BRANCH   9  15
HETATM   15  C13 UNL     1      13.575  14.874  14.051  1.00  0.00     0.067 A 
HETATM   16  C14 UNL     1      12.339  15.481  14.134  1.00  0.00     0.035 A 
HETATM   17  C15 UNL     1      11.167  14.734  14.270  1.00  0.00     0.044 A 
HETATM   18  C16 UNL     1      11.287  13.360  14.319  1.00  0.00     0.118 A 
HETATM   19  F1  UNL     1      10.146  12.634  14.450  1.00  0.00    -0.206 F 
HETATM   20  C17 UNL     1      12.496  12.704  14.240  1.00  0.00     0.080 A 
HETATM   21  C18 UNL     1      13.641  13.495  14.104  1.00  0.00     0.132 A 
BRANCH  21  22
HETATM   22  N2  UNL     1      14.892  12.808  14.024  1.00  0.00    -0.113 N 
HETATM   23  O1  UNL     1      15.716  12.916  14.952  1.00  0.00    -0.532 OA
HETATM   24  O2  UNL     1      15.235  12.020  12.954  1.00  0.00    -0.532 OA
ENDBRANCH  21  22
ENDBRANCH   9  15
BRANCH   1  25
HETATM   25  C4  UNL     1      13.121  18.725  17.556  1.00  0.00    -0.016 C 
HETATM   26  C2  UNL     1      12.370  19.443  18.331  1.00  0.00    -0.091 C 
HETATM   27  C1  UNL     1      12.745  20.255  19.512  1.00  0.00     0.042 C 
HETATM   28  C3  UNL     1      10.854  19.519  18.036  1.00  0.00     0.042 C 
ENDBRANCH   1  25
TORSDOF 3
ENDMDL
