MODEL 1
REMARK VINA RESULT: -6.016513523      0.000      0.000
REMARK  7 active torsions:
REMARK  status: ('A' for Active; 'I' for Inactive)
REMARK    1  A    between atoms: C2_2  and  C3_3 
REMARK    2  A    between atoms: C3_3  and  C4_4 
REMARK    3  A    between atoms: C4_4  and  N1_5 
REMARK    4  A    between atoms: N1_5  and  C5_6 
REMARK    5  A    between atoms: N1_5  and  C8_9 
REMARK    6  A    between atoms: C5_6  and  C6_7 
REMARK    7  A    between atoms: C8_9  and  C9_10 
ROOT
HETATM    1  N1  UNL     1      -3.968   2.435  14.518  1.00  0.00    -0.269 NA
ENDROOT
BRANCH   1   2
HETATM    2  C4  UNL     1      -4.107   1.973  15.943  1.00  0.00     0.103 C 
BRANCH   2   3
HETATM    3  C3  UNL     1      -4.854   0.647  15.967  1.00  0.00     0.041 C 
BRANCH   3   4
HETATM    4  C2  UNL     1      -5.905   0.796  16.982  1.00  0.00    -0.036 C 
HETATM    5  C1  UNL     1      -7.087   1.256  16.998  1.00  0.00     0.007 C 
ENDBRANCH   3   4
ENDBRANCH   2   3
ENDBRANCH   1   2
BRANCH   1   6
HETATM    6  C5  UNL     1      -4.352   3.766  14.592  1.00  0.00     0.064 C 
BRANCH   6   7
HETATM    7  C6  UNL     1      -5.781   4.115  14.678  1.00  0.00     0.001 C 
HETATM    8  C7  UNL     1      -6.301   5.063  13.911  1.00  0.00     0.012 C 
ENDBRANCH   6   7
ENDBRANCH   1   6
BRANCH   1   9
HETATM    9  C8  UNL     1      -4.481   1.423  13.746  1.00  0.00     0.083 C 
BRANCH   9  10
HETATM   10  C9  UNL     1      -4.366   1.365  12.309  1.00  0.00     0.069 A 
HETATM   11  C10 UNL     1      -4.519   2.276  11.316  1.00  0.00     0.185 A 
HETATM   12  O1  UNL     1      -4.475   1.620  10.158  1.00  0.00    -0.246 OA
HETATM   13  N2  UNL     1      -4.309   0.352  10.326  1.00  0.00    -0.225 N 
HETATM   14  C11 UNL     1      -4.241   0.139  11.631  1.00  0.00     0.278 A 
ATOM     15  H2  UNL     1      -4.243  -0.354   9.593  1.00  0.00     0.198 HD
HETATM   16  O2  UNL     1      -4.089  -0.984  12.176  1.00  0.00    -0.265 OA
ENDBRANCH   9  10
ENDBRANCH   1   9
TORSDOF 7
ENDMDL
MODEL 2
REMARK VINA RESULT: -5.957859324      2.519      4.604
REMARK  7 active torsions:
REMARK  status: ('A' for Active; 'I' for Inactive)
REMARK    1  A    between atoms: C2_2  and  C3_3 
REMARK    2  A    between atoms: C3_3  and  C4_4 
REMARK    3  A    between atoms: C4_4  and  N1_5 
REMARK    4  A    between atoms: N1_5  and  C5_6 
REMARK    5  A    between atoms: N1_5  and  C8_9 
REMARK    6  A    between atoms: C5_6  and  C6_7 
REMARK    7  A    between atoms: C8_9  and  C9_10 
ROOT
HETATM    1  N1  UNL     1      -5.335   3.296  13.980  1.00  0.00    -0.269 NA
ENDROOT
BRANCH   1   2
HETATM    2  C4  UNL     1      -4.232   2.583  13.245  1.00  0.00     0.103 C 
BRANCH   2   3
HETATM    3  C3  UNL     1      -4.818   1.876  12.030  1.00  0.00     0.041 C 
BRANCH   3   4
HETATM    4  C2  UNL     1      -4.105   0.597  11.927  1.00  0.00    -0.036 C 
HETATM    5  C1  UNL     1      -4.046  -0.339  11.073  1.00  0.00     0.007 C 
ENDBRANCH   3   4
ENDBRANCH   2   3
ENDBRANCH   1   2
BRANCH   1   6
HETATM    6  C5  UNL     1      -5.394   4.519  13.328  1.00  0.00     0.064 C 
BRANCH   6   7
HETATM    7  C6  UNL     1      -6.422   5.504  13.706  1.00  0.00     0.001 C 
HETATM    8  C7  UNL     1      -6.937   6.333  12.810  1.00  0.00     0.012 C 
ENDBRANCH   6   7
ENDBRANCH   1   6
BRANCH   1   9
HETATM    9  C8  UNL     1      -5.129   3.028  15.310  1.00  0.00     0.083 C 
BRANCH   9  10
HETATM   10  C9  UNL     1      -5.718   1.911  16.010  1.00  0.00     0.069 A 
HETATM   11  C10 UNL     1      -6.947   1.670  16.529  1.00  0.00     0.185 A 
HETATM   12  O1  UNL     1      -6.872   0.542  17.233  1.00  0.00    -0.246 OA
HETATM   13  N2  UNL     1      -5.686   0.037  17.212  1.00  0.00    -0.225 N 
HETATM   14  C11 UNL     1      -4.934   0.842  16.478  1.00  0.00     0.278 A 
ATOM     15  H2  UNL     1      -5.384  -0.822  17.673  1.00  0.00     0.198 HD
HETATM   16  O2  UNL     1      -3.710   0.674  16.238  1.00  0.00    -0.265 OA
ENDBRANCH   9  10
ENDBRANCH   1   9
TORSDOF 7
ENDMDL
MODEL 3
REMARK VINA RESULT: -5.940926799      2.494      5.037
REMARK  7 active torsions:
REMARK  status: ('A' for Active; 'I' for Inactive)
REMARK    1  A    between atoms: C2_2  and  C3_3 
REMARK    2  A    between atoms: C3_3  and  C4_4 
REMARK    3  A    between atoms: C4_4  and  N1_5 
REMARK    4  A    between atoms: N1_5  and  C5_6 
REMARK    5  A    between atoms: N1_5  and  C8_9 
REMARK    6  A    between atoms: C5_6  and  C6_7 
REMARK    7  A    between atoms: C8_9  and  C9_10 
ROOT
HETATM    1  N1  UNL     1      -4.713   3.144  14.156  1.00  0.00    -0.269 NA
ENDROOT
BRANCH   1   2
HETATM    2  C4  UNL     1      -4.795   4.588  13.742  1.00  0.00     0.103 C 
BRANCH   2   3
HETATM    3  C3  UNL     1      -6.058   5.205  14.328  1.00  0.00     0.041 C 
BRANCH   3   4
HETATM    4  C2  UNL     1      -6.696   5.936  13.226  1.00  0.00    -0.036 C 
HETATM    5  C1  UNL     1      -6.289   6.561  12.200  1.00  0.00     0.007 C 
ENDBRANCH   3   4
ENDBRANCH   2   3
ENDBRANCH   1   2
BRANCH   1   6
HETATM    6  C5  UNL     1      -5.042   2.473  12.987  1.00  0.00     0.064 C 
BRANCH   6   7
HETATM    7  C6  UNL     1      -4.206   1.353  12.523  1.00  0.00     0.001 C 
HETATM    8  C7  UNL     1      -4.495   0.701  11.405  1.00  0.00     0.012 C 
ENDBRANCH   6   7
ENDBRANCH   1   6
BRANCH   1   9
HETATM    9  C8  UNL     1      -5.303   3.077  15.394  1.00  0.00     0.083 C 
BRANCH   9  10
HETATM   10  C9  UNL     1      -5.782   1.856  15.997  1.00  0.00     0.069 A 
HETATM   11  C10 UNL     1      -6.990   1.446  16.454  1.00  0.00     0.185 A 
HETATM   12  O1  UNL     1      -6.809   0.286  17.084  1.00  0.00    -0.246 OA
HETATM   13  N2  UNL     1      -5.574  -0.082  17.071  1.00  0.00    -0.225 N 
HETATM   14  C11 UNL     1      -4.897   0.850  16.420  1.00  0.00     0.278 A 
ATOM     15  H2  UNL     1      -5.190  -0.933  17.485  1.00  0.00     0.198 HD
HETATM   16  O2  UNL     1      -3.656   0.835  16.213  1.00  0.00    -0.265 OA
ENDBRANCH   9  10
ENDBRANCH   1   9
TORSDOF 7
ENDMDL
MODEL 4
REMARK VINA RESULT: -5.935962655      1.211      1.621
REMARK  7 active torsions:
REMARK  status: ('A' for Active; 'I' for Inactive)
REMARK    1  A    between atoms: C2_2  and  C3_3 
REMARK    2  A    between atoms: C3_3  and  C4_4 
REMARK    3  A    between atoms: C4_4  and  N1_5 
REMARK    4  A    between atoms: N1_5  and  C5_6 
REMARK    5  A    between atoms: N1_5  and  C8_9 
REMARK    6  A    between atoms: C5_6  and  C6_7 
REMARK    7  A    between atoms: C8_9  and  C9_10 
ROOT
HETATM    1  N1  UNL     1      -3.578   2.851  13.865  1.00  0.00    -0.269 NA
ENDROOT
BRANCH   1   2
HETATM    2  C4  UNL     1      -4.578   1.868  14.412  1.00  0.00     0.103 C 
BRANCH   2   3
HETATM    3  C3  UNL     1      -4.327   1.679  15.902  1.00  0.00     0.041 C 
BRANCH   3   4
HETATM    4  C2  UNL     1      -5.630   1.340  16.489  1.00  0.00    -0.036 C 
HETATM    5  C1  UNL     1      -6.626   1.997  16.917  1.00  0.00     0.007 C 
ENDBRANCH   3   4
ENDBRANCH   2   3
ENDBRANCH   1   2
BRANCH   1   6
HETATM    6  C5  UNL     1      -3.668   3.906  14.762  1.00  0.00     0.064 C 
BRANCH   6   7
HETATM    7  C6  UNL     1      -4.419   5.119  14.397  1.00  0.00     0.001 C 
HETATM    8  C7  UNL     1      -5.681   5.281  14.769  1.00  0.00     0.012 C 
ENDBRANCH   6   7
ENDBRANCH   1   6
BRANCH   1   9
HETATM    9  C8  UNL     1      -3.759   2.847  12.505  1.00  0.00     0.083 C 
BRANCH   9  10
HETATM   10  C9  UNL     1      -3.628   1.674  11.675  1.00  0.00     0.069 A 
HETATM   11  C10 UNL     1      -2.575   0.921  11.273  1.00  0.00     0.185 A 
HETATM   12  O1  UNL     1      -3.020   0.063  10.356  1.00  0.00    -0.246 OA
HETATM   13  N2  UNL     1      -4.281   0.208  10.132  1.00  0.00    -0.225 N 
HETATM   14  C11 UNL     1      -4.705   1.189  10.913  1.00  0.00     0.278 A 
ATOM     15  H2  UNL     1      -4.846  -0.332   9.476  1.00  0.00     0.198 HD
HETATM   16  O2  UNL     1      -5.886   1.619  10.962  1.00  0.00    -0.265 OA
ENDBRANCH   9  10
ENDBRANCH   1   9
TORSDOF 7
ENDMDL
MODEL 5
REMARK VINA RESULT: -5.897016894      1.020      1.087
REMARK  7 active torsions:
REMARK  status: ('A' for Active; 'I' for Inactive)
REMARK    1  A    between atoms: C2_2  and  C3_3 
REMARK    2  A    between atoms: C3_3  and  C4_4 
REMARK    3  A    between atoms: C4_4  and  N1_5 
REMARK    4  A    between atoms: N1_5  and  C5_6 
REMARK    5  A    between atoms: N1_5  and  C8_9 
REMARK    6  A    between atoms: C5_6  and  C6_7 
REMARK    7  A    between atoms: C8_9  and  C9_10 
ROOT
HETATM    1  N1  UNL     1      -3.974   2.060  14.243  1.00  0.00    -0.269 NA
ENDROOT
BRANCH   1   2
HETATM    2  C4  UNL     1      -4.514   0.963  15.120  1.00  0.00     0.103 C 
BRANCH   2   3
HETATM    3  C3  UNL     1      -4.842   1.536  16.492  1.00  0.00     0.041 C 
BRANCH   3   4
HETATM    4  C2  UNL     1      -6.063   0.849  16.933  1.00  0.00    -0.036 C 
HETATM    5  C1  UNL     1      -7.296   1.140  16.981  1.00  0.00     0.007 C 
ENDBRANCH   3   4
ENDBRANCH   2   3
ENDBRANCH   1   2
BRANCH   1   6
HETATM    6  C5  UNL     1      -4.156   3.191  15.026  1.00  0.00     0.064 C 
BRANCH   6   7
HETATM    7  C6  UNL     1      -4.701   4.421  14.425  1.00  0.00     0.001 C 
HETATM    8  C7  UNL     1      -5.894   4.882  14.772  1.00  0.00     0.012 C 
ENDBRANCH   6   7
ENDBRANCH   1   6
BRANCH   1   9
HETATM    9  C8  UNL     1      -4.440   1.791  12.980  1.00  0.00     0.083 C 
BRANCH   9  10
HETATM   10  C9  UNL     1      -3.612   1.313  11.899  1.00  0.00     0.069 A 
HETATM   11  C10 UNL     1      -2.852   1.924  10.957  1.00  0.00     0.185 A 
HETATM   12  O1  UNL     1      -2.456   0.992  10.092  1.00  0.00    -0.246 OA
HETATM   13  N2  UNL     1      -2.906  -0.176  10.402  1.00  0.00    -0.225 N 
HETATM   14  C11 UNL     1      -3.629  -0.035  11.502  1.00  0.00     0.278 A 
ATOM     15  H2  UNL     1      -2.737  -1.045   9.895  1.00  0.00     0.198 HD
HETATM   16  O2  UNL     1      -4.234  -0.964  12.097  1.00  0.00    -0.265 OA
ENDBRANCH   9  10
ENDBRANCH   1   9
TORSDOF 7
ENDMDL
